MODEL 1
REMARK VINA RESULT:      -7.0      0.000      0.000
REMARK  Name = 
REMARK  8 active torsions:
REMARK  status: ('A' for Active; 'I' for Inactive)
REMARK    1  A    between atoms: C_1  and  O_2
REMARK    2  A    between atoms: O_2  and  C_3
REMARK    3  A    between atoms: C_6  and  C_7
REMARK    4  A    between atoms: N_9  and  C_10
REMARK    5  A    between atoms: C_10  and  C_11
REMARK    6  A    between atoms: C_11  and  N_12
REMARK    7  A    between atoms: N_12  and  C_13
REMARK    8  A    between atoms: C_16  and  N_17
REMARK                            x       y       z     vdW  Elec       q    Type
REMARK                         _______ _______ _______ _____ _____    ______ ____
ROOT
ATOM      1  C   UNL     1       2.055   3.567  19.658  0.00  0.00    +0.000 C 
ENDROOT
BRANCH   1   4
ATOM      2  C   UNL     1       4.366   3.730  18.786  0.00  0.00    +0.000 C 
ATOM      3  O   UNL     1       4.823   3.100  19.729  0.00  0.00    +0.000 OA
ATOM      4  N   UNL     1       3.021   4.023  18.672  0.00  0.00    +0.000 N 
ATOM      5  H   UNL     1       2.663   4.492  17.858  0.00  0.00    +0.000 HD
BRANCH   2   9
ATOM      6  C   UNL     1       6.940   5.094  15.602  0.00  0.00    +0.000 A 
ATOM      7  C   UNL     1       5.982   4.106  15.384  0.00  0.00    +0.000 A 
ATOM      8  C   UNL     1       5.146   3.687  16.425  0.00  0.00    +0.000 A 
ATOM      9  C   UNL     1       5.273   4.240  17.708  0.00  0.00    +0.000 A 
ATOM     10  C   UNL     1       6.242   5.226  17.921  0.00  0.00    +0.000 A 
ATOM     11  C   UNL     1       7.073   5.646  16.875  0.00  0.00    +0.000 A 
BRANCH   6  13
ATOM     12  C   UNL     1       7.309   4.851  13.283  0.00  0.00    +0.000 C 
ATOM     13  O   UNL     1       7.716   5.420  14.524  0.00  0.00    +0.000 OA
ENDBRANCH   6  13
ENDBRANCH   2   9
ENDBRANCH   1   4
BRANCH   1  14
ATOM     14  C   UNL     1       1.603   4.715  20.573  0.00  0.00    +0.000 C 
BRANCH  14  15
ATOM     15  N   UNL     1       2.507   5.858  20.472  0.00  0.00    +0.000 N 
ATOM     16  H   UNL     1       3.140   5.950  21.261  0.00  0.00    +0.000 HD
BRANCH  15  17
ATOM     17  C   UNL     1       2.023   7.079  19.998  0.00  0.00    +0.000 A 
ATOM     18  C   UNL     1       1.319   7.914  20.882  0.00  0.00    +0.000 A 
ATOM     19  C   UNL     1       0.903   9.195  20.505  0.00  0.00    +0.000 A 
ATOM     20  C   UNL     1       1.211   9.669  19.226  0.00  0.00    +0.000 A 
ATOM     21  C   UNL     1       1.907   8.858  18.326  0.00  0.00    +0.000 A 
ATOM     22  C   UNL     1       2.308   7.572  18.718  0.00  0.00    +0.000 A 
BRANCH  20  23
ATOM     23  N   UNL     1       0.819  11.030  18.836  0.00  0.00    +0.000 N 
ATOM     24  O   UNL     1      -0.384  11.320  18.883  0.00  0.00    +0.000 OA
ATOM     25  O   UNL     1       1.715  11.808  18.482  0.00  0.00    +0.000 OA
ENDBRANCH  20  23
ENDBRANCH  15  17
ENDBRANCH  14  15
ENDBRANCH   1  14
TORSDOF 7
ENDMDL
MODEL 2
REMARK VINA RESULT:      -7.0      0.641      1.154
REMARK  Name = 
REMARK  8 active torsions:
REMARK  status: ('A' for Active; 'I' for Inactive)
REMARK    1  A    between atoms: C_1  and  O_2
REMARK    2  A    between atoms: O_2  and  C_3
REMARK    3  A    between atoms: C_6  and  C_7
REMARK    4  A    between atoms: N_9  and  C_10
REMARK    5  A    between atoms: C_10  and  C_11
REMARK    6  A    between atoms: C_11  and  N_12
REMARK    7  A    between atoms: N_12  and  C_13
REMARK    8  A    between atoms: C_16  and  N_17
REMARK                            x       y       z     vdW  Elec       q    Type
REMARK                         _______ _______ _______ _____ _____    ______ ____
ROOT
ATOM      1  C   UNL     1       2.230   3.682  19.818  0.00  0.00    +0.000 C 
ENDROOT
BRANCH   1   4
ATOM      2  C   UNL     1       4.449   3.759  18.723  0.00  0.00    +0.000 C 
ATOM      3  O   UNL     1       4.991   3.196  19.662  0.00  0.00    +0.000 OA
ATOM      4  N   UNL     1       3.100   4.055  18.714  0.00  0.00    +0.000 N 
ATOM      5  H   UNL     1       2.668   4.467  17.905  0.00  0.00    +0.000 HD
BRANCH   2   9
ATOM      6  C   UNL     1       6.859   5.012  15.369  0.00  0.00    +0.000 A 
ATOM      7  C   UNL     1       7.397   4.919  16.651  0.00  0.00    +0.000 A 
ATOM      8  C   UNL     1       6.605   4.496  17.723  0.00  0.00    +0.000 A 
ATOM      9  C   UNL     1       5.251   4.180  17.529  0.00  0.00    +0.000 A 
ATOM     10  C   UNL     1       4.716   4.283  16.240  0.00  0.00    +0.000 A 
ATOM     11  C   UNL     1       5.515   4.701  15.169  0.00  0.00    +0.000 A 
BRANCH   6  13
ATOM     12  C   UNL     1       7.528   4.864  13.110  0.00  0.00    +0.000 C 
ATOM     13  O   UNL     1       7.713   5.450  14.395  0.00  0.00    +0.000 OA
ENDBRANCH   6  13
ENDBRANCH   2   9
ENDBRANCH   1   4
BRANCH   1  14
ATOM     14  C   UNL     1       1.973   4.870  20.756  0.00  0.00    +0.000 C 
BRANCH  14  15
ATOM     15  N   UNL     1       2.735   6.045  20.340  0.00  0.00    +0.000 N 
ATOM     16  H   UNL     1       3.591   6.186  20.869  0.00  0.00    +0.000 HD
BRANCH  15  17
ATOM     17  C   UNL     1       2.062   7.232  20.042  0.00  0.00    +0.000 A 
ATOM     18  C   UNL     1       1.349   7.880  21.064  0.00  0.00    +0.000 A 
ATOM     19  C   UNL     1       0.745   9.125  20.861  0.00  0.00    +0.000 A 
ATOM     20  C   UNL     1       0.868   9.754  19.620  0.00  0.00    +0.000 A 
ATOM     21  C   UNL     1       1.569   9.131  18.584  0.00  0.00    +0.000 A 
ATOM     22  C   UNL     1       2.160   7.878  18.802  0.00  0.00    +0.000 A 
BRANCH  20  23
ATOM     23  N   UNL     1       0.278  11.083  19.411  0.00  0.00    +0.000 N 
ATOM     24  O   UNL     1       0.416  11.924  20.310  0.00  0.00    +0.000 OA
ATOM     25  O   UNL     1      -0.325  11.284  18.347  0.00  0.00    +0.000 OA
ENDBRANCH  20  23
ENDBRANCH  15  17
ENDBRANCH  14  15
ENDBRANCH   1  14
TORSDOF 7
ENDMDL
MODEL 3
REMARK VINA RESULT:      -6.9      0.406      1.474
REMARK  Name = 
REMARK  8 active torsions:
REMARK  status: ('A' for Active; 'I' for Inactive)
REMARK    1  A    between atoms: C_1  and  O_2
REMARK    2  A    between atoms: O_2  and  C_3
REMARK    3  A    between atoms: C_6  and  C_7
REMARK    4  A    between atoms: N_9  and  C_10
REMARK    5  A    between atoms: C_10  and  C_11
REMARK    6  A    between atoms: C_11  and  N_12
REMARK    7  A    between atoms: N_12  and  C_13
REMARK    8  A    between atoms: C_16  and  N_17
REMARK                            x       y       z     vdW  Elec       q    Type
REMARK                         _______ _______ _______ _____ _____    ______ ____
ROOT
ATOM      1  C   UNL     1       1.891   3.749  19.201  0.00  0.00    +0.000 C 
ENDROOT
BRANCH   1   4
ATOM      2  C   UNL     1       4.220   3.793  18.362  0.00  0.00    +0.000 C 
ATOM      3  O   UNL     1       4.644   3.218  19.353  0.00  0.00    +0.000 OA
ATOM      4  N   UNL     1       2.886   4.112  18.203  0.00  0.00    +0.000 N 
ATOM      5  H   UNL     1       2.555   4.533  17.353  0.00  0.00    +0.000 HD
BRANCH   2   9
ATOM      6  C   UNL     1       6.976   5.069  15.296  0.00  0.00    +0.000 A 
ATOM      7  C   UNL     1       7.126   5.480  16.619  0.00  0.00    +0.000 A 
ATOM      8  C   UNL     1       6.232   5.043  17.602  0.00  0.00    +0.000 A 
ATOM      9  C   UNL     1       5.158   4.204  17.269  0.00  0.00    +0.000 A 
ATOM     10  C   UNL     1       5.010   3.802  15.937  0.00  0.00    +0.000 A 
ATOM     11  C   UNL     1       5.910   4.236  14.957  0.00  0.00    +0.000 A 
BRANCH   6  13
ATOM     12  C   UNL     1       7.734   5.136  13.061  0.00  0.00    +0.000 C 
ATOM     13  O   UNL     1       7.893   5.564  14.410  0.00  0.00    +0.000 OA
ENDBRANCH   6  13
ENDBRANCH   2   9
ENDBRANCH   1   4
BRANCH   1  14
ATOM     14  C   UNL     1       1.764   4.831  20.284  0.00  0.00    +0.000 C 
BRANCH  14  15
ATOM     15  N   UNL     1       2.715   5.917  20.060  0.00  0.00    +0.000 N 
ATOM     16  H   UNL     1       3.509   5.903  20.693  0.00  0.00    +0.000 HD
BRANCH  15  17
ATOM     17  C   UNL     1       2.240   7.202  19.788  0.00  0.00    +0.000 A 
ATOM     18  C   UNL     1       2.387   7.716  18.489  0.00  0.00    +0.000 A 
ATOM     19  C   UNL     1       1.838   8.949  18.122  0.00  0.00    +0.000 A 
ATOM     20  C   UNL     1       1.106   9.682  19.061  0.00  0.00    +0.000 A 
ATOM     21  C   UNL     1       0.946   9.195  20.361  0.00  0.00    +0.000 A 
ATOM     22  C   UNL     1       1.513   7.962  20.714  0.00  0.00    +0.000 A 
BRANCH  20  23
ATOM     23  N   UNL     1       0.486  10.955  18.672  0.00  0.00    +0.000 N 
ATOM     24  O   UNL     1      -0.741  10.972  18.506  0.00  0.00    +0.000 OA
ATOM     25  O   UNL     1       1.227  11.938  18.533  0.00  0.00    +0.000 OA
ENDBRANCH  20  23
ENDBRANCH  15  17
ENDBRANCH  14  15
ENDBRANCH   1  14
TORSDOF 7
ENDMDL
MODEL 4
REMARK VINA RESULT:      -6.9      2.651      6.640
REMARK  Name = 
REMARK  8 active torsions:
REMARK  status: ('A' for Active; 'I' for Inactive)
REMARK    1  A    between atoms: C_1  and  O_2
REMARK    2  A    between atoms: O_2  and  C_3
REMARK    3  A    between atoms: C_6  and  C_7
REMARK    4  A    between atoms: N_9  and  C_10
REMARK    5  A    between atoms: C_10  and  C_11
REMARK    6  A    between atoms: C_11  and  N_12
REMARK    7  A    between atoms: N_12  and  C_13
REMARK    8  A    between atoms: C_16  and  N_17
REMARK                            x       y       z     vdW  Elec       q    Type
REMARK                         _______ _______ _______ _____ _____    ______ ____
ROOT
ATOM      1  C   UNL     1       3.715   3.721  17.800  0.00  0.00    +0.000 C 
ENDROOT
BRANCH   1   4
ATOM      2  C   UNL     1       3.334   5.879  18.953  0.00  0.00    +0.000 C 
ATOM      3  O   UNL     1       4.185   5.639  19.796  0.00  0.00    +0.000 OA
ATOM      4  N   UNL     1       3.021   4.992  17.942  0.00  0.00    +0.000 N 
ATOM      5  H   UNL     1       2.358   5.238  17.228  0.00  0.00    +0.000 HD
BRANCH   2   9
ATOM      6  C   UNL     1       1.178   9.617  18.972  0.00  0.00    +0.000 A 
ATOM      7  C   UNL     1       1.864   9.184  17.839  0.00  0.00    +0.000 A 
ATOM      8  C   UNL     1       2.544   7.962  17.846  0.00  0.00    +0.000 A 
ATOM      9  C   UNL     1       2.565   7.164  19.000  0.00  0.00    +0.000 A 
ATOM     10  C   UNL     1       1.881   7.610  20.136  0.00  0.00    +0.000 A 
ATOM     11  C   UNL     1       1.196   8.830  20.123  0.00  0.00    +0.000 A 
BRANCH   6  13
ATOM     12  C   UNL     1      -0.287  11.185  19.955  0.00  0.00    +0.000 C 
ATOM     13  O   UNL     1       0.559  10.832  18.866  0.00  0.00    +0.000 OA
ENDBRANCH   6  13
ENDBRANCH   2   9
ENDBRANCH   1   4
BRANCH   1  14
ATOM     14  C   UNL     1       4.664   3.733  16.594  0.00  0.00    +0.000 C 
BRANCH  14  15
ATOM     15  N   UNL     1       6.061   3.737  17.021  0.00  0.00    +0.000 N 
ATOM     16  H   UNL     1       6.289   2.999  17.681  0.00  0.00    +0.000 HD
BRANCH  15  17
ATOM     17  C   UNL     1       6.692   4.951  17.300  0.00  0.00    +0.000 A 
ATOM     18  C   UNL     1       6.402   6.064  16.495  0.00  0.00    +0.000 A 
ATOM     19  C   UNL     1       6.914   7.333  16.786  0.00  0.00    +0.000 A 
ATOM     20  C   UNL     1       7.716   7.507  17.917  0.00  0.00    +0.000 A 
ATOM     21  C   UNL     1       8.023   6.416  18.734  0.00  0.00    +0.000 A 
ATOM     22  C   UNL     1       7.510   5.149  18.421  0.00  0.00    +0.000 A 
BRANCH  20  23
ATOM     23  N   UNL     1       8.220   8.844  18.258  0.00  0.00    +0.000 N 
ATOM     24  O   UNL     1       7.718   9.816  17.677  0.00  0.00    +0.000 OA
ATOM     25  O   UNL     1       9.119   8.922  19.107  0.00  0.00    +0.000 OA
ENDBRANCH  20  23
ENDBRANCH  15  17
ENDBRANCH  14  15
ENDBRANCH   1  14
TORSDOF 7
ENDMDL
MODEL 5
REMARK VINA RESULT:      -6.9      1.131      1.862
REMARK  Name = 
REMARK  8 active torsions:
REMARK  status: ('A' for Active; 'I' for Inactive)
REMARK    1  A    between atoms: C_1  and  O_2
REMARK    2  A    between atoms: O_2  and  C_3
REMARK    3  A    between atoms: C_6  and  C_7
REMARK    4  A    between atoms: N_9  and  C_10
REMARK    5  A    between atoms: C_10  and  C_11
REMARK    6  A    between atoms: C_11  and  N_12
REMARK    7  A    between atoms: N_12  and  C_13
REMARK    8  A    between atoms: C_16  and  N_17
REMARK                            x       y       z     vdW  Elec       q    Type
REMARK                         _______ _______ _______ _____ _____    ______ ____
ROOT
ATOM      1  C   UNL     1       2.687   3.133  19.780  0.00  0.00    +0.000 C 
ENDROOT
BRANCH   1   4
ATOM      2  C   UNL     1       3.469   3.702  17.501  0.00  0.00    +0.000 C 
ATOM      3  O   UNL     1       2.366   3.504  17.015  0.00  0.00    +0.000 OA
ATOM      4  N   UNL     1       3.729   3.531  18.846  0.00  0.00    +0.000 N 
ATOM      5  H   UNL     1       4.630   3.756  19.230  0.00  0.00    +0.000 HD
BRANCH   2   9
ATOM      6  C   UNL     1       6.735   5.049  15.022  0.00  0.00    +0.000 A 
ATOM      7  C   UNL     1       6.088   5.917  15.900  0.00  0.00    +0.000 A 
ATOM      8  C   UNL     1       5.042   5.458  16.707  0.00  0.00    +0.000 A 
ATOM      9  C   UNL     1       4.613   4.125  16.630  0.00  0.00    +0.000 A 
ATOM     10  C   UNL     1       5.262   3.261  15.740  0.00  0.00    +0.000 A 
ATOM     11  C   UNL     1       6.313   3.723  14.939  0.00  0.00    +0.000 A 
BRANCH   6  13
ATOM     12  C   UNL     1       7.811   5.138  12.923  0.00  0.00    +0.000 C 
ATOM     13  O   UNL     1       7.734   5.600  14.268  0.00  0.00    +0.000 OA
ENDBRANCH   6  13
ENDBRANCH   2   9
ENDBRANCH   1   4
BRANCH   1  14
ATOM     14  C   UNL     1       1.875   4.343  20.264  0.00  0.00    +0.000 C 
BRANCH  14  15
ATOM     15  N   UNL     1       2.739   5.498  20.497  0.00  0.00    +0.000 N 
ATOM     16  H   UNL     1       3.199   5.489  21.403  0.00  0.00    +0.000 HD
BRANCH  15  17
ATOM     17  C   UNL     1       2.312   6.768  20.102  0.00  0.00    +0.000 A 
ATOM     18  C   UNL     1       2.572   7.189  18.788  0.00  0.00    +0.000 A 
ATOM     19  C   UNL     1       2.078   8.401  18.294  0.00  0.00    +0.000 A 
ATOM     20  C   UNL     1       1.288   9.206  19.118  0.00  0.00    +0.000 A 
ATOM     21  C   UNL     1       1.015   8.813  20.431  0.00  0.00    +0.000 A 
ATOM     22  C   UNL     1       1.527   7.600  20.912  0.00  0.00    +0.000 A 
BRANCH  20  23
ATOM     23  N   UNL     1       0.725  10.459  18.596  0.00  0.00    +0.000 N 
ATOM     24  O   UNL     1       1.450  11.463  18.600  0.00  0.00    +0.000 OA
ATOM     25  O   UNL     1      -0.442  10.437  18.181  0.00  0.00    +0.000 OA
ENDBRANCH  20  23
ENDBRANCH  15  17
ENDBRANCH  14  15
ENDBRANCH   1  14
TORSDOF 7
ENDMDL
MODEL 6
REMARK VINA RESULT:      -6.9      2.210      6.282
REMARK  Name = 
REMARK  8 active torsions:
REMARK  status: ('A' for Active; 'I' for Inactive)
REMARK    1  A    between atoms: C_1  and  O_2
REMARK    2  A    between atoms: O_2  and  C_3
REMARK    3  A    between atoms: C_6  and  C_7
REMARK    4  A    between atoms: N_9  and  C_10
REMARK    5  A    between atoms: C_10  and  C_11
REMARK    6  A    between atoms: C_11  and  N_12
REMARK    7  A    between atoms: N_12  and  C_13
REMARK    8  A    between atoms: C_16  and  N_17
REMARK                            x       y       z     vdW  Elec       q    Type
REMARK                         _______ _______ _______ _____ _____    ______ ____
ROOT
ATOM      1  C   UNL     1       1.127   2.985  20.223  0.00  0.00    +0.000 C 
ENDROOT
BRANCH   1   4
ATOM      2  C   UNL     1       1.846   5.343  20.451  0.00  0.00    +0.000 C 
ATOM      3  O   UNL     1       2.565   5.087  21.405  0.00  0.00    +0.000 OA
ATOM      4  N   UNL     1       1.088   4.380  19.814  0.00  0.00    +0.000 N 
ATOM      5  H   UNL     1       0.549   4.606  18.996  0.00  0.00    +0.000 HD
BRANCH   2   9
ATOM      6  C   UNL     1       1.632   9.360  18.889  0.00  0.00    +0.000 A 
ATOM      7  C   UNL     1       2.301   8.352  18.199  0.00  0.00    +0.000 A 
ATOM      8  C   UNL     1       2.347   7.051  18.714  0.00  0.00    +0.000 A 
ATOM      9  C   UNL     1       1.739   6.748  19.941  0.00  0.00    +0.000 A 
ATOM     10  C   UNL     1       1.075   7.768  20.631  0.00  0.00    +0.000 A 
ATOM     11  C   UNL     1       1.026   9.066  20.110  0.00  0.00    +0.000 A 
BRANCH   6  13
ATOM     12  C   UNL     1       1.419  11.692  19.189  0.00  0.00    +0.000 C 
ATOM     13  O   UNL     1       1.660  10.598  18.309  0.00  0.00    +0.000 OA
ENDBRANCH   6  13
ENDBRANCH   2   9
ENDBRANCH   1   4
BRANCH   1  14
ATOM     14  C   UNL     1       1.767   2.101  19.143  0.00  0.00    +0.000 C 
BRANCH  14  15
ATOM     15  N   UNL     1       3.214   2.008  19.325  0.00  0.00    +0.000 N 
ATOM     16  H   UNL     1       3.494   1.808  20.281  0.00  0.00    +0.000 HD
BRANCH  15  17
ATOM     17  C   UNL     1       4.049   2.921  18.678  0.00  0.00    +0.000 A 
ATOM     18  C   UNL     1       3.856   3.160  17.308  0.00  0.00    +0.000 A 
ATOM     19  C   UNL     1       4.584   4.140  16.624  0.00  0.00    +0.000 A 
ATOM     20  C   UNL     1       5.511   4.918  17.323  0.00  0.00    +0.000 A 
ATOM     21  C   UNL     1       5.725   4.701  18.686  0.00  0.00    +0.000 A 
ATOM     22  C   UNL     1       4.994   3.707  19.353  0.00  0.00    +0.000 A 
BRANCH  20  23
ATOM     23  N   UNL     1       6.247   5.982  16.625  0.00  0.00    +0.000 N 
ATOM     24  O   UNL     1       5.853   7.147  16.771  0.00  0.00    +0.000 OA
ATOM     25  O   UNL     1       7.219   5.650  15.932  0.00  0.00    +0.000 OA
ENDBRANCH  20  23
ENDBRANCH  15  17
ENDBRANCH  14  15
ENDBRANCH   1  14
TORSDOF 7
ENDMDL
MODEL 7
REMARK VINA RESULT:      -6.9      0.793      1.229
REMARK  Name = 
REMARK  8 active torsions:
REMARK  status: ('A' for Active; 'I' for Inactive)
REMARK    1  A    between atoms: C_1  and  O_2
REMARK    2  A    between atoms: O_2  and  C_3
REMARK    3  A    between atoms: C_6  and  C_7
REMARK    4  A    between atoms: N_9  and  C_10
REMARK    5  A    between atoms: C_10  and  C_11
REMARK    6  A    between atoms: C_11  and  N_12
REMARK    7  A    between atoms: N_12  and  C_13
REMARK    8  A    between atoms: C_16  and  N_17
REMARK                            x       y       z     vdW  Elec       q    Type
REMARK                         _______ _______ _______ _____ _____    ______ ____
ROOT
ATOM      1  C   UNL     1       2.834   3.612  20.421  0.00  0.00    +0.000 C 
ENDROOT
BRANCH   1   4
ATOM      2  C   UNL     1       4.624   4.453  18.931  0.00  0.00    +0.000 C 
ATOM      3  O   UNL     1       5.096   5.159  19.810  0.00  0.00    +0.000 OA
ATOM      4  N   UNL     1       3.505   3.669  19.131  0.00  0.00    +0.000 N 
ATOM      5  H   UNL     1       3.172   3.053  18.410  0.00  0.00    +0.000 HD
BRANCH   2   9
ATOM      6  C   UNL     1       6.514   4.453  15.052  0.00  0.00    +0.000 A 
ATOM      7  C   UNL     1       7.215   4.825  16.197  0.00  0.00    +0.000 A 
ATOM      8  C   UNL     1       6.590   4.804  17.448  0.00  0.00    +0.000 A 
ATOM      9  C   UNL     1       5.244   4.429  17.567  0.00  0.00    +0.000 A 
ATOM     10  C   UNL     1       4.544   4.063  16.412  0.00  0.00    +0.000 A 
ATOM     11  C   UNL     1       5.175   4.080  15.162  0.00  0.00    +0.000 A 
BRANCH   6  13
ATOM     12  C   UNL     1       6.599   3.883  12.763  0.00  0.00    +0.000 C 
ATOM     13  O   UNL     1       7.211   4.523  13.877  0.00  0.00    +0.000 OA
ENDBRANCH   6  13
ENDBRANCH   2   9
ENDBRANCH   1   4
BRANCH   1  14
ATOM     14  C   UNL     1       1.705   4.648  20.511  0.00  0.00    +0.000 C 
BRANCH  14  15
ATOM     15  N   UNL     1       2.201   5.929  21.008  0.00  0.00    +0.000 N 
ATOM     16  H   UNL     1       2.186   6.008  22.021  0.00  0.00    +0.000 HD
BRANCH  15  17
ATOM     17  C   UNL     1       1.844   7.108  20.351  0.00  0.00    +0.000 A 
ATOM     18  C   UNL     1       1.149   8.096  21.068  0.00  0.00    +0.000 A 
ATOM     19  C   UNL     1       0.857   9.343  20.503  0.00  0.00    +0.000 A 
ATOM     20  C   UNL     1       1.284   9.624  19.203  0.00  0.00    +0.000 A 
ATOM     21  C   UNL     1       1.975   8.658  18.466  0.00  0.00    +0.000 A 
ATOM     22  C   UNL     1       2.249   7.411  19.044  0.00  0.00    +0.000 A 
BRANCH  20  23
ATOM     23  N   UNL     1       1.024  10.946  18.617  0.00  0.00    +0.000 N 
ATOM     24  O   UNL     1      -0.156  11.308  18.511  0.00  0.00    +0.000 OA
ATOM     25  O   UNL     1       2.001  11.622  18.263  0.00  0.00    +0.000 OA
ENDBRANCH  20  23
ENDBRANCH  15  17
ENDBRANCH  14  15
ENDBRANCH   1  14
TORSDOF 7
ENDMDL
MODEL 8
REMARK VINA RESULT:      -6.8      2.165      6.329
REMARK  Name = 
REMARK  8 active torsions:
REMARK  status: ('A' for Active; 'I' for Inactive)
REMARK    1  A    between atoms: C_1  and  O_2
REMARK    2  A    between atoms: O_2  and  C_3
REMARK    3  A    between atoms: C_6  and  C_7
REMARK    4  A    between atoms: N_9  and  C_10
REMARK    5  A    between atoms: C_10  and  C_11
REMARK    6  A    between atoms: C_11  and  N_12
REMARK    7  A    between atoms: N_12  and  C_13
REMARK    8  A    between atoms: C_16  and  N_17
REMARK                            x       y       z     vdW  Elec       q    Type
REMARK                         _______ _______ _______ _____ _____    ______ ____
ROOT
ATOM      1  C   UNL     1       1.602   2.574  20.004  0.00  0.00    +0.000 C 
ENDROOT
BRANCH   1   4
ATOM      2  C   UNL     1       1.975   4.990  20.393  0.00  0.00    +0.000 C 
ATOM      3  O   UNL     1       2.363   4.800  21.536  0.00  0.00    +0.000 OA
ATOM      4  N   UNL     1       1.565   3.961  19.568  0.00  0.00    +0.000 N 
ATOM      5  H   UNL     1       1.305   4.138  18.613  0.00  0.00    +0.000 HD
BRANCH   2   9
ATOM      6  C   UNL     1       1.700   9.032  18.906  0.00  0.00    +0.000 A 
ATOM      7  C   UNL     1       1.295   8.709  20.199  0.00  0.00    +0.000 A 
ATOM      8  C   UNL     1       1.406   7.396  20.669  0.00  0.00    +0.000 A 
ATOM      9  C   UNL     1       1.906   6.381  19.840  0.00  0.00    +0.000 A 
ATOM     10  C   UNL     1       2.303   6.712  18.539  0.00  0.00    +0.000 A 
ATOM     11  C   UNL     1       2.196   8.028  18.075  0.00  0.00    +0.000 A 
BRANCH   6  13
ATOM     12  C   UNL     1       1.012  11.197  19.548  0.00  0.00    +0.000 C 
ATOM     13  O   UNL     1       1.535  10.339  18.539  0.00  0.00    +0.000 OA
ENDBRANCH   6  13
ENDBRANCH   2   9
ENDBRANCH   1   4
BRANCH   1  14
ATOM     14  C   UNL     1       2.822   1.839  19.432  0.00  0.00    +0.000 C 
BRANCH  14  15
ATOM     15  N   UNL     1       4.054   2.581  19.689  0.00  0.00    +0.000 N 
ATOM     16  H   UNL     1       4.077   3.032  20.599  0.00  0.00    +0.000 HD
BRANCH  15  17
ATOM     17  C   UNL     1       4.621   3.350  18.671  0.00  0.00    +0.000 A 
ATOM     18  C   UNL     1       4.196   3.137  17.349  0.00  0.00    +0.000 A 
ATOM     19  C   UNL     1       4.641   3.945  16.297  0.00  0.00    +0.000 A 
ATOM     20  C   UNL     1       5.512   5.005  16.566  0.00  0.00    +0.000 A 
ATOM     21  C   UNL     1       5.952   5.237  17.871  0.00  0.00    +0.000 A 
ATOM     22  C   UNL     1       5.504   4.411  18.912  0.00  0.00    +0.000 A 
BRANCH  20  23
ATOM     23  N   UNL     1       5.948   5.888  15.476  0.00  0.00    +0.000 N 
ATOM     24  O   UNL     1       6.937   5.543  14.814  0.00  0.00    +0.000 OA
ATOM     25  O   UNL     1       5.302   6.927  15.283  0.00  0.00    +0.000 OA
ENDBRANCH  20  23
ENDBRANCH  15  17
ENDBRANCH  14  15
ENDBRANCH   1  14
TORSDOF 7
ENDMDL
MODEL 9
REMARK VINA RESULT:      -6.8      1.137      1.417
REMARK  Name = 
REMARK  8 active torsions:
REMARK  status: ('A' for Active; 'I' for Inactive)
REMARK    1  A    between atoms: C_1  and  O_2
REMARK    2  A    between atoms: O_2  and  C_3
REMARK    3  A    between atoms: C_6  and  C_7
REMARK    4  A    between atoms: N_9  and  C_10
REMARK    5  A    between atoms: C_10  and  C_11
REMARK    6  A    between atoms: C_11  and  N_12
REMARK    7  A    between atoms: N_12  and  C_13
REMARK    8  A    between atoms: C_16  and  N_17
REMARK                            x       y       z     vdW  Elec       q    Type
REMARK                         _______ _______ _______ _____ _____    ______ ____
ROOT
ATOM      1  C   UNL     1       1.975   3.416  19.937  0.00  0.00    +0.000 C 
ENDROOT
BRANCH   1   4
ATOM      2  C   UNL     1       2.956   3.914  17.720  0.00  0.00    +0.000 C 
ATOM      3  O   UNL     1       1.888   3.750  17.151  0.00  0.00    +0.000 OA
ATOM      4  N   UNL     1       3.102   3.758  19.084  0.00  0.00    +0.000 N 
ATOM      5  H   UNL     1       3.979   3.955  19.534  0.00  0.00    +0.000 HD
BRANCH   2   9
ATOM      6  C   UNL     1       6.449   5.090  15.474  0.00  0.00    +0.000 A 
ATOM      7  C   UNL     1       5.688   6.027  16.170  0.00  0.00    +0.000 A 
ATOM      8  C   UNL     1       4.568   5.626  16.905  0.00  0.00    +0.000 A 
ATOM      9  C   UNL     1       4.181   4.277  16.936  0.00  0.00    +0.000 A 
ATOM     10  C   UNL     1       4.946   3.343  16.228  0.00  0.00    +0.000 A 
ATOM     11  C   UNL     1       6.069   3.749  15.499  0.00  0.00    +0.000 A 
BRANCH   6  13
ATOM     12  C   UNL     1       7.651   5.106  13.442  0.00  0.00    +0.000 C 
ATOM     13  O   UNL     1       7.514   5.588  14.775  0.00  0.00    +0.000 OA
ENDBRANCH   6  13
ENDBRANCH   2   9
ENDBRANCH   1   4
BRANCH   1  14
ATOM     14  C   UNL     1       1.453   4.646  20.694  0.00  0.00    +0.000 C 
BRANCH  14  15
ATOM     15  N   UNL     1       2.395   5.760  20.607  0.00  0.00    +0.000 N 
ATOM     16  H   UNL     1       3.035   5.817  21.394  0.00  0.00    +0.000 HD
BRANCH  15  17
ATOM     17  C   UNL     1       1.949   7.005  20.158  0.00  0.00    +0.000 A 
ATOM     18  C   UNL     1       1.240   7.829  21.047  0.00  0.00    +0.000 A 
ATOM     19  C   UNL     1       0.860   9.129  20.699  0.00  0.00    +0.000 A 
ATOM     20  C   UNL     1       1.213   9.634  19.444  0.00  0.00    +0.000 A 
ATOM     21  C   UNL     1       1.917   8.836  18.539  0.00  0.00    +0.000 A 
ATOM     22  C   UNL     1       2.279   7.530  18.901  0.00  0.00    +0.000 A 
BRANCH  20  23
ATOM     23  N   UNL     1       0.861  11.014  19.085  0.00  0.00    +0.000 N 
ATOM     24  O   UNL     1      -0.107  11.531  19.660  0.00  0.00    +0.000 OA
ATOM     25  O   UNL     1       1.552  11.581  18.228  0.00  0.00    +0.000 OA
ENDBRANCH  20  23
ENDBRANCH  15  17
ENDBRANCH  14  15
ENDBRANCH   1  14
TORSDOF 7
ENDMDL
