MODEL 1
REMARK VINA RESULT:      -8.6      0.000      0.000
REMARK  Name = 
REMARK  9 active torsions:
REMARK  status: ('A' for Active; 'I' for Inactive)
REMARK    1  A    between atoms: C_1  and  C_2
REMARK    2  A    between atoms: C_7  and  C_8
REMARK    3  A    between atoms: N_10  and  C_11
REMARK    4  A    between atoms: N_14  and  C_15
REMARK    5  A    between atoms: C_15  and  C_16
REMARK    6  A    between atoms: C_16  and  O_17
REMARK    7  A    between atoms: C_16  and  C_18
REMARK    8  A    between atoms: C_16  and  C_24
REMARK    9  A    between atoms: C_18  and  N_19
REMARK                            x       y       z     vdW  Elec       q    Type
REMARK                         _______ _______ _______ _____ _____    ______ ____
ROOT
ATOM      1  C   UNL     1      -0.021  10.257  19.717  0.00  0.00    +0.000 C 
ATOM      2  C   UNL     1       0.530   9.167  20.637  0.00  0.00    +0.000 C 
ATOM      3  C   UNL     1       1.805   8.514  20.098  0.00  0.00    +0.000 C 
ATOM      4  N   UNL     1       1.673   8.051  18.696  0.00  0.00    +0.000 NA
ATOM      5  C   UNL     1       1.244   9.157  17.838  0.00  0.00    +0.000 C 
ATOM      6  C   UNL     1      -0.078   9.766  18.280  0.00  0.00    +0.000 C 
ENDROOT
BRANCH   1   9
ATOM      7  C   UNL     1       1.641  13.427  19.444  0.00  0.00    +0.000 A 
ATOM      8  C   UNL     1       0.909  12.427  18.827  0.00  0.00    +0.000 A 
ATOM      9  N   UNL     1       0.679  11.527  19.828  0.00  0.00    +0.000 N 
ATOM     10  N   UNL     1       1.242  11.930  20.978  0.00  0.00    +0.000 NA
ATOM     11  N   UNL     1       1.830  13.091  20.754  0.00  0.00    +0.000 NA
BRANCH   7  18
ATOM     12  C   UNL     1       0.040  15.970  19.563  0.00  0.00    +0.000 C 
ATOM     13  C   UNL     1       1.364  15.856  18.857  0.00  0.00    +0.000 A 
ATOM     14  C   UNL     1       1.873  16.987  18.198  0.00  0.00    +0.000 A 
ATOM     15  C   UNL     1       3.100  16.949  17.535  0.00  0.00    +0.000 A 
ATOM     16  C   UNL     1       3.831  15.770  17.497  0.00  0.00    +0.000 A 
ATOM     17  C   UNL     1       3.341  14.637  18.131  0.00  0.00    +0.000 A 
ATOM     18  C   UNL     1       2.108  14.648  18.816  0.00  0.00    +0.000 A 
ENDBRANCH   7  18
ENDBRANCH   1   9
BRANCH   4  19
ATOM     19  C   UNL     1       2.986   7.485  18.282  0.00  0.00    +0.000 C 
BRANCH  19  20
ATOM     20  C   UNL     1       3.316   5.945  18.354  0.00  0.00    +0.000 C 
BRANCH  20  21
ATOM     21  C   UNL     1       4.452   5.567  17.390  0.00  0.00    +0.000 A 
ATOM     22  C   UNL     1       5.496   6.482  17.127  0.00  0.00    +0.000 A 
ATOM     23  C   UNL     1       6.502   6.200  16.199  0.00  0.00    +0.000 A 
ATOM     24  C   UNL     1       6.503   4.978  15.546  0.00  0.00    +0.000 A 
ATOM     25  F   UNL     1       7.455   4.711  14.642  0.00  0.00    +0.000 F 
ATOM     26  C   UNL     1       5.526   4.034  15.811  0.00  0.00    +0.000 A 
ATOM     27  C   UNL     1       4.513   4.335  16.723  0.00  0.00    +0.000 A 
ATOM     28  F   UNL     1       3.572   3.402  16.914  0.00  0.00    +0.000 F 
ENDBRANCH  20  21
BRANCH  20  29
ATOM     29  O   UNL     1       2.136   5.270  17.816  0.00  0.00    +0.000 OA
ATOM     30  H   UNL     1       1.382   5.891  17.941  0.00  0.00    +0.000 HD
ENDBRANCH  20  29
BRANCH  20  31
ATOM     31  C   UNL     1       3.494   5.362  19.789  0.00  0.00    +0.000 C 
BRANCH  31  32
ATOM     32  N   UNL     1       2.610   4.246  20.095  0.00  0.00    +0.000 N 
ATOM     33  C   UNL     1       2.917   2.922  20.144  0.00  0.00    +0.000 A 
ATOM     34  N   UNL     1       1.872   2.246  20.558  0.00  0.00    +0.000 NA
ATOM     35  C   UNL     1       0.931   3.213  20.750  0.00  0.00    +0.000 A 
ATOM     36  N   UNL     1       1.317   4.452  20.429  0.00  0.00    +0.000 NA
ENDBRANCH  31  32
ENDBRANCH  20  31
ENDBRANCH  19  20
ENDBRANCH   4  19
TORSDOF 8
ENDMDL
MODEL 2
REMARK VINA RESULT:      -8.5      0.854      1.174
REMARK  Name = 
REMARK  9 active torsions:
REMARK  status: ('A' for Active; 'I' for Inactive)
REMARK    1  A    between atoms: C_1  and  C_2
REMARK    2  A    between atoms: C_7  and  C_8
REMARK    3  A    between atoms: N_10  and  C_11
REMARK    4  A    between atoms: N_14  and  C_15
REMARK    5  A    between atoms: C_15  and  C_16
REMARK    6  A    between atoms: C_16  and  O_17
REMARK    7  A    between atoms: C_16  and  C_18
REMARK    8  A    between atoms: C_16  and  C_24
REMARK    9  A    between atoms: C_18  and  N_19
REMARK                            x       y       z     vdW  Elec       q    Type
REMARK                         _______ _______ _______ _____ _____    ______ ____
ROOT
ATOM      1  C   UNL     1       0.099  10.082  19.680  0.00  0.00    +0.000 C 
ATOM      2  C   UNL     1       0.671   8.960  20.549  0.00  0.00    +0.000 C 
ATOM      3  C   UNL     1       1.953   8.352  19.975  0.00  0.00    +0.000 C 
ATOM      4  N   UNL     1       1.821   7.950  18.556  0.00  0.00    +0.000 NA
ATOM      5  C   UNL     1       1.371   9.085  17.749  0.00  0.00    +0.000 C 
ATOM      6  C   UNL     1       0.043   9.655  18.223  0.00  0.00    +0.000 C 
ENDROOT
BRANCH   1   9
ATOM      7  C   UNL     1       1.757  13.263  19.536  0.00  0.00    +0.000 A 
ATOM      8  C   UNL     1       1.079  12.260  18.864  0.00  0.00    +0.000 A 
ATOM      9  N   UNL     1       0.781  11.356  19.845  0.00  0.00    +0.000 N 
ATOM     10  N   UNL     1       1.254  11.761  21.034  0.00  0.00    +0.000 NA
ATOM     11  N   UNL     1       1.850  12.927  20.856  0.00  0.00    +0.000 NA
BRANCH   7  18
ATOM     12  C   UNL     1       0.212  15.839  19.692  0.00  0.00    +0.000 C 
ATOM     13  C   UNL     1       1.544  15.711  19.005  0.00  0.00    +0.000 A 
ATOM     14  C   UNL     1       2.089  16.846  18.383  0.00  0.00    +0.000 A 
ATOM     15  C   UNL     1       3.326  16.797  17.739  0.00  0.00    +0.000 A 
ATOM     16  C   UNL     1       4.031  15.603  17.683  0.00  0.00    +0.000 A 
ATOM     17  C   UNL     1       3.505  14.466  18.281  0.00  0.00    +0.000 A 
ATOM     18  C   UNL     1       2.261  14.488  18.946  0.00  0.00    +0.000 A 
ENDBRANCH   7  18
ENDBRANCH   1   9
BRANCH   4  19
ATOM     19  C   UNL     1       3.140   7.422  18.111  0.00  0.00    +0.000 C 
BRANCH  19  20
ATOM     20  C   UNL     1       3.535   5.899  18.219  0.00  0.00    +0.000 C 
BRANCH  20  21
ATOM     21  C   UNL     1       4.618   5.524  17.195  0.00  0.00    +0.000 A 
ATOM     22  C   UNL     1       4.478   4.360  16.406  0.00  0.00    +0.000 A 
ATOM     23  C   UNL     1       5.479   3.950  15.521  0.00  0.00    +0.000 A 
ATOM     24  C   UNL     1       6.621   4.720  15.380  0.00  0.00    +0.000 A 
ATOM     25  F   UNL     1       7.591   4.321  14.548  0.00  0.00    +0.000 F 
ATOM     26  C   UNL     1       6.776   5.894  16.099  0.00  0.00    +0.000 A 
ATOM     27  C   UNL     1       5.781   6.283  16.996  0.00  0.00    +0.000 A 
ATOM     28  F   UNL     1       5.997   7.405  17.693  0.00  0.00    +0.000 F 
ENDBRANCH  20  21
BRANCH  20  29
ATOM     29  O   UNL     1       2.349   5.160  17.789  0.00  0.00    +0.000 OA
ATOM     30  H   UNL     1       1.703   5.222  18.530  0.00  0.00    +0.000 HD
ENDBRANCH  20  29
BRANCH  20  31
ATOM     31  C   UNL     1       3.831   5.383  19.660  0.00  0.00    +0.000 C 
BRANCH  31  32
ATOM     32  N   UNL     1       2.922   4.344  20.122  0.00  0.00    +0.000 N 
ATOM     33  C   UNL     1       3.170   3.015  20.265  0.00  0.00    +0.000 A 
ATOM     34  N   UNL     1       2.127   2.430  20.806  0.00  0.00    +0.000 NA
ATOM     35  C   UNL     1       1.248   3.458  20.976  0.00  0.00    +0.000 A 
ATOM     36  N   UNL     1       1.666   4.644  20.523  0.00  0.00    +0.000 NA
ENDBRANCH  31  32
ENDBRANCH  20  31
ENDBRANCH  19  20
ENDBRANCH   4  19
TORSDOF 8
ENDMDL
MODEL 3
REMARK VINA RESULT:      -8.4      2.112      3.930
REMARK  Name = 
REMARK  9 active torsions:
REMARK  status: ('A' for Active; 'I' for Inactive)
REMARK    1  A    between atoms: C_1  and  C_2
REMARK    2  A    between atoms: C_7  and  C_8
REMARK    3  A    between atoms: N_10  and  C_11
REMARK    4  A    between atoms: N_14  and  C_15
REMARK    5  A    between atoms: C_15  and  C_16
REMARK    6  A    between atoms: C_16  and  O_17
REMARK    7  A    between atoms: C_16  and  C_18
REMARK    8  A    between atoms: C_16  and  C_24
REMARK    9  A    between atoms: C_18  and  N_19
REMARK                            x       y       z     vdW  Elec       q    Type
REMARK                         _______ _______ _______ _____ _____    ______ ____
ROOT
ATOM      1  C   UNL     1       0.167   9.886  19.591  0.00  0.00    +0.000 C 
ATOM      2  C   UNL     1       0.659   8.808  20.558  0.00  0.00    +0.000 C 
ATOM      3  C   UNL     1       2.006   8.206  20.150  0.00  0.00    +0.000 C 
ATOM      4  N   UNL     1       2.036   7.750  18.740  0.00  0.00    +0.000 NA
ATOM      5  C   UNL     1       1.658   8.847  17.848  0.00  0.00    +0.000 C 
ATOM      6  C   UNL     1       0.276   9.406  18.154  0.00  0.00    +0.000 C 
ENDROOT
BRANCH   1   9
ATOM      7  C   UNL     1       1.759  13.102  19.507  0.00  0.00    +0.000 A 
ATOM      8  C   UNL     1       1.157  12.070  18.807  0.00  0.00    +0.000 A 
ATOM      9  N   UNL     1       0.805  11.179  19.780  0.00  0.00    +0.000 N 
ATOM     10  N   UNL     1       1.177  11.617  20.994  0.00  0.00    +0.000 NA
ATOM     11  N   UNL     1       1.759  12.793  20.837  0.00  0.00    +0.000 NA
BRANCH   7  18
ATOM     12  C   UNL     1       0.208  15.677  19.620  0.00  0.00    +0.000 C 
ATOM     13  C   UNL     1       1.560  15.550  18.971  0.00  0.00    +0.000 A 
ATOM     14  C   UNL     1       2.122  16.686  18.364  0.00  0.00    +0.000 A 
ATOM     15  C   UNL     1       3.376  16.637  17.756  0.00  0.00    +0.000 A 
ATOM     16  C   UNL     1       4.083  15.444  17.721  0.00  0.00    +0.000 A 
ATOM     17  C   UNL     1       3.542  14.306  18.303  0.00  0.00    +0.000 A 
ATOM     18  C   UNL     1       2.279  14.327  18.932  0.00  0.00    +0.000 A 
ENDBRANCH   7  18
ENDBRANCH   1   9
BRANCH   4  19
ATOM     19  C   UNL     1       3.404   7.235  18.461  0.00  0.00    +0.000 C 
BRANCH  19  20
ATOM     20  C   UNL     1       3.735   5.697  18.355  0.00  0.00    +0.000 C 
BRANCH  20  21
ATOM     21  C   UNL     1       2.847   4.863  19.294  0.00  0.00    +0.000 A 
ATOM     22  C   UNL     1       3.214   4.684  20.647  0.00  0.00    +0.000 A 
ATOM     23  C   UNL     1       2.470   3.872  21.507  0.00  0.00    +0.000 A 
ATOM     24  C   UNL     1       1.322   3.254  21.037  0.00  0.00    +0.000 A 
ATOM     25  F   UNL     1       0.617   2.459  21.852  0.00  0.00    +0.000 F 
ATOM     26  C   UNL     1       0.901   3.444  19.731  0.00  0.00    +0.000 A 
ATOM     27  C   UNL     1       1.663   4.239  18.875  0.00  0.00    +0.000 A 
ATOM     28  F   UNL     1       1.233   4.358  17.613  0.00  0.00    +0.000 F 
ENDBRANCH  20  21
BRANCH  20  29
ATOM     29  O   UNL     1       5.084   5.552  18.900  0.00  0.00    +0.000 OA
ATOM     30  H   UNL     1       5.655   6.169  18.387  0.00  0.00    +0.000 HD
ENDBRANCH  20  29
BRANCH  20  31
ATOM     31  C   UNL     1       3.821   5.126  16.907  0.00  0.00    +0.000 C 
BRANCH  31  32
ATOM     32  N   UNL     1       5.175   5.038  16.379  0.00  0.00    +0.000 N 
ATOM     33  C   UNL     1       5.820   5.923  15.572  0.00  0.00    +0.000 A 
ATOM     34  N   UNL     1       7.062   5.536  15.403  0.00  0.00    +0.000 NA
ATOM     35  C   UNL     1       7.133   4.388  16.134  0.00  0.00    +0.000 A 
ATOM     36  N   UNL     1       5.988   4.010  16.710  0.00  0.00    +0.000 NA
ENDBRANCH  31  32
ENDBRANCH  20  31
ENDBRANCH  19  20
ENDBRANCH   4  19
TORSDOF 8
ENDMDL
MODEL 4
REMARK VINA RESULT:      -8.3      0.911      1.039
REMARK  Name = 
REMARK  9 active torsions:
REMARK  status: ('A' for Active; 'I' for Inactive)
REMARK    1  A    between atoms: C_1  and  C_2
REMARK    2  A    between atoms: C_7  and  C_8
REMARK    3  A    between atoms: N_10  and  C_11
REMARK    4  A    between atoms: N_14  and  C_15
REMARK    5  A    between atoms: C_15  and  C_16
REMARK    6  A    between atoms: C_16  and  O_17
REMARK    7  A    between atoms: C_16  and  C_18
REMARK    8  A    between atoms: C_16  and  C_24
REMARK    9  A    between atoms: C_18  and  N_19
REMARK                            x       y       z     vdW  Elec       q    Type
REMARK                         _______ _______ _______ _____ _____    ______ ____
ROOT
ATOM      1  C   UNL     1       0.075  10.123  19.679  0.00  0.00    +0.000 C 
ATOM      2  C   UNL     1       0.581   9.019  20.610  0.00  0.00    +0.000 C 
ATOM      3  C   UNL     1       1.894   8.391  20.137  0.00  0.00    +0.000 C 
ATOM      4  N   UNL     1       1.853   7.956  18.721  0.00  0.00    +0.000 NA
ATOM      5  C   UNL     1       1.465   9.075  17.860  0.00  0.00    +0.000 C 
ATOM      6  C   UNL     1       0.112   9.661  18.232  0.00  0.00    +0.000 C 
ENDROOT
BRANCH   1   9
ATOM      7  C   UNL     1       1.754  13.294  19.572  0.00  0.00    +0.000 A 
ATOM      8  C   UNL     1       1.111  12.281  18.881  0.00  0.00    +0.000 A 
ATOM      9  N   UNL     1       0.753  11.397  19.859  0.00  0.00    +0.000 N 
ATOM     10  N   UNL     1       1.159  11.822  21.066  0.00  0.00    +0.000 NA
ATOM     11  N   UNL     1       1.770  12.982  20.901  0.00  0.00    +0.000 NA
BRANCH   7  18
ATOM     12  C   UNL     1       0.037  15.714  19.083  0.00  0.00    +0.000 C 
ATOM     13  C   UNL     1       1.502  15.655  18.746  0.00  0.00    +0.000 A 
ATOM     14  C   UNL     1       2.099  16.778  18.152  0.00  0.00    +0.000 A 
ATOM     15  C   UNL     1       3.456  16.792  17.826  0.00  0.00    +0.000 A 
ATOM     16  C   UNL     1       4.237  15.670  18.066  0.00  0.00    +0.000 A 
ATOM     17  C   UNL     1       3.665  14.545  18.642  0.00  0.00    +0.000 A 
ATOM     18  C   UNL     1       2.298  14.505  18.989  0.00  0.00    +0.000 A 
ENDBRANCH   7  18
ENDBRANCH   1   9
BRANCH   4  19
ATOM     19  C   UNL     1       3.195   7.412  18.377  0.00  0.00    +0.000 C 
BRANCH  19  20
ATOM     20  C   UNL     1       3.528   5.871  18.407  0.00  0.00    +0.000 C 
BRANCH  20  21
ATOM     21  C   UNL     1       4.692   5.527  17.461  0.00  0.00    +0.000 A 
ATOM     22  C   UNL     1       4.647   5.924  16.105  0.00  0.00    +0.000 A 
ATOM     23  C   UNL     1       5.651   5.563  15.203  0.00  0.00    +0.000 A 
ATOM     24  C   UNL     1       6.739   4.832  15.651  0.00  0.00    +0.000 A 
ATOM     25  F   UNL     1       7.694   4.467  14.786  0.00  0.00    +0.000 F 
ATOM     26  C   UNL     1       6.845   4.465  16.983  0.00  0.00    +0.000 A 
ATOM     27  C   UNL     1       5.826   4.811  17.871  0.00  0.00    +0.000 A 
ATOM     28  F   UNL     1       5.959   4.400  19.137  0.00  0.00    +0.000 F 
ENDBRANCH  20  21
BRANCH  20  29
ATOM     29  O   UNL     1       2.366   5.211  17.814  0.00  0.00    +0.000 OA
ATOM     30  H   UNL     1       1.954   5.871  17.210  0.00  0.00    +0.000 HD
ENDBRANCH  20  29
BRANCH  20  31
ATOM     31  C   UNL     1       3.670   5.241  19.826  0.00  0.00    +0.000 C 
BRANCH  31  32
ATOM     32  N   UNL     1       2.746   4.146  20.089  0.00  0.00    +0.000 N 
ATOM     33  C   UNL     1       1.678   4.134  20.931  0.00  0.00    +0.000 A 
ATOM     34  N   UNL     1       1.037   2.996  20.807  0.00  0.00    +0.000 NA
ATOM     35  C   UNL     1       1.763   2.330  19.866  0.00  0.00    +0.000 A 
ATOM     36  N   UNL     1       2.852   2.970  19.431  0.00  0.00    +0.000 NA
ENDBRANCH  31  32
ENDBRANCH  20  31
ENDBRANCH  19  20
ENDBRANCH   4  19
TORSDOF 8
ENDMDL
MODEL 5
REMARK VINA RESULT:      -8.3      0.707      1.405
REMARK  Name = 
REMARK  9 active torsions:
REMARK  status: ('A' for Active; 'I' for Inactive)
REMARK    1  A    between atoms: C_1  and  C_2
REMARK    2  A    between atoms: C_7  and  C_8
REMARK    3  A    between atoms: N_10  and  C_11
REMARK    4  A    between atoms: N_14  and  C_15
REMARK    5  A    between atoms: C_15  and  C_16
REMARK    6  A    between atoms: C_16  and  O_17
REMARK    7  A    between atoms: C_16  and  C_18
REMARK    8  A    between atoms: C_16  and  C_24
REMARK    9  A    between atoms: C_18  and  N_19
REMARK                            x       y       z     vdW  Elec       q    Type
REMARK                         _______ _______ _______ _____ _____    ______ ____
ROOT
ATOM      1  C   UNL     1      -0.050  10.110  19.703  0.00  0.00    +0.000 C 
ATOM      2  C   UNL     1       0.522   9.024  20.616  0.00  0.00    +0.000 C 
ATOM      3  C   UNL     1       1.830   8.428  20.091  0.00  0.00    +0.000 C 
ATOM      4  N   UNL     1       1.743   7.985  18.680  0.00  0.00    +0.000 NA
ATOM      5  C   UNL     1       1.291   9.090  17.832  0.00  0.00    +0.000 C 
ATOM      6  C   UNL     1      -0.061   9.643  18.257  0.00  0.00    +0.000 C 
ENDROOT
BRANCH   1   9
ATOM      7  C   UNL     1       1.388  13.395  19.549  0.00  0.00    +0.000 A 
ATOM      8  C   UNL     1       0.599  12.429  18.949  0.00  0.00    +0.000 A 
ATOM      9  N   UNL     1       0.601  11.402  19.850  0.00  0.00    +0.000 N 
ATOM     10  N   UNL     1       1.350  11.703  20.923  0.00  0.00    +0.000 NA
ATOM     11  N   UNL     1       1.833  12.920  20.750  0.00  0.00    +0.000 NA
BRANCH   7  18
ATOM     12  C   UNL     1       4.020  14.022  18.235  0.00  0.00    +0.000 C 
ATOM     13  C   UNL     1       2.911  15.027  18.393  0.00  0.00    +0.000 A 
ATOM     14  C   UNL     1       3.119  16.334  17.923  0.00  0.00    +0.000 A 
ATOM     15  C   UNL     1       2.127  17.310  18.029  0.00  0.00    +0.000 A 
ATOM     16  C   UNL     1       0.915  17.002  18.630  0.00  0.00    +0.000 A 
ATOM     17  C   UNL     1       0.692  15.720  19.112  0.00  0.00    +0.000 A 
ATOM     18  C   UNL     1       1.674  14.711  19.012  0.00  0.00    +0.000 A 
ENDBRANCH   7  18
ENDBRANCH   1   9
BRANCH   4  19
ATOM     19  C   UNL     1       3.083   7.474  18.283  0.00  0.00    +0.000 C 
BRANCH  19  20
ATOM     20  C   UNL     1       3.439   5.938  18.249  0.00  0.00    +0.000 C 
BRANCH  20  21
ATOM     21  C   UNL     1       4.377   5.603  17.078  0.00  0.00    +0.000 A 
ATOM     22  C   UNL     1       4.928   6.639  16.289  0.00  0.00    +0.000 A 
ATOM     23  C   UNL     1       5.722   6.366  15.172  0.00  0.00    +0.000 A 
ATOM     24  C   UNL     1       6.011   5.051  14.847  0.00  0.00    +0.000 A 
ATOM     25  F   UNL     1       6.756   4.784  13.766  0.00  0.00    +0.000 F 
ATOM     26  C   UNL     1       5.531   4.008  15.623  0.00  0.00    +0.000 A 
ATOM     27  C   UNL     1       4.721   4.291  16.723  0.00  0.00    +0.000 A 
ATOM     28  F   UNL     1       4.253   3.246  17.416  0.00  0.00    +0.000 F 
ENDBRANCH  20  21
BRANCH  20  29
ATOM     29  O   UNL     1       2.187   5.257  17.925  0.00  0.00    +0.000 OA
ATOM     30  H   UNL     1       1.630   5.916  17.450  0.00  0.00    +0.000 HD
ENDBRANCH  20  29
BRANCH  20  31
ATOM     31  C   UNL     1       3.893   5.324  19.608  0.00  0.00    +0.000 C 
BRANCH  31  32
ATOM     32  N   UNL     1       2.945   4.381  20.184  0.00  0.00    +0.000 N 
ATOM     33  C   UNL     1       1.844   4.651  20.936  0.00  0.00    +0.000 A 
ATOM     34  N   UNL     1       1.192   3.538  21.175  0.00  0.00    +0.000 NA
ATOM     35  C   UNL     1       1.946   2.594  20.542  0.00  0.00    +0.000 A 
ATOM     36  N   UNL     1       3.060   3.052  19.964  0.00  0.00    +0.000 NA
ENDBRANCH  31  32
ENDBRANCH  20  31
ENDBRANCH  19  20
ENDBRANCH   4  19
TORSDOF 8
ENDMDL
MODEL 6
REMARK VINA RESULT:      -8.2      0.943      1.274
REMARK  Name = 
REMARK  9 active torsions:
REMARK  status: ('A' for Active; 'I' for Inactive)
REMARK    1  A    between atoms: C_1  and  C_2
REMARK    2  A    between atoms: C_7  and  C_8
REMARK    3  A    between atoms: N_10  and  C_11
REMARK    4  A    between atoms: N_14  and  C_15
REMARK    5  A    between atoms: C_15  and  C_16
REMARK    6  A    between atoms: C_16  and  O_17
REMARK    7  A    between atoms: C_16  and  C_18
REMARK    8  A    between atoms: C_16  and  C_24
REMARK    9  A    between atoms: C_18  and  N_19
REMARK                            x       y       z     vdW  Elec       q    Type
REMARK                         _______ _______ _______ _____ _____    ______ ____
ROOT
ATOM      1  C   UNL     1       0.118  10.283  19.718  0.00  0.00    +0.000 C 
ATOM      2  C   UNL     1       0.515   9.075  20.569  0.00  0.00    +0.000 C 
ATOM      3  C   UNL     1       1.805   8.404  20.093  0.00  0.00    +0.000 C 
ATOM      4  N   UNL     1       1.798   8.091  18.645  0.00  0.00    +0.000 NA
ATOM      5  C   UNL     1       1.516   9.300  17.869  0.00  0.00    +0.000 C 
ATOM      6  C   UNL     1       0.187   9.942  18.239  0.00  0.00    +0.000 C 
ENDROOT
BRANCH   1   9
ATOM      7  C   UNL     1       2.139  13.239  19.968  0.00  0.00    +0.000 A 
ATOM      8  C   UNL     1       1.613  12.240  19.167  0.00  0.00    +0.000 A 
ATOM      9  N   UNL     1       0.865  11.491  20.031  0.00  0.00    +0.000 N 
ATOM     10  N   UNL     1       0.936  11.980  21.279  0.00  0.00    +0.000 NA
ATOM     11  N   UNL     1       1.710  13.050  21.250  0.00  0.00    +0.000 NA
BRANCH   7  18
ATOM     12  C   UNL     1       4.425  14.253  21.639  0.00  0.00    +0.000 C 
ATOM     13  C   UNL     1       4.063  14.824  20.295  0.00  0.00    +0.000 A 
ATOM     14  C   UNL     1       4.814  15.903  19.801  0.00  0.00    +0.000 A 
ATOM     15  C   UNL     1       4.537  16.471  18.557  0.00  0.00    +0.000 A 
ATOM     16  C   UNL     1       3.484  15.986  17.794  0.00  0.00    +0.000 A 
ATOM     17  C   UNL     1       2.721  14.928  18.269  0.00  0.00    +0.000 A 
ATOM     18  C   UNL     1       2.983  14.329  19.519  0.00  0.00    +0.000 A 
ENDBRANCH   7  18
ENDBRANCH   1   9
BRANCH   4  19
ATOM     19  C   UNL     1       3.117   7.491  18.306  0.00  0.00    +0.000 C 
BRANCH  19  20
ATOM     20  C   UNL     1       3.387   5.938  18.346  0.00  0.00    +0.000 C 
BRANCH  20  21
ATOM     21  C   UNL     1       4.508   5.536  17.373  0.00  0.00    +0.000 A 
ATOM     22  C   UNL     1       5.558   6.437  17.087  0.00  0.00    +0.000 A 
ATOM     23  C   UNL     1       6.550   6.133  16.151  0.00  0.00    +0.000 A 
ATOM     24  C   UNL     1       6.530   4.904  15.512  0.00  0.00    +0.000 A 
ATOM     25  F   UNL     1       7.468   4.616  14.600  0.00  0.00    +0.000 F 
ATOM     26  C   UNL     1       5.546   3.973  15.801  0.00  0.00    +0.000 A 
ATOM     27  C   UNL     1       4.548   4.295  16.721  0.00  0.00    +0.000 A 
ATOM     28  F   UNL     1       3.599   3.375  16.934  0.00  0.00    +0.000 F 
ENDBRANCH  20  21
BRANCH  20  29
ATOM     29  O   UNL     1       2.182   5.320  17.795  0.00  0.00    +0.000 OA
ATOM     30  H   UNL     1       2.326   4.347  17.842  0.00  0.00    +0.000 HD
ENDBRANCH  20  29
BRANCH  20  31
ATOM     31  C   UNL     1       3.543   5.319  19.769  0.00  0.00    +0.000 C 
BRANCH  31  32
ATOM     32  N   UNL     1       2.620   4.230  20.052  0.00  0.00    +0.000 N 
ATOM     33  C   UNL     1       2.887   2.898  20.110  0.00  0.00    +0.000 A 
ATOM     34  N   UNL     1       1.811   2.252  20.496  0.00  0.00    +0.000 NA
ATOM     35  C   UNL     1       0.894   3.247  20.661  0.00  0.00    +0.000 A 
ATOM     36  N   UNL     1       1.324   4.473  20.350  0.00  0.00    +0.000 NA
ENDBRANCH  31  32
ENDBRANCH  20  31
ENDBRANCH  19  20
ENDBRANCH   4  19
TORSDOF 8
ENDMDL
MODEL 7
REMARK VINA RESULT:      -8.2      3.408      5.756
REMARK  Name = 
REMARK  9 active torsions:
REMARK  status: ('A' for Active; 'I' for Inactive)
REMARK    1  A    between atoms: C_1  and  C_2
REMARK    2  A    between atoms: C_7  and  C_8
REMARK    3  A    between atoms: N_10  and  C_11
REMARK    4  A    between atoms: N_14  and  C_15
REMARK    5  A    between atoms: C_15  and  C_16
REMARK    6  A    between atoms: C_16  and  O_17
REMARK    7  A    between atoms: C_16  and  C_18
REMARK    8  A    between atoms: C_16  and  C_24
REMARK    9  A    between atoms: C_18  and  N_19
REMARK                            x       y       z     vdW  Elec       q    Type
REMARK                         _______ _______ _______ _____ _____    ______ ____
ROOT
ATOM      1  C   UNL     1       1.081  10.424  19.247  0.00  0.00    +0.000 C 
ATOM      2  C   UNL     1       2.175  10.346  18.181  0.00  0.00    +0.000 C 
ATOM      3  C   UNL     1       2.315   8.951  17.568  0.00  0.00    +0.000 C 
ATOM      4  N   UNL     1       2.444   7.879  18.583  0.00  0.00    +0.000 NA
ATOM      5  C   UNL     1       1.319   7.932  19.518  0.00  0.00    +0.000 C 
ATOM      6  C   UNL     1       1.208   9.272  20.230  0.00  0.00    +0.000 C 
ENDROOT
BRANCH   1   9
ATOM      7  C   UNL     1      -2.340  11.007  18.330  0.00  0.00    +0.000 A 
ATOM      8  C   UNL     1      -1.279  11.312  19.166  0.00  0.00    +0.000 A 
ATOM      9  N   UNL     1      -0.263  10.526  18.701  0.00  0.00    +0.000 N 
ATOM     10  N   UNL     1      -0.668   9.776  17.665  0.00  0.00    +0.000 NA
ATOM     11  N   UNL     1      -1.935  10.065  17.428  0.00  0.00    +0.000 NA
BRANCH   7  18
ATOM     12  C   UNL     1      -4.130  11.076  15.914  0.00  0.00    +0.000 C 
ATOM     13  C   UNL     1      -4.515  11.655  17.248  0.00  0.00    +0.000 A 
ATOM     14  C   UNL     1      -5.766  12.282  17.371  0.00  0.00    +0.000 A 
ATOM     15  C   UNL     1      -6.187  12.828  18.584  0.00  0.00    +0.000 A 
ATOM     16  C   UNL     1      -5.353  12.780  19.692  0.00  0.00    +0.000 A 
ATOM     17  C   UNL     1      -4.108  12.176  19.590  0.00  0.00    +0.000 A 
ATOM     18  C   UNL     1      -3.658  11.608  18.379  0.00  0.00    +0.000 A 
ENDBRANCH   7  18
ENDBRANCH   1   9
BRANCH   4  19
ATOM     19  C   UNL     1       2.524   6.580  17.861  0.00  0.00    +0.000 C 
BRANCH  19  20
ATOM     20  C   UNL     1       3.375   5.360  18.385  0.00  0.00    +0.000 C 
BRANCH  20  21
ATOM     21  C   UNL     1       2.596   4.533  19.422  0.00  0.00    +0.000 A 
ATOM     22  C   UNL     1       2.992   4.539  20.778  0.00  0.00    +0.000 A 
ATOM     23  C   UNL     1       2.354   3.740  21.731  0.00  0.00    +0.000 A 
ATOM     24  C   UNL     1       1.281   2.951  21.350  0.00  0.00    +0.000 A 
ATOM     25  F   UNL     1       0.679   2.170  22.256  0.00  0.00    +0.000 F 
ATOM     26  C   UNL     1       0.831   2.954  20.040  0.00  0.00    +0.000 A 
ATOM     27  C   UNL     1       1.489   3.738  19.092  0.00  0.00    +0.000 A 
ATOM     28  F   UNL     1       1.038   3.675  17.834  0.00  0.00    +0.000 F 
ENDBRANCH  20  21
BRANCH  20  29
ATOM     29  O   UNL     1       4.478   5.952  19.140  0.00  0.00    +0.000 OA
ATOM     30  H   UNL     1       4.121   6.773  19.551  0.00  0.00    +0.000 HD
ENDBRANCH  20  29
BRANCH  20  31
ATOM     31  C   UNL     1       4.059   4.496  17.283  0.00  0.00    +0.000 C 
BRANCH  31  32
ATOM     32  N   UNL     1       5.443   4.858  17.012  0.00  0.00    +0.000 N 
ATOM     33  C   UNL     1       5.920   5.687  16.046  0.00  0.00    +0.000 A 
ATOM     34  N   UNL     1       7.215   5.837  16.197  0.00  0.00    +0.000 NA
ATOM     35  C   UNL     1       7.493   5.065  17.285  0.00  0.00    +0.000 A 
ATOM     36  N   UNL     1       6.449   4.400  17.791  0.00  0.00    +0.000 NA
ENDBRANCH  31  32
ENDBRANCH  20  31
ENDBRANCH  19  20
ENDBRANCH   4  19
TORSDOF 8
ENDMDL
MODEL 8
REMARK VINA RESULT:      -8.2      0.974      1.765
REMARK  Name = 
REMARK  9 active torsions:
REMARK  status: ('A' for Active; 'I' for Inactive)
REMARK    1  A    between atoms: C_1  and  C_2
REMARK    2  A    between atoms: C_7  and  C_8
REMARK    3  A    between atoms: N_10  and  C_11
REMARK    4  A    between atoms: N_14  and  C_15
REMARK    5  A    between atoms: C_15  and  C_16
REMARK    6  A    between atoms: C_16  and  O_17
REMARK    7  A    between atoms: C_16  and  C_18
REMARK    8  A    between atoms: C_16  and  C_24
REMARK    9  A    between atoms: C_18  and  N_19
REMARK                            x       y       z     vdW  Elec       q    Type
REMARK                         _______ _______ _______ _____ _____    ______ ____
ROOT
ATOM      1  C   UNL     1      -0.063  10.213  19.759  0.00  0.00    +0.000 C 
ATOM      2  C   UNL     1       0.548   9.128  20.648  0.00  0.00    +0.000 C 
ATOM      3  C   UNL     1       1.832   8.532  20.068  0.00  0.00    +0.000 C 
ATOM      4  N   UNL     1       1.685   8.087  18.663  0.00  0.00    +0.000 NA
ATOM      5  C   UNL     1       1.196   9.191  17.834  0.00  0.00    +0.000 C 
ATOM      6  C   UNL     1      -0.136   9.744  18.316  0.00  0.00    +0.000 C 
ENDROOT
BRANCH   1   9
ATOM      7  C   UNL     1       1.372  13.496  19.537  0.00  0.00    +0.000 A 
ATOM      8  C   UNL     1       0.563  12.526  18.969  0.00  0.00    +0.000 A 
ATOM      9  N   UNL     1       0.593  11.506  19.876  0.00  0.00    +0.000 N 
ATOM     10  N   UNL     1       1.377  11.813  20.922  0.00  0.00    +0.000 NA
ATOM     11  N   UNL     1       1.856  13.028  20.725  0.00  0.00    +0.000 NA
BRANCH   7  18
ATOM     12  C   UNL     1       4.027  14.165  18.293  0.00  0.00    +0.000 C 
ATOM     13  C   UNL     1       2.889  15.144  18.395  0.00  0.00    +0.000 A 
ATOM     14  C   UNL     1       3.079  16.446  17.905  0.00  0.00    +0.000 A 
ATOM     15  C   UNL     1       2.059  17.397  17.960  0.00  0.00    +0.000 A 
ATOM     16  C   UNL     1       0.836  17.070  18.529  0.00  0.00    +0.000 A 
ATOM     17  C   UNL     1       0.631  15.792  19.030  0.00  0.00    +0.000 A 
ATOM     18  C   UNL     1       1.641  14.808  18.981  0.00  0.00    +0.000 A 
ENDBRANCH   7  18
ENDBRANCH   1   9
BRANCH   4  19
ATOM     19  C   UNL     1       3.007   7.576  18.209  0.00  0.00    +0.000 C 
BRANCH  19  20
ATOM     20  C   UNL     1       3.413   6.055  18.295  0.00  0.00    +0.000 C 
BRANCH  20  21
ATOM     21  C   UNL     1       4.510   5.706  17.275  0.00  0.00    +0.000 A 
ATOM     22  C   UNL     1       4.405   4.534  16.491  0.00  0.00    +0.000 A 
ATOM     23  C   UNL     1       5.420   4.150  15.611  0.00  0.00    +0.000 A 
ATOM     24  C   UNL     1       6.540   4.952  15.470  0.00  0.00    +0.000 A 
ATOM     25  F   UNL     1       7.524   4.576  14.642  0.00  0.00    +0.000 F 
ATOM     26  C   UNL     1       6.659   6.133  16.183  0.00  0.00    +0.000 A 
ATOM     27  C   UNL     1       5.650   6.497  17.076  0.00  0.00    +0.000 A 
ATOM     28  F   UNL     1       5.832   7.628  17.769  0.00  0.00    +0.000 F 
ENDBRANCH  20  21
BRANCH  20  29
ATOM     29  O   UNL     1       2.237   5.314  17.839  0.00  0.00    +0.000 OA
ATOM     30  H   UNL     1       2.475   4.933  16.962  0.00  0.00    +0.000 HD
ENDBRANCH  20  29
BRANCH  20  31
ATOM     31  C   UNL     1       3.699   5.515  19.729  0.00  0.00    +0.000 C 
BRANCH  31  32
ATOM     32  N   UNL     1       2.844   4.408  20.133  0.00  0.00    +0.000 N 
ATOM     33  C   UNL     1       1.761   4.441  20.954  0.00  0.00    +0.000 A 
ATOM     34  N   UNL     1       1.199   3.255  20.986  0.00  0.00    +0.000 NA
ATOM     35  C   UNL     1       1.989   2.515  20.157  0.00  0.00    +0.000 A 
ATOM     36  N   UNL     1       3.043   3.161  19.650  0.00  0.00    +0.000 NA
ENDBRANCH  31  32
ENDBRANCH  20  31
ENDBRANCH  19  20
ENDBRANCH   4  19
TORSDOF 8
ENDMDL
MODEL 9
REMARK VINA RESULT:      -8.1      1.214      1.725
REMARK  Name = 
REMARK  9 active torsions:
REMARK  status: ('A' for Active; 'I' for Inactive)
REMARK    1  A    between atoms: C_1  and  C_2
REMARK    2  A    between atoms: C_7  and  C_8
REMARK    3  A    between atoms: N_10  and  C_11
REMARK    4  A    between atoms: N_14  and  C_15
REMARK    5  A    between atoms: C_15  and  C_16
REMARK    6  A    between atoms: C_16  and  O_17
REMARK    7  A    between atoms: C_16  and  C_18
REMARK    8  A    between atoms: C_16  and  C_24
REMARK    9  A    between atoms: C_18  and  N_19
REMARK                            x       y       z     vdW  Elec       q    Type
REMARK                         _______ _______ _______ _____ _____    ______ ____
ROOT
ATOM      1  C   UNL     1       0.151  10.224  19.743  0.00  0.00    +0.000 C 
ATOM      2  C   UNL     1       0.617   9.011  20.550  0.00  0.00    +0.000 C 
ATOM      3  C   UNL     1       1.898   8.381  20.000  0.00  0.00    +0.000 C 
ATOM      4  N   UNL     1       1.829   8.095  18.548  0.00  0.00    +0.000 NA
ATOM      5  C   UNL     1       1.482   9.311  17.811  0.00  0.00    +0.000 C 
ATOM      6  C   UNL     1       0.157   9.912  18.256  0.00  0.00    +0.000 C 
ENDROOT
BRANCH   1   9
ATOM      7  C   UNL     1       2.148  13.198  19.969  0.00  0.00    +0.000 A 
ATOM      8  C   UNL     1       1.647  12.176  19.180  0.00  0.00    +0.000 A 
ATOM      9  N   UNL     1       0.884  11.444  20.044  0.00  0.00    +0.000 N 
ATOM     10  N   UNL     1       0.922  11.964  21.281  0.00  0.00    +0.000 NA
ATOM     11  N   UNL     1       1.690  13.037  21.245  0.00  0.00    +0.000 NA
BRANCH   7  18
ATOM     12  C   UNL     1       4.419  14.234  21.648  0.00  0.00    +0.000 C 
ATOM     13  C   UNL     1       4.069  14.788  20.293  0.00  0.00    +0.000 A 
ATOM     14  C   UNL     1       4.825  15.860  19.792  0.00  0.00    +0.000 A 
ATOM     15  C   UNL     1       4.558  16.412  18.538  0.00  0.00    +0.000 A 
ATOM     16  C   UNL     1       3.513  15.917  17.772  0.00  0.00    +0.000 A 
ATOM     17  C   UNL     1       2.745  14.866  18.253  0.00  0.00    +0.000 A 
ATOM     18  C   UNL     1       2.996  14.283  19.513  0.00  0.00    +0.000 A 
ENDBRANCH   7  18
ENDBRANCH   1   9
BRANCH   4  19
ATOM     19  C   UNL     1       3.144   7.534  18.134  0.00  0.00    +0.000 C 
BRANCH  19  20
ATOM     20  C   UNL     1       3.491   5.999  18.238  0.00  0.00    +0.000 C 
BRANCH  20  21
ATOM     21  C   UNL     1       4.575   5.597  17.223  0.00  0.00    +0.000 A 
ATOM     22  C   UNL     1       4.416   4.434  16.436  0.00  0.00    +0.000 A 
ATOM     23  C   UNL     1       5.414   4.000  15.561  0.00  0.00    +0.000 A 
ATOM     24  C   UNL     1       6.575   4.745  15.427  0.00  0.00    +0.000 A 
ATOM     25  F   UNL     1       7.542   4.322  14.604  0.00  0.00    +0.000 F 
ATOM     26  C   UNL     1       6.749   5.917  16.144  0.00  0.00    +0.000 A 
ATOM     27  C   UNL     1       5.755   6.330  17.032  0.00  0.00    +0.000 A 
ATOM     28  F   UNL     1       5.990   7.449  17.728  0.00  0.00    +0.000 F 
ENDBRANCH  20  21
BRANCH  20  29
ATOM     29  O   UNL     1       2.289   5.298  17.790  0.00  0.00    +0.000 OA
ATOM     30  H   UNL     1       2.584   4.660  17.100  0.00  0.00    +0.000 HD
ENDBRANCH  20  29
BRANCH  20  31
ATOM     31  C   UNL     1       3.756   5.465  19.678  0.00  0.00    +0.000 C 
BRANCH  31  32
ATOM     32  N   UNL     1       2.857   4.399  20.095  0.00  0.00    +0.000 N 
ATOM     33  C   UNL     1       3.124   3.069  20.199  0.00  0.00    +0.000 A 
ATOM     34  N   UNL     1       2.084   2.452  20.708  0.00  0.00    +0.000 NA
ATOM     35  C   UNL     1       1.187   3.461  20.901  0.00  0.00    +0.000 A 
ATOM     36  N   UNL     1       1.593   4.667  20.491  0.00  0.00    +0.000 NA
ENDBRANCH  31  32
ENDBRANCH  20  31
ENDBRANCH  19  20
ENDBRANCH   4  19
TORSDOF 8
ENDMDL
