MODEL 1
REMARK VINA RESULT:      -9.6      0.000      0.000
REMARK  Name = 
REMARK  8 active torsions:
REMARK  status: ('A' for Active; 'I' for Inactive)
REMARK    1  A    between atoms: C_1  and  C_2
REMARK    2  A    between atoms: C_2  and  C_3
REMARK    3  A    between atoms: C_2  and  C_6
REMARK    4  A    between atoms: C_3  and  O_5
REMARK    5  A    between atoms: C_9  and  C_10
REMARK    6  A    between atoms: C_13  and  C_14
REMARK    7  A    between atoms: C_24  and  C_25
REMARK    8  A    between atoms: C_24  and  C_26
REMARK                            x       y       z     vdW  Elec       q    Type
REMARK                         _______ _______ _______ _____ _____    ______ ____
ROOT
ATOM      1  C   UNL     1       1.788   8.429  18.718  0.00  0.00    +0.000 A 
ATOM      2  C   UNL     1       1.950   7.435  19.703  0.00  0.00    +0.000 A 
ATOM      3  C   UNL     1       2.972   6.488  19.599  0.00  0.00    +0.000 A 
ATOM      4  C   UNL     1       3.832   6.563  18.514  0.00  0.00    +0.000 A 
ATOM      5  C   UNL     1       3.570   7.473  17.483  0.00  0.00    +0.000 A 
ATOM      6  C   UNL     1       2.565   8.382  17.572  0.00  0.00    +0.000 A 
ENDROOT
BRANCH   4   7
ATOM      7  C   UNL     1       4.977   5.586  18.314  0.00  0.00    +0.000 C 
ATOM      8  N   UNL     1       5.255   4.679  19.215  0.00  0.00    +0.000 NA
ATOM      9  C   UNL     1       4.678   3.457  18.726  0.00  0.00    +0.000 A 
ATOM     10  C   UNL     1       4.227   2.485  19.600  0.00  0.00    +0.000 A 
ATOM     11  N   UNL     1       5.124   1.622  20.243  0.00  0.00    +0.000 N 
ATOM     12  N   UNL     1       2.922   2.248  19.787  0.00  0.00    +0.000 NA
ATOM     13  C   UNL     1       2.108   2.855  18.912  0.00  0.00    +0.000 A 
ATOM     14  N   UNL     1       2.494   3.435  17.762  0.00  0.00    +0.000 NA
ATOM     15  C   UNL     1       3.821   3.644  17.653  0.00  0.00    +0.000 A 
ATOM     16  O   UNL     1       4.194   4.662  16.746  0.00  0.00    +0.000 OA
ATOM     17  C   UNL     1       5.605   5.343  16.896  0.00  0.00    +0.000 C 
ATOM     18  C   UNL     1       5.490   5.752  15.379  0.00  0.00    +0.000 C 
ATOM     19  C   UNL     1       6.283   6.819  17.201  0.00  0.00    +0.000 C 
ATOM     20  H   UNL     1       5.724   1.195  19.540  0.00  0.00    +0.000 HD
ATOM     21  H   UNL     1       4.564   0.917  20.714  0.00  0.00    +0.000 HD
ENDBRANCH   4   7
BRANCH   1  25
ATOM     22  C   UNL     1      -0.556  11.792  19.328  0.00  0.00    +0.000 C 
ATOM     23  C   UNL     1      -1.175  10.886  18.232  0.00  0.00    +0.000 C 
ATOM     24  C   UNL     1      -0.324   9.642  17.972  0.00  0.00    +0.000 C 
ATOM     25  C   UNL     1       0.931   9.660  18.853  0.00  0.00    +0.000 C 
ATOM     26  C   UNL     1       0.475   9.720  20.344  0.00  0.00    +0.000 C 
ATOM     27  C   UNL     1      -0.393  10.937  20.606  0.00  0.00    +0.000 C 
ATOM     28  C   UNL     1       1.718  10.950  18.517  0.00  0.00    +0.000 C 
ATOM     29  C   UNL     1       0.866  12.189  18.828  0.00  0.00    +0.000 C 
BRANCH  22  31
ATOM     30  C   UNL     1      -2.444  12.844  20.749  0.00  0.00    +0.000 C 
ATOM     31  C   UNL     1      -1.456  13.032  19.587  0.00  0.00    +0.000 C 
BRANCH  31  32
ATOM     32  C   UNL     1      -0.633  14.293  19.840  0.00  0.00    +0.000 C 
ATOM     33  O   UNL     1      -0.019  14.530  20.867  0.00  0.00    +0.000 OA
BRANCH  32  34
ATOM     34  O   UNL     1      -0.650  15.161  18.797  0.00  0.00    +0.000 OA
ATOM     35  H   UNL     1      -1.383  15.809  18.812  0.00  0.00    +0.000 HD
ENDBRANCH  32  34
ENDBRANCH  31  32
ENDBRANCH  22  31
ENDBRANCH   1  25
TORSDOF 5
ENDMDL
MODEL 2
REMARK VINA RESULT:      -9.5      0.177      1.101
REMARK  Name = 
REMARK  8 active torsions:
REMARK  status: ('A' for Active; 'I' for Inactive)
REMARK    1  A    between atoms: C_1  and  C_2
REMARK    2  A    between atoms: C_2  and  C_3
REMARK    3  A    between atoms: C_2  and  C_6
REMARK    4  A    between atoms: C_3  and  O_5
REMARK    5  A    between atoms: C_9  and  C_10
REMARK    6  A    between atoms: C_13  and  C_14
REMARK    7  A    between atoms: C_24  and  C_25
REMARK    8  A    between atoms: C_24  and  C_26
REMARK                            x       y       z     vdW  Elec       q    Type
REMARK                         _______ _______ _______ _____ _____    ______ ____
ROOT
ATOM      1  C   UNL     1       1.822   8.434  18.809  0.00  0.00    +0.000 A 
ATOM      2  C   UNL     1       1.976   7.405  19.758  0.00  0.00    +0.000 A 
ATOM      3  C   UNL     1       2.980   6.444  19.611  0.00  0.00    +0.000 A 
ATOM      4  C   UNL     1       3.829   6.540  18.520  0.00  0.00    +0.000 A 
ATOM      5  C   UNL     1       3.573   7.488  17.524  0.00  0.00    +0.000 A 
ATOM      6  C   UNL     1       2.586   8.412  17.653  0.00  0.00    +0.000 A 
ENDROOT
BRANCH   4   7
ATOM      7  C   UNL     1       4.954   5.550  18.276  0.00  0.00    +0.000 C 
ATOM      8  N   UNL     1       5.241   4.623  19.154  0.00  0.00    +0.000 NA
ATOM      9  C   UNL     1       4.633   3.418  18.658  0.00  0.00    +0.000 A 
ATOM     10  C   UNL     1       4.189   2.438  19.527  0.00  0.00    +0.000 A 
ATOM     11  N   UNL     1       5.089   1.551  20.132  0.00  0.00    +0.000 N 
ATOM     12  N   UNL     1       2.886   2.218  19.741  0.00  0.00    +0.000 NA
ATOM     13  C   UNL     1       2.059   2.851  18.898  0.00  0.00    +0.000 A 
ATOM     14  N   UNL     1       2.426   3.446  17.749  0.00  0.00    +0.000 NA
ATOM     15  C   UNL     1       3.753   3.637  17.610  0.00  0.00    +0.000 A 
ATOM     16  O   UNL     1       4.120   4.665  16.712  0.00  0.00    +0.000 OA
ATOM     17  C   UNL     1       5.543   5.322  16.839  0.00  0.00    +0.000 C 
ATOM     18  C   UNL     1       5.398   5.759  15.332  0.00  0.00    +0.000 C 
ATOM     19  C   UNL     1       6.251   6.782  17.152  0.00  0.00    +0.000 C 
ATOM     20  H   UNL     1       5.664   1.128  19.408  0.00  0.00    +0.000 HD
ATOM     21  H   UNL     1       4.530   0.846  20.605  0.00  0.00    +0.000 HD
ENDBRANCH   4   7
BRANCH   1  25
ATOM     22  C   UNL     1      -0.649  11.739  19.195  0.00  0.00    +0.000 C 
ATOM     23  C   UNL     1       0.785  12.173  18.792  0.00  0.00    +0.000 C 
ATOM     24  C   UNL     1       1.727  10.975  18.656  0.00  0.00    +0.000 C 
ATOM     25  C   UNL     1       0.988   9.675  18.994  0.00  0.00    +0.000 C 
ATOM     26  C   UNL     1      -0.225   9.540  18.022  0.00  0.00    +0.000 C 
ATOM     27  C   UNL     1      -1.152  10.738  18.130  0.00  0.00    +0.000 C 
ATOM     28  C   UNL     1       0.458   9.802  20.443  0.00  0.00    +0.000 C 
ATOM     29  C   UNL     1      -0.521  10.979  20.550  0.00  0.00    +0.000 C 
BRANCH  22  31
ATOM     30  C   UNL     1      -2.772  12.769  20.253  0.00  0.00    +0.000 C 
ATOM     31  C   UNL     1      -1.585  12.975  19.298  0.00  0.00    +0.000 C 
BRANCH  31  32
ATOM     32  C   UNL     1      -0.827  14.232  19.721  0.00  0.00    +0.000 C 
ATOM     33  O   UNL     1      -0.427  14.457  20.851  0.00  0.00    +0.000 OA
BRANCH  32  34
ATOM     34  O   UNL     1      -0.640  15.111  18.704  0.00  0.00    +0.000 OA
ATOM     35  H   UNL     1      -1.420  15.659  18.484  0.00  0.00    +0.000 HD
ENDBRANCH  32  34
ENDBRANCH  31  32
ENDBRANCH  22  31
ENDBRANCH   1  25
TORSDOF 5
ENDMDL
MODEL 3
REMARK VINA RESULT:      -9.4      0.230      1.106
REMARK  Name = 
REMARK  8 active torsions:
REMARK  status: ('A' for Active; 'I' for Inactive)
REMARK    1  A    between atoms: C_1  and  C_2
REMARK    2  A    between atoms: C_2  and  C_3
REMARK    3  A    between atoms: C_2  and  C_6
REMARK    4  A    between atoms: C_3  and  O_5
REMARK    5  A    between atoms: C_9  and  C_10
REMARK    6  A    between atoms: C_13  and  C_14
REMARK    7  A    between atoms: C_24  and  C_25
REMARK    8  A    between atoms: C_24  and  C_26
REMARK                            x       y       z     vdW  Elec       q    Type
REMARK                         _______ _______ _______ _____ _____    ______ ____
ROOT
ATOM      1  C   UNL     1       1.648   8.486  18.849  0.00  0.00    +0.000 A 
ATOM      2  C   UNL     1       1.855   7.484  19.818  0.00  0.00    +0.000 A 
ATOM      3  C   UNL     1       2.887   6.554  19.673  0.00  0.00    +0.000 A 
ATOM      4  C   UNL     1       3.712   6.654  18.563  0.00  0.00    +0.000 A 
ATOM      5  C   UNL     1       3.404   7.570  17.551  0.00  0.00    +0.000 A 
ATOM      6  C   UNL     1       2.389   8.462  17.679  0.00  0.00    +0.000 A 
ENDROOT
BRANCH   4   7
ATOM      7  C   UNL     1       4.865   5.697  18.318  0.00  0.00    +0.000 C 
ATOM      8  N   UNL     1       5.167   4.767  19.188  0.00  0.00    +0.000 NA
ATOM      9  C   UNL     1       4.596   3.553  18.670  0.00  0.00    +0.000 A 
ATOM     10  C   UNL     1       4.169   2.550  19.522  0.00  0.00    +0.000 A 
ATOM     11  N   UNL     1       5.085   1.680  20.125  0.00  0.00    +0.000 N 
ATOM     12  N   UNL     1       2.869   2.293  19.719  0.00  0.00    +0.000 NA
ATOM     13  C   UNL     1       2.036   2.915  18.875  0.00  0.00    +0.000 A 
ATOM     14  N   UNL     1       2.399   3.534  17.737  0.00  0.00    +0.000 NA
ATOM     15  C   UNL     1       3.721   3.762  17.615  0.00  0.00    +0.000 A 
ATOM     16  O   UNL     1       4.070   4.810  16.734  0.00  0.00    +0.000 OA
ATOM     17  C   UNL     1       5.475   5.503  16.885  0.00  0.00    +0.000 C 
ATOM     18  C   UNL     1       5.334   5.955  15.382  0.00  0.00    +0.000 C 
ATOM     19  C   UNL     1       6.141   6.977  17.224  0.00  0.00    +0.000 C 
ATOM     20  H   UNL     1       5.679   1.280  19.402  0.00  0.00    +0.000 HD
ATOM     21  H   UNL     1       4.540   0.954  20.583  0.00  0.00    +0.000 HD
ENDBRANCH   4   7
BRANCH   1  25
ATOM     22  C   UNL     1      -0.585  11.959  19.207  0.00  0.00    +0.000 C 
ATOM     23  C   UNL     1      -0.539  11.198  20.558  0.00  0.00    +0.000 C 
ATOM     24  C   UNL     1       0.266   9.901  20.455  0.00  0.00    +0.000 C 
ATOM     25  C   UNL     1       0.776   9.702  19.023  0.00  0.00    +0.000 C 
ATOM     26  C   UNL     1       1.656  10.934  18.645  0.00  0.00    +0.000 C 
ATOM     27  C   UNL     1       0.874  12.228  18.771  0.00  0.00    +0.000 C 
ATOM     28  C   UNL     1      -0.459   9.664  18.089  0.00  0.00    +0.000 C 
ATOM     29  C   UNL     1      -1.228  10.989  18.170  0.00  0.00    +0.000 C 
BRANCH  22  31
ATOM     30  C   UNL     1      -2.433  13.248  20.478  0.00  0.00    +0.000 C 
ATOM     31  C   UNL     1      -1.387  13.282  19.353  0.00  0.00    +0.000 C 
BRANCH  31  32
ATOM     32  C   UNL     1      -0.470  14.485  19.570  0.00  0.00    +0.000 C 
ATOM     33  O   UNL     1       0.185  14.688  20.579  0.00  0.00    +0.000 OA
BRANCH  32  34
ATOM     34  O   UNL     1      -0.452  15.341  18.517  0.00  0.00    +0.000 OA
ATOM     35  H   UNL     1       0.367  15.869  18.430  0.00  0.00    +0.000 HD
ENDBRANCH  32  34
ENDBRANCH  31  32
ENDBRANCH  22  31
ENDBRANCH   1  25
TORSDOF 5
ENDMDL
MODEL 4
REMARK VINA RESULT:      -9.2      1.954      3.429
REMARK  Name = 
REMARK  8 active torsions:
REMARK  status: ('A' for Active; 'I' for Inactive)
REMARK    1  A    between atoms: C_1  and  C_2
REMARK    2  A    between atoms: C_2  and  C_3
REMARK    3  A    between atoms: C_2  and  C_6
REMARK    4  A    between atoms: C_3  and  O_5
REMARK    5  A    between atoms: C_9  and  C_10
REMARK    6  A    between atoms: C_13  and  C_14
REMARK    7  A    between atoms: C_24  and  C_25
REMARK    8  A    between atoms: C_24  and  C_26
REMARK                            x       y       z     vdW  Elec       q    Type
REMARK                         _______ _______ _______ _____ _____    ______ ____
ROOT
ATOM      1  C   UNL     1       1.965   8.519  18.976  0.00  0.00    +0.000 A 
ATOM      2  C   UNL     1       2.671   8.530  17.757  0.00  0.00    +0.000 A 
ATOM      3  C   UNL     1       3.263   7.364  17.265  0.00  0.00    +0.000 A 
ATOM      4  C   UNL     1       3.122   6.195  17.997  0.00  0.00    +0.000 A 
ATOM      5  C   UNL     1       2.533   6.237  19.265  0.00  0.00    +0.000 A 
ATOM      6  C   UNL     1       1.974   7.374  19.756  0.00  0.00    +0.000 A 
ENDROOT
BRANCH   4   7
ATOM      7  C   UNL     1       3.721   4.875  17.544  0.00  0.00    +0.000 C 
ATOM      8  N   UNL     1       4.465   4.805  16.470  0.00  0.00    +0.000 NA
ATOM      9  C   UNL     1       5.824   4.782  16.941  0.00  0.00    +0.000 A 
ATOM     10  C   UNL     1       6.849   5.313  16.179  0.00  0.00    +0.000 A 
ATOM     11  N   UNL     1       7.377   4.606  15.091  0.00  0.00    +0.000 N 
ATOM     12  N   UNL     1       7.454   6.461  16.506  0.00  0.00    +0.000 NA
ATOM     13  C   UNL     1       7.155   6.930  17.725  0.00  0.00    +0.000 A 
ATOM     14  N   UNL     1       6.534   6.236  18.696  0.00  0.00    +0.000 NA
ATOM     15  C   UNL     1       5.945   5.096  18.286  0.00  0.00    +0.000 A 
ATOM     16  O   UNL     1       4.901   4.629  19.116  0.00  0.00    +0.000 OA
ATOM     17  C   UNL     1       3.825   3.649  18.518  0.00  0.00    +0.000 C 
ATOM     18  C   UNL     1       3.533   3.182  19.994  0.00  0.00    +0.000 C 
ATOM     19  C   UNL     1       2.203   3.567  18.214  0.00  0.00    +0.000 C 
ATOM     20  H   UNL     1       7.635   3.673  15.405  0.00  0.00    +0.000 HD
ATOM     21  H   UNL     1       8.197   5.120  14.780  0.00  0.00    +0.000 HD
ENDBRANCH   4   7
BRANCH   1  25
ATOM     22  C   UNL     1      -0.521  11.438  20.548  0.00  0.00    +0.000 C 
ATOM     23  C   UNL     1      -1.134  10.837  19.257  0.00  0.00    +0.000 C 
ATOM     24  C   UNL     1      -0.232   9.765  18.642  0.00  0.00    +0.000 C 
ATOM     25  C   UNL     1       1.052   9.612  19.466  0.00  0.00    +0.000 C 
ATOM     26  C   UNL     1       0.649   9.230  20.925  0.00  0.00    +0.000 C 
ATOM     27  C   UNL     1      -0.269  10.274  21.533  0.00  0.00    +0.000 C 
ATOM     28  C   UNL     1       1.760  10.988  19.487  0.00  0.00    +0.000 C 
ATOM     29  C   UNL     1       0.859  12.041  20.148  0.00  0.00    +0.000 C 
BRANCH  22  31
ATOM     30  C   UNL     1      -2.900  12.453  20.592  0.00  0.00    +0.000 C 
ATOM     31  C   UNL     1      -1.474  12.503  21.161  0.00  0.00    +0.000 C 
BRANCH  31  32
ATOM     32  C   UNL     1      -1.547  12.396  22.683  0.00  0.00    +0.000 C 
ATOM     33  O   UNL     1      -2.427  11.817  23.298  0.00  0.00    +0.000 OA
BRANCH  32  34
ATOM     34  O   UNL     1      -0.525  13.028  23.313  0.00  0.00    +0.000 OA
ATOM     35  H   UNL     1       0.128  13.450  22.719  0.00  0.00    +0.000 HD
ENDBRANCH  32  34
ENDBRANCH  31  32
ENDBRANCH  22  31
ENDBRANCH   1  25
TORSDOF 5
ENDMDL
MODEL 5
REMARK VINA RESULT:      -9.1      1.794      3.342
REMARK  Name = 
REMARK  8 active torsions:
REMARK  status: ('A' for Active; 'I' for Inactive)
REMARK    1  A    between atoms: C_1  and  C_2
REMARK    2  A    between atoms: C_2  and  C_3
REMARK    3  A    between atoms: C_2  and  C_6
REMARK    4  A    between atoms: C_3  and  O_5
REMARK    5  A    between atoms: C_9  and  C_10
REMARK    6  A    between atoms: C_13  and  C_14
REMARK    7  A    between atoms: C_24  and  C_25
REMARK    8  A    between atoms: C_24  and  C_26
REMARK                            x       y       z     vdW  Elec       q    Type
REMARK                         _______ _______ _______ _____ _____    ______ ____
ROOT
ATOM      1  C   UNL     1       1.963   8.424  19.063  0.00  0.00    +0.000 A 
ATOM      2  C   UNL     1       2.625   8.469  17.820  0.00  0.00    +0.000 A 
ATOM      3  C   UNL     1       3.231   7.326  17.294  0.00  0.00    +0.000 A 
ATOM      4  C   UNL     1       3.149   6.145  18.015  0.00  0.00    +0.000 A 
ATOM      5  C   UNL     1       2.605   6.156  19.304  0.00  0.00    +0.000 A 
ATOM      6  C   UNL     1       2.032   7.271  19.827  0.00  0.00    +0.000 A 
ENDROOT
BRANCH   4   7
ATOM      7  C   UNL     1       3.769   4.848  17.525  0.00  0.00    +0.000 C 
ATOM      8  N   UNL     1       4.511   4.819  16.447  0.00  0.00    +0.000 NA
ATOM      9  C   UNL     1       5.871   4.807  16.914  0.00  0.00    +0.000 A 
ATOM     10  C   UNL     1       6.884   5.376  16.163  0.00  0.00    +0.000 A 
ATOM     11  N   UNL     1       7.420   4.707  15.054  0.00  0.00    +0.000 N 
ATOM     12  N   UNL     1       7.471   6.525  16.519  0.00  0.00    +0.000 NA
ATOM     13  C   UNL     1       7.168   6.956  17.750  0.00  0.00    +0.000 A 
ATOM     14  N   UNL     1       6.563   6.226  18.704  0.00  0.00    +0.000 NA
ATOM     15  C   UNL     1       5.991   5.087  18.266  0.00  0.00    +0.000 A 
ATOM     16  O   UNL     1       4.958   4.580  19.087  0.00  0.00    +0.000 OA
ATOM     17  C   UNL     1       3.897   3.598  18.466  0.00  0.00    +0.000 C 
ATOM     18  C   UNL     1       3.618   3.088  19.930  0.00  0.00    +0.000 C 
ATOM     19  C   UNL     1       2.275   3.497  18.165  0.00  0.00    +0.000 C 
ATOM     20  H   UNL     1       7.695   3.770  15.342  0.00  0.00    +0.000 HD
ATOM     21  H   UNL     1       8.230   5.243  14.755  0.00  0.00    +0.000 HD
ENDBRANCH   4   7
BRANCH   1  25
ATOM     22  C   UNL     1      -0.564  11.240  20.754  0.00  0.00    +0.000 C 
ATOM     23  C   UNL     1      -1.142  10.725  19.410  0.00  0.00    +0.000 C 
ATOM     24  C   UNL     1      -0.224   9.694  18.752  0.00  0.00    +0.000 C 
ATOM     25  C   UNL     1       1.037   9.485  19.599  0.00  0.00    +0.000 C 
ATOM     26  C   UNL     1       0.595   9.010  21.018  0.00  0.00    +0.000 C 
ATOM     27  C   UNL     1      -0.339  10.014  21.668  0.00  0.00    +0.000 C 
ATOM     28  C   UNL     1       1.745  10.855  19.728  0.00  0.00    +0.000 C 
ATOM     29  C   UNL     1       0.827  11.864  20.431  0.00  0.00    +0.000 C 
BRANCH  22  31
ATOM     30  C   UNL     1      -0.818  13.340  22.244  0.00  0.00    +0.000 C 
ATOM     31  C   UNL     1      -1.532  12.266  21.409  0.00  0.00    +0.000 C 
BRANCH  31  32
ATOM     32  C   UNL     1      -2.418  12.956  20.373  0.00  0.00    +0.000 C 
ATOM     33  O   UNL     1      -3.563  12.631  20.109  0.00  0.00    +0.000 OA
BRANCH  32  34
ATOM     34  O   UNL     1      -1.801  13.988  19.744  0.00  0.00    +0.000 OA
ATOM     35  H   UNL     1      -1.503  14.710  20.333  0.00  0.00    +0.000 HD
ENDBRANCH  32  34
ENDBRANCH  31  32
ENDBRANCH  22  31
ENDBRANCH   1  25
TORSDOF 5
ENDMDL
MODEL 6
REMARK VINA RESULT:      -9.1      1.965      3.606
REMARK  Name = 
REMARK  8 active torsions:
REMARK  status: ('A' for Active; 'I' for Inactive)
REMARK    1  A    between atoms: C_1  and  C_2
REMARK    2  A    between atoms: C_2  and  C_3
REMARK    3  A    between atoms: C_2  and  C_6
REMARK    4  A    between atoms: C_3  and  O_5
REMARK    5  A    between atoms: C_9  and  C_10
REMARK    6  A    between atoms: C_13  and  C_14
REMARK    7  A    between atoms: C_24  and  C_25
REMARK    8  A    between atoms: C_24  and  C_26
REMARK                            x       y       z     vdW  Elec       q    Type
REMARK                         _______ _______ _______ _____ _____    ______ ____
ROOT
ATOM      1  C   UNL     1       1.967   8.512  19.149  0.00  0.00    +0.000 A 
ATOM      2  C   UNL     1       2.585   8.542  17.883  0.00  0.00    +0.000 A 
ATOM      3  C   UNL     1       3.149   7.386  17.339  0.00  0.00    +0.000 A 
ATOM      4  C   UNL     1       3.068   6.208  18.066  0.00  0.00    +0.000 A 
ATOM      5  C   UNL     1       2.569   6.233  19.373  0.00  0.00    +0.000 A 
ATOM      6  C   UNL     1       2.038   7.360  19.913  0.00  0.00    +0.000 A 
ENDROOT
BRANCH   4   7
ATOM      7  C   UNL     1       3.643   4.897  17.558  0.00  0.00    +0.000 C 
ATOM      8  N   UNL     1       4.392   4.860  16.486  0.00  0.00    +0.000 NA
ATOM      9  C   UNL     1       5.747   4.788  16.962  0.00  0.00    +0.000 A 
ATOM     10  C   UNL     1       6.787   5.331  16.229  0.00  0.00    +0.000 A 
ATOM     11  N   UNL     1       7.307   4.663  15.114  0.00  0.00    +0.000 N 
ATOM     12  N   UNL     1       7.414   6.452  16.610  0.00  0.00    +0.000 NA
ATOM     13  C   UNL     1       7.117   6.872  17.847  0.00  0.00    +0.000 A 
ATOM     14  N   UNL     1       6.477   6.149  18.783  0.00  0.00    +0.000 NA
ATOM     15  C   UNL     1       5.866   5.040  18.320  0.00  0.00    +0.000 A 
ATOM     16  O   UNL     1       4.808   4.558  19.124  0.00  0.00    +0.000 OA
ATOM     17  C   UNL     1       3.717   3.627  18.477  0.00  0.00    +0.000 C 
ATOM     18  C   UNL     1       3.406   3.102  19.930  0.00  0.00    +0.000 C 
ATOM     19  C   UNL     1       2.095   3.592  18.162  0.00  0.00    +0.000 C 
ATOM     20  H   UNL     1       7.545   3.711  15.387  0.00  0.00    +0.000 HD
ATOM     21  H   UNL     1       8.139   5.173  14.830  0.00  0.00    +0.000 HD
ENDBRANCH   4   7
BRANCH   1  25
ATOM     22  C   UNL     1      -0.641  11.411  20.555  0.00  0.00    +0.000 C 
ATOM     23  C   UNL     1       0.759  12.021  20.284  0.00  0.00    +0.000 C 
ATOM     24  C   UNL     1       1.750  10.972  19.778  0.00  0.00    +0.000 C 
ATOM     25  C   UNL     1       1.082   9.594  19.714  0.00  0.00    +0.000 C 
ATOM     26  C   UNL     1      -0.151   9.696  18.764  0.00  0.00    +0.000 C 
ATOM     27  C   UNL     1      -1.128  10.754  19.243  0.00  0.00    +0.000 C 
ATOM     28  C   UNL     1       0.589   9.247  21.140  0.00  0.00    +0.000 C 
ATOM     29  C   UNL     1      -0.439  10.284  21.613  0.00  0.00    +0.000 C 
BRANCH  22  31
ATOM     30  C   UNL     1      -2.984  12.481  20.316  0.00  0.00    +0.000 C 
ATOM     31  C   UNL     1      -1.630  12.506  21.042  0.00  0.00    +0.000 C 
BRANCH  31  32
ATOM     32  C   UNL     1      -1.878  12.423  22.548  0.00  0.00    +0.000 C 
ATOM     33  O   UNL     1      -2.858  11.914  23.065  0.00  0.00    +0.000 OA
BRANCH  32  34
ATOM     34  O   UNL     1      -0.890  12.992  23.284  0.00  0.00    +0.000 OA
ATOM     35  H   UNL     1      -0.000  12.610  23.144  0.00  0.00    +0.000 HD
ENDBRANCH  32  34
ENDBRANCH  31  32
ENDBRANCH  22  31
ENDBRANCH   1  25
TORSDOF 5
ENDMDL
MODEL 7
REMARK VINA RESULT:      -9.1      1.962      3.580
REMARK  Name = 
REMARK  8 active torsions:
REMARK  status: ('A' for Active; 'I' for Inactive)
REMARK    1  A    between atoms: C_1  and  C_2
REMARK    2  A    between atoms: C_2  and  C_3
REMARK    3  A    between atoms: C_2  and  C_6
REMARK    4  A    between atoms: C_3  and  O_5
REMARK    5  A    between atoms: C_9  and  C_10
REMARK    6  A    between atoms: C_13  and  C_14
REMARK    7  A    between atoms: C_24  and  C_25
REMARK    8  A    between atoms: C_24  and  C_26
REMARK                            x       y       z     vdW  Elec       q    Type
REMARK                         _______ _______ _______ _____ _____    ______ ____
ROOT
ATOM      1  C   UNL     1       1.932   8.351  19.087  0.00  0.00    +0.000 A 
ATOM      2  C   UNL     1       2.584   8.421  17.840  0.00  0.00    +0.000 A 
ATOM      3  C   UNL     1       3.205   7.294  17.297  0.00  0.00    +0.000 A 
ATOM      4  C   UNL     1       3.147   6.104  18.006  0.00  0.00    +0.000 A 
ATOM      5  C   UNL     1       2.612   6.092  19.298  0.00  0.00    +0.000 A 
ATOM      6  C   UNL     1       2.025   7.191  19.838  0.00  0.00    +0.000 A 
ENDROOT
BRANCH   4   7
ATOM      7  C   UNL     1       3.784   4.822  17.497  0.00  0.00    +0.000 C 
ATOM      8  N   UNL     1       4.538   4.822  16.428  0.00  0.00    +0.000 NA
ATOM      9  C   UNL     1       5.893   4.812  16.909  0.00  0.00    +0.000 A 
ATOM     10  C   UNL     1       6.909   5.403  16.182  0.00  0.00    +0.000 A 
ATOM     11  N   UNL     1       7.464   4.762  15.067  0.00  0.00    +0.000 N 
ATOM     12  N   UNL     1       7.483   6.550  16.568  0.00  0.00    +0.000 NA
ATOM     13  C   UNL     1       7.162   6.954  17.804  0.00  0.00    +0.000 A 
ATOM     14  N   UNL     1       6.552   6.199  18.736  0.00  0.00    +0.000 NA
ATOM     15  C   UNL     1       5.995   5.065  18.268  0.00  0.00    +0.000 A 
ATOM     16  O   UNL     1       4.957   4.533  19.067  0.00  0.00    +0.000 OA
ATOM     17  C   UNL     1       3.912   3.555  18.414  0.00  0.00    +0.000 C 
ATOM     18  C   UNL     1       3.621   3.013  19.864  0.00  0.00    +0.000 C 
ATOM     19  C   UNL     1       2.295   3.446  18.092  0.00  0.00    +0.000 C 
ATOM     20  H   UNL     1       7.744   3.822  15.339  0.00  0.00    +0.000 HD
ATOM     21  H   UNL     1       8.273   5.311  14.788  0.00  0.00    +0.000 HD
ENDBRANCH   4   7
BRANCH   1  25
ATOM     22  C   UNL     1      -0.488  11.382  20.548  0.00  0.00    +0.000 C 
ATOM     23  C   UNL     1      -0.423  10.203  21.553  0.00  0.00    +0.000 C 
ATOM     24  C   UNL     1       0.452   9.060  21.036  0.00  0.00    +0.000 C 
ATOM     25  C   UNL     1       0.994   9.392  19.641  0.00  0.00    +0.000 C 
ATOM     26  C   UNL     1       1.812  10.716  19.741  0.00  0.00    +0.000 C 
ATOM     27  C   UNL     1       0.960  11.851  20.279  0.00  0.00    +0.000 C 
ATOM     28  C   UNL     1      -0.222   9.623  18.711  0.00  0.00    +0.000 C 
ATOM     29  C   UNL     1      -1.063  10.803  19.219  0.00  0.00    +0.000 C 
BRANCH  22  31
ATOM     30  C   UNL     1      -2.776  12.590  20.512  0.00  0.00    +0.000 C 
ATOM     31  C   UNL     1      -1.363  12.536  21.114  0.00  0.00    +0.000 C 
BRANCH  31  32
ATOM     32  C   UNL     1      -1.479  12.470  22.636  0.00  0.00    +0.000 C 
ATOM     33  O   UNL     1      -2.393  11.936  23.242  0.00  0.00    +0.000 OA
BRANCH  32  34
ATOM     34  O   UNL     1      -0.453  13.084  23.277  0.00  0.00    +0.000 OA
ATOM     35  H   UNL     1       0.341  12.528  23.412  0.00  0.00    +0.000 HD
ENDBRANCH  32  34
ENDBRANCH  31  32
ENDBRANCH  22  31
ENDBRANCH   1  25
TORSDOF 5
ENDMDL
MODEL 8
REMARK VINA RESULT:      -9.1      1.758      3.515
REMARK  Name = 
REMARK  8 active torsions:
REMARK  status: ('A' for Active; 'I' for Inactive)
REMARK    1  A    between atoms: C_1  and  C_2
REMARK    2  A    between atoms: C_2  and  C_3
REMARK    3  A    between atoms: C_2  and  C_6
REMARK    4  A    between atoms: C_3  and  O_5
REMARK    5  A    between atoms: C_9  and  C_10
REMARK    6  A    between atoms: C_13  and  C_14
REMARK    7  A    between atoms: C_24  and  C_25
REMARK    8  A    between atoms: C_24  and  C_26
REMARK                            x       y       z     vdW  Elec       q    Type
REMARK                         _______ _______ _______ _____ _____    ______ ____
ROOT
ATOM      1  C   UNL     1       1.999   8.268  19.288  0.00  0.00    +0.000 A 
ATOM      2  C   UNL     1       2.619   8.375  18.027  0.00  0.00    +0.000 A 
ATOM      3  C   UNL     1       3.205   7.259  17.425  0.00  0.00    +0.000 A 
ATOM      4  C   UNL     1       3.144   6.044  18.089  0.00  0.00    +0.000 A 
ATOM      5  C   UNL     1       2.643   5.991  19.394  0.00  0.00    +0.000 A 
ATOM      6  C   UNL     1       2.090   7.079  19.991  0.00  0.00    +0.000 A 
ENDROOT
BRANCH   4   7
ATOM      7  C   UNL     1       3.744   4.772  17.515  0.00  0.00    +0.000 C 
ATOM      8  N   UNL     1       4.483   4.802  16.436  0.00  0.00    +0.000 NA
ATOM      9  C   UNL     1       5.844   4.740  16.897  0.00  0.00    +0.000 A 
ATOM     10  C   UNL     1       6.863   5.341  16.181  0.00  0.00    +0.000 A 
ATOM     11  N   UNL     1       7.388   4.737  15.031  0.00  0.00    +0.000 N 
ATOM     12  N   UNL     1       7.468   6.456  16.609  0.00  0.00    +0.000 NA
ATOM     13  C   UNL     1       7.174   6.811  17.866  0.00  0.00    +0.000 A 
ATOM     14  N   UNL     1       6.560   6.030  18.773  0.00  0.00    +0.000 NA
ATOM     15  C   UNL     1       5.971   4.930  18.264  0.00  0.00    +0.000 A 
ATOM     16  O   UNL     1       4.932   4.387  19.053  0.00  0.00    +0.000 OA
ATOM     17  C   UNL     1       3.855   3.462  18.373  0.00  0.00    +0.000 C 
ATOM     18  C   UNL     1       3.571   2.863  19.802  0.00  0.00    +0.000 C 
ATOM     19  C   UNL     1       2.232   3.404  18.071  0.00  0.00    +0.000 C 
ATOM     20  H   UNL     1       7.650   3.780  15.257  0.00  0.00    +0.000 HD
ATOM     21  H   UNL     1       8.205   5.279  14.764  0.00  0.00    +0.000 HD
ENDBRANCH   4   7
BRANCH   1  25
ATOM     22  C   UNL     1      -0.652  11.065  20.815  0.00  0.00    +0.000 C 
ATOM     23  C   UNL     1       0.786  11.644  20.768  0.00  0.00    +0.000 C 
ATOM     24  C   UNL     1       1.793  10.630  20.222  0.00  0.00    +0.000 C 
ATOM     25  C   UNL     1       1.094   9.302  19.906  0.00  0.00    +0.000 C 
ATOM     26  C   UNL     1      -0.032   9.583  18.863  0.00  0.00    +0.000 C 
ATOM     27  C   UNL     1      -1.021  10.610  19.384  0.00  0.00    +0.000 C 
ATOM     28  C   UNL     1       0.447   8.792  21.217  0.00  0.00    +0.000 C 
ATOM     29  C   UNL     1      -0.593   9.800  21.724  0.00  0.00    +0.000 C 
BRANCH  22  31
ATOM     30  C   UNL     1      -1.167  12.849  22.616  0.00  0.00    +0.000 C 
ATOM     31  C   UNL     1      -1.652  12.128  21.348  0.00  0.00    +0.000 C 
BRANCH  31  32
ATOM     32  C   UNL     1      -1.994  13.174  20.288  0.00  0.00    +0.000 C 
ATOM     33  O   UNL     1      -1.259  14.086  19.948  0.00  0.00    +0.000 OA
BRANCH  32  34
ATOM     34  O   UNL     1      -3.226  13.004  19.747  0.00  0.00    +0.000 OA
ATOM     35  H   UNL     1      -3.732  12.246  20.103  0.00  0.00    +0.000 HD
ENDBRANCH  32  34
ENDBRANCH  31  32
ENDBRANCH  22  31
ENDBRANCH   1  25
TORSDOF 5
ENDMDL
MODEL 9
REMARK VINA RESULT:      -9.1      1.957      3.611
REMARK  Name = 
REMARK  8 active torsions:
REMARK  status: ('A' for Active; 'I' for Inactive)
REMARK    1  A    between atoms: C_1  and  C_2
REMARK    2  A    between atoms: C_2  and  C_3
REMARK    3  A    between atoms: C_2  and  C_6
REMARK    4  A    between atoms: C_3  and  O_5
REMARK    5  A    between atoms: C_9  and  C_10
REMARK    6  A    between atoms: C_13  and  C_14
REMARK    7  A    between atoms: C_24  and  C_25
REMARK    8  A    between atoms: C_24  and  C_26
REMARK                            x       y       z     vdW  Elec       q    Type
REMARK                         _______ _______ _______ _____ _____    ______ ____
ROOT
ATOM      1  C   UNL     1       1.512   8.351  19.936  0.00  0.00    +0.000 A 
ATOM      2  C   UNL     1       2.085   8.178  18.661  0.00  0.00    +0.000 A 
ATOM      3  C   UNL     1       2.468   6.909  18.218  0.00  0.00    +0.000 A 
ATOM      4  C   UNL     1       2.252   5.826  19.056  0.00  0.00    +0.000 A 
ATOM      5  C   UNL     1       1.807   6.040  20.365  0.00  0.00    +0.000 A 
ATOM      6  C   UNL     1       1.452   7.274  20.806  0.00  0.00    +0.000 A 
ENDROOT
BRANCH   4   7
ATOM      7  C   UNL     1       2.626   4.407  18.664  0.00  0.00    +0.000 C 
ATOM      8  N   UNL     1       3.249   4.160  17.540  0.00  0.00    +0.000 NA
ATOM      9  C   UNL     1       4.631   3.982  17.894  0.00  0.00    +0.000 A 
ATOM     10  C   UNL     1       5.639   4.311  17.005  0.00  0.00    +0.000 A 
ATOM     11  N   UNL     1       5.963   3.463  15.938  0.00  0.00    +0.000 N 
ATOM     12  N   UNL     1       6.419   5.384  17.184  0.00  0.00    +0.000 NA
ATOM     13  C   UNL     1       6.303   5.974  18.381  0.00  0.00    +0.000 A 
ATOM     14  N   UNL     1       5.692   5.443  19.455  0.00  0.00    +0.000 NA
ATOM     15  C   UNL     1       4.920   4.369  19.193  0.00  0.00    +0.000 A 
ATOM     16  O   UNL     1       3.909   4.111  20.145  0.00  0.00    +0.000 OA
ATOM     17  C   UNL     1       2.661   3.250  19.723  0.00  0.00    +0.000 C 
ATOM     18  C   UNL     1       2.453   2.933  21.252  0.00  0.00    +0.000 C 
ATOM     19  C   UNL     1       1.020   3.373  19.567  0.00  0.00    +0.000 C 
ATOM     20  H   UNL     1       6.125   2.527  16.304  0.00  0.00    +0.000 HD
ATOM     21  H   UNL     1       6.810   3.835  15.517  0.00  0.00    +0.000 HD
ENDBRANCH   4   7
BRANCH   1  25
ATOM     22  C   UNL     1      -0.624  11.705  21.105  0.00  0.00    +0.000 C 
ATOM     23  C   UNL     1       0.853  12.074  20.809  0.00  0.00    +0.000 C 
ATOM     24  C   UNL     1       1.673  10.853  20.389  0.00  0.00    +0.000 C 
ATOM     25  C   UNL     1       0.803   9.591  20.413  0.00  0.00    +0.000 C 
ATOM     26  C   UNL     1      -0.400   9.813  19.444  0.00  0.00    +0.000 C 
ATOM     27  C   UNL     1      -1.204  11.039  19.836  0.00  0.00    +0.000 C 
ATOM     28  C   UNL     1       0.260   9.427  21.854  0.00  0.00    +0.000 C 
ATOM     29  C   UNL     1      -0.598  10.639  22.242  0.00  0.00    +0.000 C 
BRANCH  22  31
ATOM     30  C   UNL     1      -2.771  13.104  20.757  0.00  0.00    +0.000 C 
ATOM     31  C   UNL     1      -1.434  12.970  21.502  0.00  0.00    +0.000 C 
BRANCH  31  32
ATOM     32  C   UNL     1      -1.702  13.028  23.005  0.00  0.00    +0.000 C 
ATOM     33  O   UNL     1      -2.671  12.536  23.560  0.00  0.00    +0.000 OA
BRANCH  32  34
ATOM     34  O   UNL     1      -0.746  13.703  23.693  0.00  0.00    +0.000 OA
ATOM     35  H   UNL     1       0.169  13.392  23.539  0.00  0.00    +0.000 HD
ENDBRANCH  32  34
ENDBRANCH  31  32
ENDBRANCH  22  31
ENDBRANCH   1  25
TORSDOF 5
ENDMDL
