MODEL 1
REMARK VINA RESULT:      -7.2      0.000      0.000
REMARK  Name = 
REMARK  4 active torsions:
REMARK  status: ('A' for Active; 'I' for Inactive)
REMARK    1  A    between atoms: C_1  and  C_2
REMARK    2  A    between atoms: C_2  and  C_3
REMARK    3  A    between atoms: C_2  and  C_16
REMARK    4  A    between atoms: C_3  and  C_4
REMARK                            x       y       z     vdW  Elec       q    Type
REMARK                         _______ _______ _______ _____ _____    ______ ____
ROOT
ATOM      1  C   UNL     1       2.339   6.130  18.119  0.00  0.00    +0.000 C 
ATOM      2  O   UNL     1       1.799   7.205  17.869  0.00  0.00    +0.000 OA
ATOM      3  N   UNL     1       3.722   5.946  18.003  0.00  0.00    +0.000 N 
ATOM      4  C   UNL     1       4.422   4.684  18.243  0.00  0.00    +0.000 C 
ATOM      5  C   UNL     1       4.478   3.766  17.027  0.00  0.00    +0.000 C 
ATOM      6  C   UNL     1       4.976   4.390  15.723  0.00  0.00    +0.000 C 
ATOM      7  N   UNL     1       5.802   5.583  15.879  0.00  0.00    +0.000 N 
ATOM      8  C   UNL     1       7.165   5.603  16.035  0.00  0.00    +0.000 C 
ATOM      9  N   UNL     1       7.810   4.411  15.997  0.00  0.00    +0.000 N 
ATOM     10  O   UNL     1       7.823   6.620  16.237  0.00  0.00    +0.000 OA
ATOM     11  C   UNL     1       5.065   6.841  16.075  0.00  0.00    +0.000 C 
ATOM     12  C   UNL     1       4.572   7.048  17.518  0.00  0.00    +0.000 C 
ATOM     13  H   UNL     1       7.460   3.669  15.416  0.00  0.00    +0.000 HD
ATOM     14  H   UNL     1       8.814   4.515  15.976  0.00  0.00    +0.000 HD
ENDROOT
BRANCH   1  15
ATOM     15  C   UNL     1       1.532   4.896  18.538  0.00  0.00    +0.000 C 
BRANCH  15  17
ATOM     16  C   UNL     1       2.011   5.549  20.937  0.00  0.00    +0.000 C 
ATOM     17  C   UNL     1       1.081   4.749  20.009  0.00  0.00    +0.000 C 
BRANCH  17  18
ATOM     18  C   UNL     1       0.861   3.280  20.491  0.00  0.00    +0.000 C 
ATOM     19  C   UNL     1       0.634   2.291  19.321  0.00  0.00    +0.000 C 
ATOM     20  C   UNL     1       1.903   1.973  18.527  0.00  0.00    +0.000 C 
ATOM     21  C   UNL     1       3.039   1.488  19.423  0.00  0.00    +0.000 C 
ATOM     22  C   UNL     1       3.283   2.429  20.598  0.00  0.00    +0.000 C 
ATOM     23  C   UNL     1       1.995   2.712  21.371  0.00  0.00    +0.000 C 
ENDBRANCH  17  18
ENDBRANCH  15  17
ENDBRANCH   1  15
TORSDOF 3
ENDMDL
MODEL 2
REMARK VINA RESULT:      -7.1      3.918      6.358
REMARK  Name = 
REMARK  4 active torsions:
REMARK  status: ('A' for Active; 'I' for Inactive)
REMARK    1  A    between atoms: C_1  and  C_2
REMARK    2  A    between atoms: C_2  and  C_3
REMARK    3  A    between atoms: C_2  and  C_16
REMARK    4  A    between atoms: C_3  and  C_4
REMARK                            x       y       z     vdW  Elec       q    Type
REMARK                         _______ _______ _______ _____ _____    ______ ____
ROOT
ATOM      1  C   UNL     1       1.921   7.035  19.914  0.00  0.00    +0.000 C 
ATOM      2  O   UNL     1       1.733   6.172  20.767  0.00  0.00    +0.000 OA
ATOM      3  N   UNL     1       1.748   8.399  20.182  0.00  0.00    +0.000 N 
ATOM      4  C   UNL     1       1.912   9.473  19.203  0.00  0.00    +0.000 C 
ATOM      5  C   UNL     1       0.659   9.760  18.383  0.00  0.00    +0.000 C 
ATOM      6  C   UNL     1      -0.636   9.973  19.167  0.00  0.00    +0.000 C 
ATOM      7  N   UNL     1      -0.462  10.385  20.556  0.00  0.00    +0.000 N 
ATOM      8  C   UNL     1      -0.355  11.677  21.005  0.00  0.00    +0.000 C 
ATOM      9  N   UNL     1      -0.463  12.664  20.081  0.00  0.00    +0.000 N 
ATOM     10  O   UNL     1      -0.136  11.987  22.173  0.00  0.00    +0.000 OA
ATOM     11  C   UNL     1      -0.190   9.297  21.509  0.00  0.00    +0.000 C 
ATOM     12  C   UNL     1       1.277   8.832  21.510  0.00  0.00    +0.000 C 
ATOM     13  H   UNL     1      -1.061  12.540  19.282  0.00  0.00    +0.000 HD
ATOM     14  H   UNL     1      -0.516  13.582  20.500  0.00  0.00    +0.000 HD
ENDROOT
BRANCH   1  15
ATOM     15  C   UNL     1       2.319   6.682  18.476  0.00  0.00    +0.000 C 
BRANCH  15  17
ATOM     16  C   UNL     1       4.680   6.232  17.682  0.00  0.00    +0.000 C 
ATOM     17  C   UNL     1       3.393   5.596  18.232  0.00  0.00    +0.000 C 
BRANCH  17  18
ATOM     18  C   UNL     1       2.915   4.370  17.392  0.00  0.00    +0.000 C 
ATOM     19  C   UNL     1       3.818   3.125  17.578  0.00  0.00    +0.000 C 
ATOM     20  C   UNL     1       3.637   2.429  18.929  0.00  0.00    +0.000 C 
ATOM     21  C   UNL     1       2.179   2.077  19.207  0.00  0.00    +0.000 C 
ATOM     22  C   UNL     1       1.255   3.275  19.018  0.00  0.00    +0.000 C 
ATOM     23  C   UNL     1       1.457   3.935  17.654  0.00  0.00    +0.000 C 
ENDBRANCH  17  18
ENDBRANCH  15  17
ENDBRANCH   1  15
TORSDOF 3
ENDMDL
MODEL 3
REMARK VINA RESULT:      -7.1      3.940      6.171
REMARK  Name = 
REMARK  4 active torsions:
REMARK  status: ('A' for Active; 'I' for Inactive)
REMARK    1  A    between atoms: C_1  and  C_2
REMARK    2  A    between atoms: C_2  and  C_3
REMARK    3  A    between atoms: C_2  and  C_16
REMARK    4  A    between atoms: C_3  and  C_4
REMARK                            x       y       z     vdW  Elec       q    Type
REMARK                         _______ _______ _______ _____ _____    ______ ____
ROOT
ATOM      1  C   UNL     1       2.198   7.255  19.687  0.00  0.00    +0.000 C 
ATOM      2  O   UNL     1       2.494   8.075  18.822  0.00  0.00    +0.000 OA
ATOM      3  N   UNL     1       2.671   5.937  19.659  0.00  0.00    +0.000 N 
ATOM      4  C   UNL     1       2.323   4.901  20.631  0.00  0.00    +0.000 C 
ATOM      5  C   UNL     1       1.035   4.152  20.305  0.00  0.00    +0.000 C 
ATOM      6  C   UNL     1       0.913   3.589  18.889  0.00  0.00    +0.000 C 
ATOM      7  N   UNL     1       2.179   3.371  18.194  0.00  0.00    +0.000 N 
ATOM      8  C   UNL     1       2.934   2.227  18.239  0.00  0.00    +0.000 C 
ATOM      9  N   UNL     1       2.442   1.188  18.959  0.00  0.00    +0.000 N 
ATOM     10  O   UNL     1       4.032   2.102  17.702  0.00  0.00    +0.000 OA
ATOM     11  C   UNL     1       2.763   4.562  17.556  0.00  0.00    +0.000 C 
ATOM     12  C   UNL     1       3.511   5.482  18.537  0.00  0.00    +0.000 C 
ATOM     13  H   UNL     1       1.449   1.044  19.016  0.00  0.00    +0.000 HD
ATOM     14  H   UNL     1       2.978   0.341  18.831  0.00  0.00    +0.000 HD
ENDROOT
BRANCH   1  15
ATOM     15  C   UNL     1       1.254   7.602  20.844  0.00  0.00    +0.000 C 
BRANCH  15  17
ATOM     16  C   UNL     1       1.146   9.267  22.748  0.00  0.00    +0.000 C 
ATOM     17  C   UNL     1       1.035   9.084  21.225  0.00  0.00    +0.000 C 
BRANCH  17  18
ATOM     18  C   UNL     1      -0.252   9.739  20.628  0.00  0.00    +0.000 C 
ATOM     19  C   UNL     1      -0.668  11.032  21.370  0.00  0.00    +0.000 C 
ATOM     20  C   UNL     1       0.233  12.232  21.071  0.00  0.00    +0.000 C 
ATOM     21  C   UNL     1       0.366  12.495  19.574  0.00  0.00    +0.000 C 
ATOM     22  C   UNL     1       0.760  11.239  18.805  0.00  0.00    +0.000 C 
ATOM     23  C   UNL     1      -0.169  10.068  19.122  0.00  0.00    +0.000 C 
ENDBRANCH  17  18
ENDBRANCH  15  17
ENDBRANCH   1  15
TORSDOF 3
ENDMDL
MODEL 4
REMARK VINA RESULT:      -7.0      3.355      6.257
REMARK  Name = 
REMARK  4 active torsions:
REMARK  status: ('A' for Active; 'I' for Inactive)
REMARK    1  A    between atoms: C_1  and  C_2
REMARK    2  A    between atoms: C_2  and  C_3
REMARK    3  A    between atoms: C_2  and  C_16
REMARK    4  A    between atoms: C_3  and  C_4
REMARK                            x       y       z     vdW  Elec       q    Type
REMARK                         _______ _______ _______ _____ _____    ______ ____
ROOT
ATOM      1  C   UNL     1       2.062   6.107  19.521  0.00  0.00    +0.000 C 
ATOM      2  O   UNL     1       1.593   5.398  20.407  0.00  0.00    +0.000 OA
ATOM      3  N   UNL     1       2.210   7.491  19.673  0.00  0.00    +0.000 N 
ATOM      4  C   UNL     1       2.720   8.397  18.644  0.00  0.00    +0.000 C 
ATOM      5  C   UNL     1       1.654   8.897  17.674  0.00  0.00    +0.000 C 
ATOM      6  C   UNL     1       0.388   9.486  18.295  0.00  0.00    +0.000 C 
ATOM      7  N   UNL     1       0.535   9.974  19.663  0.00  0.00    +0.000 N 
ATOM      8  C   UNL     1       0.918  11.240  20.028  0.00  0.00    +0.000 C 
ATOM      9  N   UNL     1       1.140  12.132  19.031  0.00  0.00    +0.000 N 
ATOM     10  O   UNL     1       1.103  11.598  21.189  0.00  0.00    +0.000 OA
ATOM     11  C   UNL     1       0.445   8.948  20.714  0.00  0.00    +0.000 C 
ATOM     12  C   UNL     1       1.745   8.148  20.907  0.00  0.00    +0.000 C 
ATOM     13  H   UNL     1       0.603  12.079  18.183  0.00  0.00    +0.000 HD
ATOM     14  H   UNL     1       1.279  13.071  19.376  0.00  0.00    +0.000 HD
ENDROOT
BRANCH   1  15
ATOM     15  C   UNL     1       2.486   5.534  18.164  0.00  0.00    +0.000 C 
BRANCH  15  17
ATOM     16  C   UNL     1       4.283   4.065  19.176  0.00  0.00    +0.000 C 
ATOM     17  C   UNL     1       3.917   4.974  17.991  0.00  0.00    +0.000 C 
BRANCH  17  18
ATOM     18  C   UNL     1       5.014   6.042  17.685  0.00  0.00    +0.000 C 
ATOM     19  C   UNL     1       6.445   5.542  18.003  0.00  0.00    +0.000 C 
ATOM     20  C   UNL     1       6.980   4.522  16.996  0.00  0.00    +0.000 C 
ATOM     21  C   UNL     1       6.899   5.031  15.560  0.00  0.00    +0.000 C 
ATOM     22  C   UNL     1       5.507   5.548  15.213  0.00  0.00    +0.000 C 
ATOM     23  C   UNL     1       5.014   6.571  16.235  0.00  0.00    +0.000 C 
ENDBRANCH  17  18
ENDBRANCH  15  17
ENDBRANCH   1  15
TORSDOF 3
ENDMDL
MODEL 5
REMARK VINA RESULT:      -6.9      4.286      6.556
REMARK  Name = 
REMARK  4 active torsions:
REMARK  status: ('A' for Active; 'I' for Inactive)
REMARK    1  A    between atoms: C_1  and  C_2
REMARK    2  A    between atoms: C_2  and  C_3
REMARK    3  A    between atoms: C_2  and  C_16
REMARK    4  A    between atoms: C_3  and  C_4
REMARK                            x       y       z     vdW  Elec       q    Type
REMARK                         _______ _______ _______ _____ _____    ______ ____
ROOT
ATOM      1  C   UNL     1       1.862   7.847  19.726  0.00  0.00    +0.000 C 
ATOM      2  O   UNL     1       1.882   7.150  20.736  0.00  0.00    +0.000 OA
ATOM      3  N   UNL     1       1.465   9.190  19.754  0.00  0.00    +0.000 N 
ATOM      4  C   UNL     1       1.377  10.062  18.583  0.00  0.00    +0.000 C 
ATOM      5  C   UNL     1       0.046   9.973  17.842  0.00  0.00    +0.000 C 
ATOM      6  C   UNL     1      -1.218  10.120  18.689  0.00  0.00    +0.000 C 
ATOM      7  N   UNL     1      -1.039  10.820  19.957  0.00  0.00    +0.000 N 
ATOM      8  C   UNL     1      -1.139  12.175  20.149  0.00  0.00    +0.000 C 
ATOM      9  N   UNL     1      -1.476  12.930  19.074  0.00  0.00    +0.000 N 
ATOM     10  O   UNL     1      -0.911  12.741  21.215  0.00  0.00    +0.000 OA
ATOM     11  C   UNL     1      -0.522  10.001  21.065  0.00  0.00    +0.000 C 
ATOM     12  C   UNL     1       1.003   9.792  21.016  0.00  0.00    +0.000 C 
ATOM     13  H   UNL     1      -2.086  12.554  18.369  0.00  0.00    +0.000 HD
ATOM     14  H   UNL     1      -1.667  13.890  19.319  0.00  0.00    +0.000 HD
ENDROOT
BRANCH   1  15
ATOM     15  C   UNL     1       2.232   7.288  18.347  0.00  0.00    +0.000 C 
BRANCH  15  17
ATOM     16  C   UNL     1       4.176   6.040  17.311  0.00  0.00    +0.000 C 
ATOM     17  C   UNL     1       2.964   5.930  18.252  0.00  0.00    +0.000 C 
BRANCH  17  18
ATOM     18  C   UNL     1       2.051   4.706  17.923  0.00  0.00    +0.000 C 
ATOM     19  C   UNL     1       2.816   3.555  17.225  0.00  0.00    +0.000 C 
ATOM     20  C   UNL     1       3.741   2.773  18.160  0.00  0.00    +0.000 C 
ATOM     21  C   UNL     1       3.010   2.256  19.395  0.00  0.00    +0.000 C 
ATOM     22  C   UNL     1       2.230   3.358  20.103  0.00  0.00    +0.000 C 
ATOM     23  C   UNL     1       1.311   4.108  19.139  0.00  0.00    +0.000 C 
ENDBRANCH  17  18
ENDBRANCH  15  17
ENDBRANCH   1  15
TORSDOF 3
ENDMDL
MODEL 6
REMARK VINA RESULT:      -6.8      4.476      6.601
REMARK  Name = 
REMARK  4 active torsions:
REMARK  status: ('A' for Active; 'I' for Inactive)
REMARK    1  A    between atoms: C_1  and  C_2
REMARK    2  A    between atoms: C_2  and  C_3
REMARK    3  A    between atoms: C_2  and  C_16
REMARK    4  A    between atoms: C_3  and  C_4
REMARK                            x       y       z     vdW  Elec       q    Type
REMARK                         _______ _______ _______ _____ _____    ______ ____
ROOT
ATOM      1  C   UNL     1       1.398   8.266  20.536  0.00  0.00    +0.000 C 
ATOM      2  O   UNL     1       1.335   8.118  21.753  0.00  0.00    +0.000 OA
ATOM      3  N   UNL     1       1.220   9.513  19.925  0.00  0.00    +0.000 N 
ATOM      4  C   UNL     1       1.239   9.750  18.481  0.00  0.00    +0.000 C 
ATOM      5  C   UNL     1      -0.109   9.534  17.800  0.00  0.00    +0.000 C 
ATOM      6  C   UNL     1      -1.309  10.247  18.422  0.00  0.00    +0.000 C 
ATOM      7  N   UNL     1      -0.987  11.417  19.234  0.00  0.00    +0.000 N 
ATOM      8  C   UNL     1      -0.865  12.704  18.777  0.00  0.00    +0.000 C 
ATOM      9  N   UNL     1      -1.107  12.920  17.460  0.00  0.00    +0.000 N 
ATOM     10  O   UNL     1      -0.521  13.655  19.475  0.00  0.00    +0.000 OA
ATOM     11  C   UNL     1      -0.576  11.131  20.618  0.00  0.00    +0.000 C 
ATOM     12  C   UNL     1       0.894  10.693  20.746  0.00  0.00    +0.000 C 
ATOM     13  H   UNL     1      -1.789  12.361  16.978  0.00  0.00    +0.000 HD
ATOM     14  H   UNL     1      -1.137  13.902  17.228  0.00  0.00    +0.000 HD
ENDROOT
BRANCH   1  15
ATOM     15  C   UNL     1       1.636   7.085  19.588  0.00  0.00    +0.000 C 
BRANCH  15  17
ATOM     16  C   UNL     1       3.483   6.897  17.865  0.00  0.00    +0.000 C 
ATOM     17  C   UNL     1       3.083   6.607  19.321  0.00  0.00    +0.000 C 
BRANCH  17  18
ATOM     18  C   UNL     1       3.383   5.136  19.751  0.00  0.00    +0.000 C 
ATOM     19  C   UNL     1       2.416   4.618  20.843  0.00  0.00    +0.000 C 
ATOM     20  C   UNL     1       1.009   4.312  20.326  0.00  0.00    +0.000 C 
ATOM     21  C   UNL     1       1.026   3.360  19.135  0.00  0.00    +0.000 C 
ATOM     22  C   UNL     1       1.982   3.827  18.042  0.00  0.00    +0.000 C 
ATOM     23  C   UNL     1       3.377   4.112  18.596  0.00  0.00    +0.000 C 
ENDBRANCH  17  18
ENDBRANCH  15  17
ENDBRANCH   1  15
TORSDOF 3
ENDMDL
MODEL 7
REMARK VINA RESULT:      -6.8      2.036      2.943
REMARK  Name = 
REMARK  4 active torsions:
REMARK  status: ('A' for Active; 'I' for Inactive)
REMARK    1  A    between atoms: C_1  and  C_2
REMARK    2  A    between atoms: C_2  and  C_3
REMARK    3  A    between atoms: C_2  and  C_16
REMARK    4  A    between atoms: C_3  and  C_4
REMARK                            x       y       z     vdW  Elec       q    Type
REMARK                         _______ _______ _______ _____ _____    ______ ____
ROOT
ATOM      1  C   UNL     1       4.311   4.228  16.602  0.00  0.00    +0.000 C 
ATOM      2  O   UNL     1       4.285   3.958  15.404  0.00  0.00    +0.000 OA
ATOM      3  N   UNL     1       4.947   5.374  17.094  0.00  0.00    +0.000 N 
ATOM      4  C   UNL     1       5.053   5.732  18.509  0.00  0.00    +0.000 C 
ATOM      5  C   UNL     1       6.247   5.102  19.219  0.00  0.00    +0.000 C 
ATOM      6  C   UNL     1       7.608   5.267  18.544  0.00  0.00    +0.000 C 
ATOM      7  N   UNL     1       7.713   6.395  17.622  0.00  0.00    +0.000 N 
ATOM      8  C   UNL     1       8.080   7.674  17.955  0.00  0.00    +0.000 C 
ATOM      9  N   UNL     1       8.419   7.905  19.248  0.00  0.00    +0.000 N 
ATOM     10  O   UNL     1       8.088   8.618  17.168  0.00  0.00    +0.000 OA
ATOM     11  C   UNL     1       7.190   6.155  16.268  0.00  0.00    +0.000 C 
ATOM     12  C   UNL     1       5.659   6.273  16.169  0.00  0.00    +0.000 C 
ATOM     13  H   UNL     1       8.863   7.182  19.786  0.00  0.00    +0.000 HD
ATOM     14  H   UNL     1       8.810   8.826  19.386  0.00  0.00    +0.000 HD
ENDROOT
BRANCH   1  15
ATOM     15  C   UNL     1       3.684   3.307  17.655  0.00  0.00    +0.000 C 
BRANCH  15  17
ATOM     16  C   UNL     1       1.466   4.527  17.653  0.00  0.00    +0.000 C 
ATOM     17  C   UNL     1       2.146   3.150  17.705  0.00  0.00    +0.000 C 
BRANCH  17  18
ATOM     18  C   UNL     1       1.610   2.251  18.864  0.00  0.00    +0.000 C 
ATOM     19  C   UNL     1       2.736   1.723  19.787  0.00  0.00    +0.000 C 
ATOM     20  C   UNL     1       3.321   2.789  20.716  0.00  0.00    +0.000 C 
ATOM     21  C   UNL     1       2.245   3.493  21.536  0.00  0.00    +0.000 C 
ATOM     22  C   UNL     1       1.108   4.014  20.663  0.00  0.00    +0.000 C 
ATOM     23  C   UNL     1       0.544   2.919  19.759  0.00  0.00    +0.000 C 
ENDBRANCH  17  18
ENDBRANCH  15  17
ENDBRANCH   1  15
TORSDOF 3
ENDMDL
MODEL 8
REMARK VINA RESULT:      -6.6      3.994      6.888
REMARK  Name = 
REMARK  4 active torsions:
REMARK  status: ('A' for Active; 'I' for Inactive)
REMARK    1  A    between atoms: C_1  and  C_2
REMARK    2  A    between atoms: C_2  and  C_3
REMARK    3  A    between atoms: C_2  and  C_16
REMARK    4  A    between atoms: C_3  and  C_4
REMARK                            x       y       z     vdW  Elec       q    Type
REMARK                         _______ _______ _______ _____ _____    ______ ____
ROOT
ATOM      1  C   UNL     1       1.848   7.263  19.673  0.00  0.00    +0.000 C 
ATOM      2  O   UNL     1       1.815   6.384  20.531  0.00  0.00    +0.000 OA
ATOM      3  N   UNL     1       1.648   8.614  19.982  0.00  0.00    +0.000 N 
ATOM      4  C   UNL     1       1.631   9.703  19.005  0.00  0.00    +0.000 C 
ATOM      5  C   UNL     1       0.270   9.935  18.359  0.00  0.00    +0.000 C 
ATOM      6  C   UNL     1      -0.921  10.078  19.307  0.00  0.00    +0.000 C 
ATOM      7  N   UNL     1      -0.586  10.487  20.668  0.00  0.00    +0.000 N 
ATOM      8  C   UNL     1      -0.483  11.779  21.117  0.00  0.00    +0.000 C 
ATOM      9  N   UNL     1      -0.758  12.767  20.230  0.00  0.00    +0.000 N 
ATOM     10  O   UNL     1      -0.128  12.090  22.252  0.00  0.00    +0.000 OA
ATOM     11  C   UNL     1      -0.141   9.406  21.562  0.00  0.00    +0.000 C 
ATOM     12  C   UNL     1       1.334   9.013  21.365  0.00  0.00    +0.000 C 
ATOM     13  H   UNL     1      -1.447  12.620  19.514  0.00  0.00    +0.000 HD
ATOM     14  H   UNL     1      -0.798  13.678  20.665  0.00  0.00    +0.000 HD
ENDROOT
BRANCH   1  15
ATOM     15  C   UNL     1       2.071   6.941  18.191  0.00  0.00    +0.000 C 
BRANCH  15  17
ATOM     16  C   UNL     1       1.920   4.422  18.395  0.00  0.00    +0.000 C 
ATOM     17  C   UNL     1       2.718   5.593  17.797  0.00  0.00    +0.000 C 
BRANCH  17  18
ATOM     18  C   UNL     1       4.251   5.487  18.076  0.00  0.00    +0.000 C 
ATOM     19  C   UNL     1       4.849   4.127  17.640  0.00  0.00    +0.000 C 
ATOM     20  C   UNL     1       4.987   3.972  16.124  0.00  0.00    +0.000 C 
ATOM     21  C   UNL     1       5.764   5.123  15.494  0.00  0.00    +0.000 C 
ATOM     22  C   UNL     1       5.215   6.483  15.913  0.00  0.00    +0.000 C 
ATOM     23  C   UNL     1       5.103   6.602  17.432  0.00  0.00    +0.000 C 
ENDBRANCH  17  18
ENDBRANCH  15  17
ENDBRANCH   1  15
TORSDOF 3
ENDMDL
MODEL 9
REMARK VINA RESULT:      -6.6      4.272      6.390
REMARK  Name = 
REMARK  4 active torsions:
REMARK  status: ('A' for Active; 'I' for Inactive)
REMARK    1  A    between atoms: C_1  and  C_2
REMARK    2  A    between atoms: C_2  and  C_3
REMARK    3  A    between atoms: C_2  and  C_16
REMARK    4  A    between atoms: C_3  and  C_4
REMARK                            x       y       z     vdW  Elec       q    Type
REMARK                         _______ _______ _______ _____ _____    ______ ____
ROOT
ATOM      1  C   UNL     1       1.675   7.952  20.095  0.00  0.00    +0.000 C 
ATOM      2  O   UNL     1       1.499   7.551  21.242  0.00  0.00    +0.000 OA
ATOM      3  N   UNL     1       1.415   9.277  19.720  0.00  0.00    +0.000 N 
ATOM      4  C   UNL     1       1.561   9.808  18.364  0.00  0.00    +0.000 C 
ATOM      5  C   UNL     1       0.330   9.610  17.486  0.00  0.00    +0.000 C 
ATOM      6  C   UNL     1      -1.008  10.060  18.073  0.00  0.00    +0.000 C 
ATOM      7  N   UNL     1      -0.917  11.062  19.132  0.00  0.00    +0.000 N 
ATOM      8  C   UNL     1      -0.902  12.422  18.953  0.00  0.00    +0.000 C 
ATOM      9  N   UNL     1      -1.025  12.882  17.683  0.00  0.00    +0.000 N 
ATOM     10  O   UNL     1      -0.751  13.237  19.861  0.00  0.00    +0.000 OA
ATOM     11  C   UNL     1      -0.625  10.537  20.475  0.00  0.00    +0.000 C 
ATOM     12  C   UNL     1       0.864  10.224  20.705  0.00  0.00    +0.000 C 
ATOM     13  H   UNL     1      -1.579  12.372  17.018  0.00  0.00    +0.000 HD
ATOM     14  H   UNL     1      -1.147  13.883  17.644  0.00  0.00    +0.000 HD
ENDROOT
BRANCH   1  15
ATOM     15  C   UNL     1       2.153   7.022  18.974  0.00  0.00    +0.000 C 
BRANCH  15  17
ATOM     16  C   UNL     1       4.290   6.195  17.897  0.00  0.00    +0.000 C 
ATOM     17  C   UNL     1       3.440   6.189  19.179  0.00  0.00    +0.000 C 
BRANCH  17  18
ATOM     18  C   UNL     1       3.216   4.754  19.752  0.00  0.00    +0.000 C 
ATOM     19  C   UNL     1       1.773   4.237  19.532  0.00  0.00    +0.000 C 
ATOM     20  C   UNL     1       1.473   3.841  18.084  0.00  0.00    +0.000 C 
ATOM     21  C   UNL     1       2.487   2.842  17.537  0.00  0.00    +0.000 C 
ATOM     22  C   UNL     1       3.924   3.308  17.750  0.00  0.00    +0.000 C 
ATOM     23  C   UNL     1       4.186   3.683  19.208  0.00  0.00    +0.000 C 
ENDBRANCH  17  18
ENDBRANCH  15  17
ENDBRANCH   1  15
TORSDOF 3
ENDMDL
