MODEL 1
REMARK VINA RESULT:      -8.4      0.000      0.000
REMARK  Name = 
REMARK  6 active torsions:
REMARK  status: ('A' for Active; 'I' for Inactive)
REMARK    1  A    between atoms: C_1  and  C_2
REMARK    2  A    between atoms: N_4  and  C_5
REMARK    3  A    between atoms: C_11  and  C_12
REMARK    4  A    between atoms: C_22  and  C_24
REMARK    5  A    between atoms: C_33  and  C_34
REMARK    6  A    between atoms: C_33  and  C_35
REMARK                            x       y       z     vdW  Elec       q    Type
REMARK                         _______ _______ _______ _____ _____    ______ ____
ROOT
ATOM      1  C   UNL     1      -2.805  10.371  16.254  0.00  0.00    +0.000 C 
ATOM      2  C   UNL     1      -2.478  10.567  17.742  0.00  0.00    +0.000 C 
ATOM      3  C   UNL     1      -0.900  10.647  17.838  0.00  0.00    +0.000 C 
ATOM      4  N   UNL     1      -0.287  11.067  19.124  0.00  0.00    +0.000 NA
ATOM      5  C   UNL     1      -0.893  12.368  19.447  0.00  0.00    +0.000 C 
ATOM      6  C   UNL     1      -0.489  13.130  20.716  0.00  0.00    +0.000 C 
ATOM      7  C   UNL     1      -2.414  12.301  19.478  0.00  0.00    +0.000 C 
ATOM      8  N   UNL     1      -3.190  11.685  18.431  0.00  0.00    +0.000 N 
ATOM      9  C   UNL     1      -4.614  11.611  18.549  0.00  0.00    +0.000 C 
ATOM     10  O   UNL     1      -5.274  10.967  17.725  0.00  0.00    +0.000 OA
ATOM     11  N   UNL     1      -5.260  12.186  19.673  0.00  0.00    +0.000 N 
ATOM     12  C   UNL     1      -4.720  13.197  20.634  0.00  0.00    +0.000 C 
ATOM     13  C   UNL     1      -5.675  13.162  21.718  0.00  0.00    +0.000 A 
ATOM     14  C   UNL     1      -5.690  13.435  23.083  0.00  0.00    +0.000 A 
ATOM     15  N   UNL     1      -4.737  14.105  23.825  0.00  0.00    +0.000 N 
ATOM     16  C   UNL     1      -3.927  15.113  23.336  0.00  0.00    +0.000 C 
ATOM     17  O   UNL     1      -3.916  15.541  22.184  0.00  0.00    +0.000 OA
ATOM     18  N   UNL     1      -6.740  12.815  23.642  0.00  0.00    +0.000 NA
ATOM     19  N   UNL     1      -7.384  12.203  22.604  0.00  0.00    +0.000 N 
ATOM     20  C   UNL     1      -6.706  12.329  21.444  0.00  0.00    +0.000 A 
ATOM     21  C   UNL     1      -6.690  11.750  20.064  0.00  0.00    +0.000 C 
ATOM     22  C   UNL     1      -7.792  12.421  19.246  0.00  0.00    +0.000 C 
ATOM     23  C   UNL     1      -6.853  10.227  20.065  0.00  0.00    +0.000 C 
ATOM     24  H   UNL     1      -4.750  13.935  24.823  0.00  0.00    +0.000 HD
ATOM     25  H   UNL     1      -8.242  11.699  22.803  0.00  0.00    +0.000 HD
ENDROOT
BRANCH   4  26
ATOM     26  C   UNL     1      -0.133   9.972  20.117  0.00  0.00    +0.000 C 
ATOM     27  C   UNL     1      -0.405  10.299  21.599  0.00  0.00    +0.000 C 
ATOM     28  C   UNL     1      -0.086   9.146  22.541  0.00  0.00    +0.000 C 
ATOM     29  O   UNL     1       1.220   8.639  22.303  0.00  0.00    +0.000 OA
ATOM     30  C   UNL     1       1.309   8.056  21.007  0.00  0.00    +0.000 C 
ATOM     31  C   UNL     1       1.144   9.124  19.937  0.00  0.00    +0.000 C 
ENDBRANCH   4  26
BRANCH  16  32
ATOM     32  C   UNL     1      -3.040  15.753  24.362  0.00  0.00    +0.000 A 
ATOM     33  C   UNL     1      -2.253  14.958  25.177  0.00  0.00    +0.000 A 
ATOM     34  C   UNL     1      -1.478  15.631  26.091  0.00  0.00    +0.000 A 
ATOM     35  N   UNL     1      -1.474  16.971  26.208  0.00  0.00    +0.000 NA
ATOM     36  C   UNL     1      -2.279  17.643  25.369  0.00  0.00    +0.000 A 
ATOM     37  N   UNL     1      -3.064  17.106  24.423  0.00  0.00    +0.000 NA
ENDBRANCH  16  32
TORSDOF 2
ENDMDL
MODEL 2
REMARK VINA RESULT:      -7.9      0.918      1.040
REMARK  Name = 
REMARK  6 active torsions:
REMARK  status: ('A' for Active; 'I' for Inactive)
REMARK    1  A    between atoms: C_1  and  C_2
REMARK    2  A    between atoms: N_4  and  C_5
REMARK    3  A    between atoms: C_11  and  C_12
REMARK    4  A    between atoms: C_22  and  C_24
REMARK    5  A    between atoms: C_33  and  C_34
REMARK    6  A    between atoms: C_33  and  C_35
REMARK                            x       y       z     vdW  Elec       q    Type
REMARK                         _______ _______ _______ _____ _____    ______ ____
ROOT
ATOM      1  C   UNL     1      -3.484  10.492  16.116  0.00  0.00    +0.000 C 
ATOM      2  C   UNL     1      -2.903  10.617  17.532  0.00  0.00    +0.000 C 
ATOM      3  C   UNL     1      -1.329  10.591  17.364  0.00  0.00    +0.000 C 
ATOM      4  N   UNL     1      -0.483  10.926  18.538  0.00  0.00    +0.000 NA
ATOM      5  C   UNL     1      -0.934  12.251  18.986  0.00  0.00    +0.000 C 
ATOM      6  C   UNL     1      -0.273  12.942  20.187  0.00  0.00    +0.000 C 
ATOM      7  C   UNL     1      -2.429  12.283  19.271  0.00  0.00    +0.000 C 
ATOM      8  N   UNL     1      -3.410  11.755  18.355  0.00  0.00    +0.000 N 
ATOM      9  C   UNL     1      -4.796  11.770  18.709  0.00  0.00    +0.000 C 
ATOM     10  O   UNL     1      -5.627  11.199  17.994  0.00  0.00    +0.000 OA
ATOM     11  N   UNL     1      -5.205  12.348  19.938  0.00  0.00    +0.000 N 
ATOM     12  C   UNL     1      -4.443  13.288  20.817  0.00  0.00    +0.000 C 
ATOM     13  C   UNL     1      -5.205  13.279  22.046  0.00  0.00    +0.000 A 
ATOM     14  C   UNL     1      -4.974  13.506  23.400  0.00  0.00    +0.000 A 
ATOM     15  N   UNL     1      -3.867  14.086  23.986  0.00  0.00    +0.000 N 
ATOM     16  C   UNL     1      -3.080  15.056  23.391  0.00  0.00    +0.000 C 
ATOM     17  O   UNL     1      -3.230  15.521  22.263  0.00  0.00    +0.000 OA
ATOM     18  N   UNL     1      -5.957  12.937  24.112  0.00  0.00    +0.000 NA
ATOM     19  N   UNL     1      -6.807  12.404  23.185  0.00  0.00    +0.000 N 
ATOM     20  C   UNL     1      -6.323  12.525  21.930  0.00  0.00    +0.000 A 
ATOM     21  C   UNL     1      -6.577  11.993  20.554  0.00  0.00    +0.000 C 
ATOM     22  C   UNL     1      -7.750  12.762  19.949  0.00  0.00    +0.000 C 
ATOM     23  C   UNL     1      -6.843  10.485  20.548  0.00  0.00    +0.000 C 
ATOM     24  H   UNL     1      -3.726  13.884  24.967  0.00  0.00    +0.000 HD
ATOM     25  H   UNL     1      -7.652  11.951  23.513  0.00  0.00    +0.000 HD
ENDROOT
BRANCH   4  26
ATOM     26  C   UNL     1      -0.242   9.790  19.466  0.00  0.00    +0.000 C 
ATOM     27  C   UNL     1      -0.731   9.932  20.921  0.00  0.00    +0.000 C 
ATOM     28  C   UNL     1      -0.314   8.773  21.815  0.00  0.00    +0.000 C 
ATOM     29  O   UNL     1       1.080   8.521  21.707  0.00  0.00    +0.000 OA
ATOM     30  C   UNL     1       1.416   8.079  20.396  0.00  0.00    +0.000 C 
ATOM     31  C   UNL     1       1.178   9.193  19.388  0.00  0.00    +0.000 C 
ENDBRANCH   4  26
BRANCH  16  32
ATOM     32  C   UNL     1      -1.993  15.602  24.267  0.00  0.00    +0.000 A 
ATOM     33  C   UNL     1      -0.957  16.324  23.701  0.00  0.00    +0.000 A 
ATOM     34  C   UNL     1      -0.003  16.779  24.580  0.00  0.00    +0.000 A 
ATOM     35  N   UNL     1      -0.050  16.545  25.903  0.00  0.00    +0.000 NA
ATOM     36  C   UNL     1      -1.098  15.830  26.343  0.00  0.00    +0.000 A 
ATOM     37  N   UNL     1      -2.101  15.350  25.594  0.00  0.00    +0.000 NA
ENDBRANCH  16  32
TORSDOF 2
ENDMDL
MODEL 3
REMARK VINA RESULT:      -7.8      0.965      1.223
REMARK  Name = 
REMARK  6 active torsions:
REMARK  status: ('A' for Active; 'I' for Inactive)
REMARK    1  A    between atoms: C_1  and  C_2
REMARK    2  A    between atoms: N_4  and  C_5
REMARK    3  A    between atoms: C_11  and  C_12
REMARK    4  A    between atoms: C_22  and  C_24
REMARK    5  A    between atoms: C_33  and  C_34
REMARK    6  A    between atoms: C_33  and  C_35
REMARK                            x       y       z     vdW  Elec       q    Type
REMARK                         _______ _______ _______ _____ _____    ______ ____
ROOT
ATOM      1  C   UNL     1      -2.407  10.255  16.715  0.00  0.00    +0.000 C 
ATOM      2  C   UNL     1      -2.263  10.669  18.187  0.00  0.00    +0.000 C 
ATOM      3  C   UNL     1      -0.708  10.801  18.455  0.00  0.00    +0.000 C 
ATOM      4  N   UNL     1      -0.256  11.414  19.730  0.00  0.00    +0.000 NA
ATOM      5  C   UNL     1      -0.907  12.732  19.790  0.00  0.00    +0.000 C 
ATOM      6  C   UNL     1      -0.664  13.676  20.975  0.00  0.00    +0.000 C 
ATOM      7  C   UNL     1      -2.420  12.632  19.652  0.00  0.00    +0.000 C 
ATOM      8  N   UNL     1      -3.061  11.855  18.620  0.00  0.00    +0.000 N 
ATOM      9  C   UNL     1      -4.488  11.763  18.580  0.00  0.00    +0.000 C 
ATOM     10  O   UNL     1      -5.039  10.992  17.785  0.00  0.00    +0.000 OA
ATOM     11  N   UNL     1      -5.268  12.474  19.526  0.00  0.00    +0.000 N 
ATOM     12  C   UNL     1      -4.855  13.624  20.389  0.00  0.00    +0.000 C 
ATOM     13  C   UNL     1      -5.932  13.719  21.347  0.00  0.00    +0.000 A 
ATOM     14  C   UNL     1      -6.113  14.182  22.648  0.00  0.00    +0.000 A 
ATOM     15  N   UNL     1      -5.261  14.973  23.393  0.00  0.00    +0.000 N 
ATOM     16  C   UNL     1      -4.406  15.923  22.863  0.00  0.00    +0.000 C 
ATOM     17  O   UNL     1      -4.261  16.184  21.671  0.00  0.00    +0.000 OA
ATOM     18  N   UNL     1      -7.217  13.621  23.163  0.00  0.00    +0.000 NA
ATOM     19  N   UNL     1      -7.728  12.853  22.156  0.00  0.00    +0.000 N 
ATOM     20  C   UNL     1      -6.917  12.830  21.077  0.00  0.00    +0.000 A 
ATOM     21  C   UNL     1      -6.731  12.062  19.805  0.00  0.00    +0.000 C 
ATOM     22  C   UNL     1      -7.733  12.583  18.777  0.00  0.00    +0.000 C 
ATOM     23  C   UNL     1      -6.880  10.551  20.006  0.00  0.00    +0.000 C 
ATOM     24  H   UNL     1      -5.392  14.946  24.396  0.00  0.00    +0.000 HD
ATOM     25  H   UNL     1      -8.599  12.360  22.323  0.00  0.00    +0.000 HD
ENDROOT
BRANCH   4  26
ATOM     26  C   UNL     1      -0.213  10.474  20.881  0.00  0.00    +0.000 C 
ATOM     27  C   UNL     1      -0.846  10.933  22.210  0.00  0.00    +0.000 C 
ATOM     28  C   UNL     1      -0.625   9.954  23.355  0.00  0.00    +0.000 C 
ATOM     29  O   UNL     1       0.747   9.605  23.471  0.00  0.00    +0.000 OA
ATOM     30  C   UNL     1       1.189   8.891  22.321  0.00  0.00    +0.000 C 
ATOM     31  C   UNL     1       1.155   9.794  21.097  0.00  0.00    +0.000 C 
ENDBRANCH   4  26
BRANCH  16  32
ATOM     32  C   UNL     1      -3.654  16.724  23.883  0.00  0.00    +0.000 A 
ATOM     33  C   UNL     1      -4.188  17.913  24.348  0.00  0.00    +0.000 A 
ATOM     34  C   UNL     1      -3.426  18.582  25.276  0.00  0.00    +0.000 A 
ATOM     35  N   UNL     1      -2.236  18.133  25.712  0.00  0.00    +0.000 NA
ATOM     36  C   UNL     1      -1.812  16.970  25.191  0.00  0.00    +0.000 A 
ATOM     37  N   UNL     1      -2.470  16.214  24.298  0.00  0.00    +0.000 NA
ENDBRANCH  16  32
TORSDOF 2
ENDMDL
MODEL 4
REMARK VINA RESULT:      -7.7      1.009      1.032
REMARK  Name = 
REMARK  6 active torsions:
REMARK  status: ('A' for Active; 'I' for Inactive)
REMARK    1  A    between atoms: C_1  and  C_2
REMARK    2  A    between atoms: N_4  and  C_5
REMARK    3  A    between atoms: C_11  and  C_12
REMARK    4  A    between atoms: C_22  and  C_24
REMARK    5  A    between atoms: C_33  and  C_34
REMARK    6  A    between atoms: C_33  and  C_35
REMARK                            x       y       z     vdW  Elec       q    Type
REMARK                         _______ _______ _______ _____ _____    ______ ____
ROOT
ATOM      1  C   UNL     1      -2.728  10.822  16.952  0.00  0.00    +0.000 C 
ATOM      2  C   UNL     1      -2.427  11.091  18.434  0.00  0.00    +0.000 C 
ATOM      3  C   UNL     1      -0.849  11.104  18.566  0.00  0.00    +0.000 C 
ATOM      4  N   UNL     1      -0.247  11.571  19.841  0.00  0.00    +0.000 NA
ATOM      5  C   UNL     1      -0.797  12.915  20.071  0.00  0.00    +0.000 C 
ATOM      6  C   UNL     1      -0.388  13.732  21.304  0.00  0.00    +0.000 C 
ATOM      7  C   UNL     1      -2.320  12.921  20.067  0.00  0.00    +0.000 C 
ATOM      8  N   UNL     1      -3.101  12.281  19.037  0.00  0.00    +0.000 N 
ATOM      9  C   UNL     1      -4.529  12.280  19.122  0.00  0.00    +0.000 C 
ATOM     10  O   UNL     1      -5.199  11.619  18.321  0.00  0.00    +0.000 OA
ATOM     11  N   UNL     1      -5.173  12.950  20.194  0.00  0.00    +0.000 N 
ATOM     12  C   UNL     1      -4.607  13.990  21.108  0.00  0.00    +0.000 C 
ATOM     13  C   UNL     1      -5.587  14.064  22.167  0.00  0.00    +0.000 A 
ATOM     14  C   UNL     1      -5.621  14.418  23.513  0.00  0.00    +0.000 A 
ATOM     15  N   UNL     1      -4.656  15.086  24.239  0.00  0.00    +0.000 N 
ATOM     16  C   UNL     1      -3.787  16.025  23.713  0.00  0.00    +0.000 C 
ATOM     17  O   UNL     1      -3.728  16.383  22.539  0.00  0.00    +0.000 OA
ATOM     18  N   UNL     1      -6.712  13.881  24.079  0.00  0.00    +0.000 NA
ATOM     19  N   UNL     1      -7.361  13.240  23.063  0.00  0.00    +0.000 N 
ATOM     20  C   UNL     1      -6.651  13.265  21.915  0.00  0.00    +0.000 A 
ATOM     21  C   UNL     1      -6.630  12.605  20.572  0.00  0.00    +0.000 C 
ATOM     22  C   UNL     1      -7.680  13.276  19.688  0.00  0.00    +0.000 C 
ATOM     23  C   UNL     1      -6.865  11.094  20.658  0.00  0.00    +0.000 C 
ATOM     24  H   UNL     1      -4.699  14.976  25.244  0.00  0.00    +0.000 HD
ATOM     25  H   UNL     1      -8.246  12.789  23.268  0.00  0.00    +0.000 HD
ENDROOT
BRANCH   4  26
ATOM     26  C   UNL     1      -0.168  10.531  20.900  0.00  0.00    +0.000 C 
ATOM     27  C   UNL     1      -0.921  10.788  22.220  0.00  0.00    +0.000 C 
ATOM     28  C   UNL     1      -0.662   9.727  23.281  0.00  0.00    +0.000 C 
ATOM     29  O   UNL     1       0.731   9.510  23.456  0.00  0.00    +0.000 OA
ATOM     30  C   UNL     1       1.311   8.963  22.277  0.00  0.00    +0.000 C 
ATOM     31  C   UNL     1       1.250   9.974  21.142  0.00  0.00    +0.000 C 
ENDBRANCH   4  26
BRANCH  16  32
ATOM     32  C   UNL     1      -2.895  16.683  24.723  0.00  0.00    +0.000 A 
ATOM     33  C   UNL     1      -2.141  15.902  25.582  0.00  0.00    +0.000 A 
ATOM     34  C   UNL     1      -1.358  16.592  26.477  0.00  0.00    +0.000 A 
ATOM     35  N   UNL     1      -1.316  17.934  26.536  0.00  0.00    +0.000 NA
ATOM     36  C   UNL     1      -2.091  18.592  25.659  0.00  0.00    +0.000 A 
ATOM     37  N   UNL     1      -2.880  18.038  24.725  0.00  0.00    +0.000 NA
ENDBRANCH  16  32
TORSDOF 2
ENDMDL
MODEL 5
REMARK VINA RESULT:      -7.2      2.922      6.061
REMARK  Name = 
REMARK  6 active torsions:
REMARK  status: ('A' for Active; 'I' for Inactive)
REMARK    1  A    between atoms: C_1  and  C_2
REMARK    2  A    between atoms: N_4  and  C_5
REMARK    3  A    between atoms: C_11  and  C_12
REMARK    4  A    between atoms: C_22  and  C_24
REMARK    5  A    between atoms: C_33  and  C_34
REMARK    6  A    between atoms: C_33  and  C_35
REMARK                            x       y       z     vdW  Elec       q    Type
REMARK                         _______ _______ _______ _____ _____    ______ ____
ROOT
ATOM      1  C   UNL     1       0.726   9.747  22.072  0.00  0.00    +0.000 C 
ATOM      2  C   UNL     1       0.209  10.882  21.174  0.00  0.00    +0.000 C 
ATOM      3  C   UNL     1       0.696  10.538  19.708  0.00  0.00    +0.000 C 
ATOM      4  N   UNL     1       0.154  11.330  18.575  0.00  0.00    +0.000 NA
ATOM      5  C   UNL     1      -1.309  11.216  18.675  0.00  0.00    +0.000 C 
ATOM      6  C   UNL     1      -2.223  11.903  17.651  0.00  0.00    +0.000 C 
ATOM      7  C   UNL     1      -1.826  11.651  20.039  0.00  0.00    +0.000 C 
ATOM      8  N   UNL     1      -1.249  11.190  21.277  0.00  0.00    +0.000 N 
ATOM      9  C   UNL     1      -1.751  11.679  22.524  0.00  0.00    +0.000 C 
ATOM     10  O   UNL     1      -1.176  11.396  23.581  0.00  0.00    +0.000 OA
ATOM     11  N   UNL     1      -2.847  12.580  22.539  0.00  0.00    +0.000 N 
ATOM     12  C   UNL     1      -3.830  12.859  21.447  0.00  0.00    +0.000 C 
ATOM     13  C   UNL     1      -4.496  14.058  21.903  0.00  0.00    +0.000 A 
ATOM     14  C   UNL     1      -5.169  15.138  21.338  0.00  0.00    +0.000 A 
ATOM     15  N   UNL     1      -5.632  15.266  20.044  0.00  0.00    +0.000 N 
ATOM     16  C   UNL     1      -6.057  14.214  19.254  0.00  0.00    +0.000 C 
ATOM     17  O   UNL     1      -6.065  13.026  19.570  0.00  0.00    +0.000 OA
ATOM     18  N   UNL     1      -5.193  16.148  22.221  0.00  0.00    +0.000 NA
ATOM     19  N   UNL     1      -4.573  15.661  23.336  0.00  0.00    +0.000 N 
ATOM     20  C   UNL     1      -4.067  14.426  23.133  0.00  0.00    +0.000 A 
ATOM     21  C   UNL     1      -3.122  13.461  23.778  0.00  0.00    +0.000 C 
ATOM     22  C   UNL     1      -3.861  12.741  24.904  0.00  0.00    +0.000 C 
ATOM     23  C   UNL     1      -1.852  14.142  24.299  0.00  0.00    +0.000 C 
ATOM     24  H   UNL     1      -5.801  16.211  19.724  0.00  0.00    +0.000 HD
ATOM     25  H   UNL     1      -4.515  16.260  24.152  0.00  0.00    +0.000 HD
ENDROOT
BRANCH   4  26
ATOM     26  C   UNL     1       0.857  12.618  18.335  0.00  0.00    +0.000 C 
ATOM     27  C   UNL     1       2.398  12.604  18.308  0.00  0.00    +0.000 C 
ATOM     28  C   UNL     1       3.014  13.992  18.193  0.00  0.00    +0.000 C 
ATOM     29  O   UNL     1       2.471  14.872  19.166  0.00  0.00    +0.000 OA
ATOM     30  C   UNL     1       1.085  15.094  18.934  0.00  0.00    +0.000 C 
ATOM     31  C   UNL     1       0.303  13.807  19.148  0.00  0.00    +0.000 C 
ENDBRANCH   4  26
BRANCH  16  32
ATOM     32  C   UNL     1      -6.608  14.619  17.920  0.00  0.00    +0.000 A 
ATOM     33  C   UNL     1      -6.732  15.962  17.610  0.00  0.00    +0.000 A 
ATOM     34  C   UNL     1      -7.252  16.239  16.368  0.00  0.00    +0.000 A 
ATOM     35  N   UNL     1      -7.628  15.284  15.499  0.00  0.00    +0.000 NA
ATOM     36  C   UNL     1      -7.468  14.014  15.905  0.00  0.00    +0.000 A 
ATOM     37  N   UNL     1      -6.954  13.615  17.078  0.00  0.00    +0.000 NA
ENDBRANCH  16  32
TORSDOF 2
ENDMDL
MODEL 6
REMARK VINA RESULT:      -7.0      7.969     12.020
REMARK  Name = 
REMARK  6 active torsions:
REMARK  status: ('A' for Active; 'I' for Inactive)
REMARK    1  A    between atoms: C_1  and  C_2
REMARK    2  A    between atoms: N_4  and  C_5
REMARK    3  A    between atoms: C_11  and  C_12
REMARK    4  A    between atoms: C_22  and  C_24
REMARK    5  A    between atoms: C_33  and  C_34
REMARK    6  A    between atoms: C_33  and  C_35
REMARK                            x       y       z     vdW  Elec       q    Type
REMARK                         _______ _______ _______ _____ _____    ______ ____
ROOT
ATOM      1  C   UNL     1       2.234  17.219  23.228  0.00  0.00    +0.000 C 
ATOM      2  C   UNL     1       2.942  16.052  22.523  0.00  0.00    +0.000 C 
ATOM      3  C   UNL     1       2.501  16.126  21.004  0.00  0.00    +0.000 C 
ATOM      4  N   UNL     1       3.204  15.266  20.018  0.00  0.00    +0.000 NA
ATOM      5  C   UNL     1       4.633  15.585  20.160  0.00  0.00    +0.000 C 
ATOM      6  C   UNL     1       5.684  14.894  19.282  0.00  0.00    +0.000 C 
ATOM      7  C   UNL     1       5.121  15.413  21.592  0.00  0.00    +0.000 C 
ATOM      8  N   UNL     1       4.419  15.958  22.727  0.00  0.00    +0.000 N 
ATOM      9  C   UNL     1       4.905  15.713  24.050  0.00  0.00    +0.000 C 
ATOM     10  O   UNL     1       4.238  16.059  25.033  0.00  0.00    +0.000 OA
ATOM     11  N   UNL     1       6.103  14.977  24.237  0.00  0.00    +0.000 N 
ATOM     12  C   UNL     1       7.175  14.685  23.237  0.00  0.00    +0.000 C 
ATOM     13  C   UNL     1       7.959  13.659  23.885  0.00  0.00    +0.000 A 
ATOM     14  C   UNL     1       8.794  12.610  23.507  0.00  0.00    +0.000 A 
ATOM     15  N   UNL     1       9.345  12.370  22.264  0.00  0.00    +0.000 N 
ATOM     16  C   UNL     1       9.679  13.353  21.350  0.00  0.00    +0.000 C 
ATOM     17  O   UNL     1       9.519  14.563  21.493  0.00  0.00    +0.000 OA
ATOM     18  N   UNL     1       8.894  11.743  24.524  0.00  0.00    +0.000 NA
ATOM     19  N   UNL     1       8.155  12.290  25.533  0.00  0.00    +0.000 N 
ATOM     20  C   UNL     1       7.509  13.407  25.137  0.00  0.00    +0.000 A 
ATOM     21  C   UNL     1       6.414  14.317  25.599  0.00  0.00    +0.000 C 
ATOM     22  C   UNL     1       6.990  15.275  26.640  0.00  0.00    +0.000 C 
ATOM     23  C   UNL     1       5.212  13.550  26.160  0.00  0.00    +0.000 C 
ATOM     24  H   UNL     1       9.650  11.422  22.088  0.00  0.00    +0.000 HD
ATOM     25  H   UNL     1       8.125  11.805  26.423  0.00  0.00    +0.000 HD
ENDROOT
BRANCH   4  26
ATOM     26  C   UNL     1       2.685  13.875  19.936  0.00  0.00    +0.000 C 
ATOM     27  C   UNL     1       2.564  13.233  18.541  0.00  0.00    +0.000 C 
ATOM     28  C   UNL     1       1.895  11.865  18.560  0.00  0.00    +0.000 C 
ATOM     29  O   UNL     1       0.668  11.907  19.274  0.00  0.00    +0.000 OA
ATOM     30  C   UNL     1       0.890  12.198  20.650  0.00  0.00    +0.000 C 
ATOM     31  C   UNL     1       1.439  13.608  20.807  0.00  0.00    +0.000 C 
ENDBRANCH   4  26
BRANCH  16  32
ATOM     32  C   UNL     1      10.354  12.847  20.110  0.00  0.00    +0.000 A 
ATOM     33  C   UNL     1      11.445  12.002  20.221  0.00  0.00    +0.000 A 
ATOM     34  C   UNL     1      12.002  11.595  19.032  0.00  0.00    +0.000 A 
ATOM     35  N   UNL     1      11.539  11.984  17.831  0.00  0.00    +0.000 NA
ATOM     36  C   UNL     1      10.479  12.808  17.841  0.00  0.00    +0.000 A 
ATOM     37  N   UNL     1       9.834  13.258  18.928  0.00  0.00    +0.000 NA
ENDBRANCH  16  32
TORSDOF 2
ENDMDL
MODEL 7
REMARK VINA RESULT:      -6.9      8.937     11.873
REMARK  Name = 
REMARK  6 active torsions:
REMARK  status: ('A' for Active; 'I' for Inactive)
REMARK    1  A    between atoms: C_1  and  C_2
REMARK    2  A    between atoms: N_4  and  C_5
REMARK    3  A    between atoms: C_11  and  C_12
REMARK    4  A    between atoms: C_22  and  C_24
REMARK    5  A    between atoms: C_33  and  C_34
REMARK    6  A    between atoms: C_33  and  C_35
REMARK                            x       y       z     vdW  Elec       q    Type
REMARK                         _______ _______ _______ _____ _____    ______ ____
ROOT
ATOM      1  C   UNL     1      10.822  11.965  20.671  0.00  0.00    +0.000 C 
ATOM      2  C   UNL     1      10.096  13.271  20.315  0.00  0.00    +0.000 C 
ATOM      3  C   UNL     1      10.500  13.605  18.821  0.00  0.00    +0.000 C 
ATOM      4  N   UNL     1       9.772  14.689  18.114  0.00  0.00    +0.000 NA
ATOM      5  C   UNL     1       8.348  14.332  18.198  0.00  0.00    +0.000 C 
ATOM      6  C   UNL     1       7.275  15.223  17.558  0.00  0.00    +0.000 C 
ATOM      7  C   UNL     1       7.895  14.116  19.636  0.00  0.00    +0.000 C 
ATOM      8  N   UNL     1       8.624  13.297  20.571  0.00  0.00    +0.000 N 
ATOM      9  C   UNL     1       8.169  13.179  21.922  0.00  0.00    +0.000 C 
ATOM     10  O   UNL     1       8.861  12.592  22.763  0.00  0.00    +0.000 OA
ATOM     11  N   UNL     1       6.975  13.830  22.324  0.00  0.00    +0.000 N 
ATOM     12  C   UNL     1       5.879  14.367  21.461  0.00  0.00    +0.000 C 
ATOM     13  C   UNL     1       5.109  15.180  22.375  0.00  0.00    +0.000 A 
ATOM     14  C   UNL     1       4.263  16.284  22.306  0.00  0.00    +0.000 A 
ATOM     15  N   UNL     1       3.683  16.840  21.184  0.00  0.00    +0.000 N 
ATOM     16  C   UNL     1       3.328  16.131  20.050  0.00  0.00    +0.000 C 
ATOM     17  O   UNL     1       3.493  14.927  19.865  0.00  0.00    +0.000 OA
ATOM     18  N   UNL     1       4.186  16.852  23.519  0.00  0.00    +0.000 NA
ATOM     19  N   UNL     1       4.951  16.063  24.330  0.00  0.00    +0.000 N 
ATOM     20  C   UNL     1       5.589  15.095  23.638  0.00  0.00    +0.000 A 
ATOM     21  C   UNL     1       6.696  14.104  23.818  0.00  0.00    +0.000 C 
ATOM     22  C   UNL     1       6.147  12.901  24.582  0.00  0.00    +0.000 C 
ATOM     23  C   UNL     1       7.910  14.706  24.535  0.00  0.00    +0.000 C 
ATOM     24  H   UNL     1       3.372  17.798  21.272  0.00  0.00    +0.000 HD
ATOM     25  H   UNL     1       5.002  16.296  25.316  0.00  0.00    +0.000 HD
ENDROOT
BRANCH   4  26
ATOM     26  C   UNL     1      10.287  16.056  18.391  0.00  0.00    +0.000 C 
ATOM     27  C   UNL     1      10.355  17.052  17.216  0.00  0.00    +0.000 C 
ATOM     28  C   UNL     1      11.022  18.371  17.579  0.00  0.00    +0.000 C 
ATOM     29  O   UNL     1      12.276  18.152  18.209  0.00  0.00    +0.000 OA
ATOM     30  C   UNL     1      12.107  17.498  19.463  0.00  0.00    +0.000 C 
ATOM     31  C   UNL     1      11.565  16.092  19.254  0.00  0.00    +0.000 C 
ENDBRANCH   4  26
BRANCH  16  32
ATOM     32  C   UNL     1       2.623  16.940  19.004  0.00  0.00    +0.000 A 
ATOM     33  C   UNL     1       2.912  16.729  17.666  0.00  0.00    +0.000 A 
ATOM     34  C   UNL     1       2.222  17.521  16.779  0.00  0.00    +0.000 A 
ATOM     35  N   UNL     1       1.328  18.449  17.162  0.00  0.00    +0.000 NA
ATOM     36  C   UNL     1       1.130  18.573  18.484  0.00  0.00    +0.000 A 
ATOM     37  N   UNL     1       1.721  17.848  19.446  0.00  0.00    +0.000 NA
ENDBRANCH  16  32
TORSDOF 2
ENDMDL
MODEL 8
REMARK VINA RESULT:      -6.9      3.179      6.458
REMARK  Name = 
REMARK  6 active torsions:
REMARK  status: ('A' for Active; 'I' for Inactive)
REMARK    1  A    between atoms: C_1  and  C_2
REMARK    2  A    between atoms: N_4  and  C_5
REMARK    3  A    between atoms: C_11  and  C_12
REMARK    4  A    between atoms: C_22  and  C_24
REMARK    5  A    between atoms: C_33  and  C_34
REMARK    6  A    between atoms: C_33  and  C_35
REMARK                            x       y       z     vdW  Elec       q    Type
REMARK                         _______ _______ _______ _____ _____    ______ ____
ROOT
ATOM      1  C   UNL     1       2.224   9.915  17.936  0.00  0.00    +0.000 C 
ATOM      2  C   UNL     1       1.054  10.856  18.260  0.00  0.00    +0.000 C 
ATOM      3  C   UNL     1      -0.187   9.923  18.568  0.00  0.00    +0.000 C 
ATOM      4  N   UNL     1      -1.412  10.535  19.143  0.00  0.00    +0.000 NA
ATOM      5  C   UNL     1      -0.973  11.233  20.360  0.00  0.00    +0.000 C 
ATOM      6  C   UNL     1      -1.980  11.984  21.242  0.00  0.00    +0.000 C 
ATOM      7  C   UNL     1       0.145  12.228  20.081  0.00  0.00    +0.000 C 
ATOM      8  N   UNL     1       1.313  11.894  19.303  0.00  0.00    +0.000 N 
ATOM      9  C   UNL     1       2.301  12.893  19.035  0.00  0.00    +0.000 C 
ATOM     10  O   UNL     1       3.233  12.653  18.258  0.00  0.00    +0.000 OA
ATOM     11  N   UNL     1       2.152  14.196  19.575  0.00  0.00    +0.000 N 
ATOM     12  C   UNL     1       1.275  14.635  20.704  0.00  0.00    +0.000 C 
ATOM     13  C   UNL     1       1.297  16.076  20.596  0.00  0.00    +0.000 A 
ATOM     14  C   UNL     1       0.474  17.145  20.940  0.00  0.00    +0.000 A 
ATOM     15  N   UNL     1      -0.623  17.135  21.779  0.00  0.00    +0.000 N 
ATOM     16  C   UNL     1      -0.776  16.290  22.863  0.00  0.00    +0.000 C 
ATOM     17  O   UNL     1       0.015  15.420  23.223  0.00  0.00    +0.000 OA
ATOM     18  N   UNL     1       0.819  18.215  20.210  0.00  0.00    +0.000 NA
ATOM     19  N   UNL     1       1.881  17.804  19.456  0.00  0.00    +0.000 N 
ATOM     20  C   UNL     1       2.130  16.486  19.611  0.00  0.00    +0.000 A 
ATOM     21  C   UNL     1       2.917  15.390  18.964  0.00  0.00    +0.000 C 
ATOM     22  C   UNL     1       4.369  15.503  19.424  0.00  0.00    +0.000 C 
ATOM     23  C   UNL     1       2.819  15.422  17.435  0.00  0.00    +0.000 C 
ATOM     24  H   UNL     1      -1.277  17.899  21.665  0.00  0.00    +0.000 HD
ATOM     25  H   UNL     1       2.328  18.481  18.848  0.00  0.00    +0.000 HD
ENDROOT
BRANCH   4  26
ATOM     26  C   UNL     1      -2.322  11.144  18.138  0.00  0.00    +0.000 C 
ATOM     27  C   UNL     1      -3.788  11.388  18.548  0.00  0.00    +0.000 C 
ATOM     28  C   UNL     1      -4.661  11.886  17.404  0.00  0.00    +0.000 C 
ATOM     29  O   UNL     1      -4.523  11.057  16.259  0.00  0.00    +0.000 OA
ATOM     30  C   UNL     1      -3.201  11.130  15.736  0.00  0.00    +0.000 C 
ATOM     31  C   UNL     1      -2.210  10.535  16.725  0.00  0.00    +0.000 C 
ENDBRANCH   4  26
BRANCH  16  32
ATOM     32  C   UNL     1      -2.009  16.538  23.679  0.00  0.00    +0.000 A 
ATOM     33  C   UNL     1      -3.095  15.690  23.553  0.00  0.00    +0.000 A 
ATOM     34  C   UNL     1      -4.183  15.998  24.334  0.00  0.00    +0.000 A 
ATOM     35  N   UNL     1      -4.213  17.053  25.168  0.00  0.00    +0.000 NA
ATOM     36  C   UNL     1      -3.107  17.812  25.208  0.00  0.00    +0.000 A 
ATOM     37  N   UNL     1      -1.977  17.604  24.514  0.00  0.00    +0.000 NA
ENDBRANCH  16  32
TORSDOF 2
ENDMDL
MODEL 9
REMARK VINA RESULT:      -6.8      2.535      3.472
REMARK  Name = 
REMARK  6 active torsions:
REMARK  status: ('A' for Active; 'I' for Inactive)
REMARK    1  A    between atoms: C_1  and  C_2
REMARK    2  A    between atoms: N_4  and  C_5
REMARK    3  A    between atoms: C_11  and  C_12
REMARK    4  A    between atoms: C_22  and  C_24
REMARK    5  A    between atoms: C_33  and  C_34
REMARK    6  A    between atoms: C_33  and  C_35
REMARK                            x       y       z     vdW  Elec       q    Type
REMARK                         _______ _______ _______ _____ _____    ______ ____
ROOT
ATOM      1  C   UNL     1      -4.323  11.130  17.877  0.00  0.00    +0.000 C 
ATOM      2  C   UNL     1      -3.233  11.297  18.947  0.00  0.00    +0.000 C 
ATOM      3  C   UNL     1      -1.896  10.750  18.300  0.00  0.00    +0.000 C 
ATOM      4  N   UNL     1      -0.613  10.990  19.008  0.00  0.00    +0.000 NA
ATOM      5  C   UNL     1      -0.536  12.446  19.205  0.00  0.00    +0.000 C 
ATOM      6  C   UNL     1       0.675  13.082  19.901  0.00  0.00    +0.000 C 
ATOM      7  C   UNL     1      -1.757  12.993  19.931  0.00  0.00    +0.000 C 
ATOM      8  N   UNL     1      -3.107  12.657  19.552  0.00  0.00    +0.000 N 
ATOM      9  C   UNL     1      -4.207  13.166  20.311  0.00  0.00    +0.000 C 
ATOM     10  O   UNL     1      -5.358  12.775  20.078  0.00  0.00    +0.000 OA
ATOM     11  N   UNL     1      -3.969  14.037  21.404  0.00  0.00    +0.000 N 
ATOM     12  C   UNL     1      -2.732  14.821  21.709  0.00  0.00    +0.000 C 
ATOM     13  C   UNL     1      -2.946  15.255  23.071  0.00  0.00    +0.000 A 
ATOM     14  C   UNL     1      -2.170  15.618  24.168  0.00  0.00    +0.000 A 
ATOM     15  N   UNL     1      -0.820  15.909  24.194  0.00  0.00    +0.000 N 
ATOM     16  C   UNL     1      -0.118  16.470  23.142  0.00  0.00    +0.000 C 
ATOM     17  O   UNL     1      -0.574  16.766  22.040  0.00  0.00    +0.000 OA
ATOM     18  N   UNL     1      -2.910  15.514  25.282  0.00  0.00    +0.000 NA
ATOM     19  N   UNL     1      -4.148  15.130  24.851  0.00  0.00    +0.000 N 
ATOM     20  C   UNL     1      -4.167  14.884  23.524  0.00  0.00    +0.000 A 
ATOM     21  C   UNL     1      -5.043  14.239  22.496  0.00  0.00    +0.000 C 
ATOM     22  C   UNL     1      -6.144  15.227  22.113  0.00  0.00    +0.000 C 
ATOM     23  C   UNL     1      -5.636  12.912  22.979  0.00  0.00    +0.000 C 
ATOM     24  H   UNL     1      -0.367  15.838  25.095  0.00  0.00    +0.000 HD
ATOM     25  H   UNL     1      -4.885  15.027  25.540  0.00  0.00    +0.000 HD
ENDROOT
BRANCH   4  26
ATOM     26  C   UNL     1      -0.310  10.006  20.080  0.00  0.00    +0.000 C 
ATOM     27  C   UNL     1      -0.531  10.442  21.542  0.00  0.00    +0.000 C 
ATOM     28  C   UNL     1      -0.061   9.410  22.558  0.00  0.00    +0.000 C 
ATOM     29  O   UNL     1       1.270   8.994  22.285  0.00  0.00    +0.000 OA
ATOM     30  C   UNL     1       1.341   8.305  21.041  0.00  0.00    +0.000 C 
ATOM     31  C   UNL     1       1.025   9.255  19.895  0.00  0.00    +0.000 C 
ENDBRANCH   4  26
BRANCH  16  32
ATOM     32  C   UNL     1       1.317  16.782  23.447  0.00  0.00    +0.000 A 
ATOM     33  C   UNL     1       1.622  17.824  24.306  0.00  0.00    +0.000 A 
ATOM     34  C   UNL     1       2.962  18.041  24.521  0.00  0.00    +0.000 A 
ATOM     35  N   UNL     1       3.928  17.307  23.942  0.00  0.00    +0.000 NA
ATOM     36  C   UNL     1       3.519  16.325  23.123  0.00  0.00    +0.000 A 
ATOM     37  N   UNL     1       2.247  16.000  22.849  0.00  0.00    +0.000 NA
ENDBRANCH  16  32
TORSDOF 2
ENDMDL
