MODEL 1
REMARK VINA RESULT:      -6.4      0.000      0.000
REMARK  Name = 
REMARK  10 active torsions:
REMARK  status: ('A' for Active; 'I' for Inactive)
REMARK    1  A    between atoms: C_1  and  O_2
REMARK    2  A    between atoms: O_2  and  C_3
REMARK    3  A    between atoms: C_3  and  C_5
REMARK    4  A    between atoms: C_6  and  C_7
REMARK    5  A    between atoms: C_10  and  O_11
REMARK    6  A    between atoms: O_11  and  C_12
REMARK    7  A    between atoms: C_13  and  O_14
REMARK    8  A    between atoms: O_14  and  C_15
REMARK    9  A    between atoms: N_25  and  C_26
REMARK   10  A    between atoms: C_26  and  C_27
REMARK                            x       y       z     vdW  Elec       q    Type
REMARK                         _______ _______ _______ _____ _____    ______ ____
ROOT
ATOM      1  C   UNL     1       9.343  13.702  20.061  0.00  0.00    +0.000 C 
ATOM      2  C   UNL     1       9.216  12.947  21.184  0.00  0.00    +0.000 C 
ATOM      3  C   UNL     1       9.674  11.490  21.204  0.00  0.00    +0.000 C 
ATOM      4  C   UNL     1      10.405  11.084  19.903  0.00  0.00    +0.000 C 
ATOM      5  C   UNL     1      11.772  11.771  19.764  0.00  0.00    +0.000 C 
ATOM      6  C   UNL     1      11.493  13.071  18.985  0.00  0.00    +0.000 C 
ATOM      7  C   UNL     1       9.969  13.094  18.807  0.00  0.00    +0.000 C 
ATOM      8  N   UNL     1       9.658  11.667  18.802  0.00  0.00    +0.000 N 
ATOM      9  C   UNL     1       8.678  11.117  18.018  0.00  0.00    +0.000 C 
ATOM     10  O   UNL     1       8.037  11.771  17.202  0.00  0.00    +0.000 OA
ATOM     11  N   UNL     1       8.520   9.766  18.171  0.00  0.00    +0.000 N 
ATOM     12  H   UNL     1       8.769   9.361  19.056  0.00  0.00    +0.000 HD
ENDROOT
BRANCH   2  13
ATOM     13  C   UNL     1       8.542  13.384  22.417  0.00  0.00    +0.000 A 
ATOM     14  C   UNL     1       9.004  14.451  23.182  0.00  0.00    +0.000 A 
ATOM     15  C   UNL     1       8.317  14.809  24.345  0.00  0.00    +0.000 A 
ATOM     16  C   UNL     1       7.171  14.111  24.764  0.00  0.00    +0.000 A 
ATOM     17  C   UNL     1       6.708  13.026  23.997  0.00  0.00    +0.000 A 
ATOM     18  C   UNL     1       7.402  12.682  22.827  0.00  0.00    +0.000 A 
BRANCH  16  19
ATOM     19  O   UNL     1       6.649  14.623  25.924  0.00  0.00    +0.000 OA
ATOM     20  C   UNL     1       7.515  14.838  27.029  0.00  0.00    +0.000 C 
ENDBRANCH  16  19
BRANCH  17  21
ATOM     21  O   UNL     1       5.601  12.339  24.420  0.00  0.00    +0.000 OA
ATOM     22  C   UNL     1       5.801  11.160  25.191  0.00  0.00    +0.000 C 
ENDBRANCH  17  21
ENDBRANCH   2  13
BRANCH   1  23
ATOM     23  C   UNL     1       8.939  15.139  19.998  0.00  0.00    +0.000 C 
ATOM     24  O   UNL     1       9.677  16.089  20.203  0.00  0.00    +0.000 OA
BRANCH  23  26
ATOM     25  C   UNL     1       7.424  15.724  18.309  0.00  0.00    +0.000 C 
ATOM     26  O   UNL     1       7.635  15.241  19.637  0.00  0.00    +0.000 OA
ENDBRANCH  23  26
ENDBRANCH   1  23
BRANCH  11  27
ATOM     27  C   UNL     1       7.543   9.022  17.413  0.00  0.00    +0.000 C 
BRANCH  27  28
ATOM     28  C   UNL     1       7.639   7.591  17.785  0.00  0.00    +0.000 A 
ATOM     29  C   UNL     1       8.106   6.943  18.907  0.00  0.00    +0.000 A 
ATOM     30  C   UNL     1       7.939   5.558  18.671  0.00  0.00    +0.000 A 
ATOM     31  C   UNL     1       7.388   5.449  17.416  0.00  0.00    +0.000 A 
ATOM     32  O   UNL     1       7.207   6.678  16.865  0.00  0.00    +0.000 OA
ENDBRANCH  27  28
ENDBRANCH  11  27
TORSDOF 7
ENDMDL
MODEL 2
REMARK VINA RESULT:      -6.3      7.136     10.470
REMARK  Name = 
REMARK  10 active torsions:
REMARK  status: ('A' for Active; 'I' for Inactive)
REMARK    1  A    between atoms: C_1  and  O_2
REMARK    2  A    between atoms: O_2  and  C_3
REMARK    3  A    between atoms: C_3  and  C_5
REMARK    4  A    between atoms: C_6  and  C_7
REMARK    5  A    between atoms: C_10  and  O_11
REMARK    6  A    between atoms: O_11  and  C_12
REMARK    7  A    between atoms: C_13  and  O_14
REMARK    8  A    between atoms: O_14  and  C_15
REMARK    9  A    between atoms: N_25  and  C_26
REMARK   10  A    between atoms: C_26  and  C_27
REMARK                            x       y       z     vdW  Elec       q    Type
REMARK                         _______ _______ _______ _____ _____    ______ ____
ROOT
ATOM      1  C   UNL     1      -0.847  11.389  19.332  0.00  0.00    +0.000 C 
ATOM      2  C   UNL     1       0.312  10.919  19.863  0.00  0.00    +0.000 C 
ATOM      3  C   UNL     1       1.022  11.673  20.986  0.00  0.00    +0.000 C 
ATOM      4  C   UNL     1       0.196  12.873  21.504  0.00  0.00    +0.000 C 
ATOM      5  C   UNL     1      -1.064  12.429  22.263  0.00  0.00    +0.000 C 
ATOM      6  C   UNL     1      -2.174  12.361  21.195  0.00  0.00    +0.000 C 
ATOM      7  C   UNL     1      -1.460  12.679  19.876  0.00  0.00    +0.000 C 
ATOM      8  N   UNL     1      -0.367  13.531  20.338  0.00  0.00    +0.000 N 
ATOM      9  C   UNL     1       0.102  14.601  19.623  0.00  0.00    +0.000 C 
ATOM     10  O   UNL     1      -0.411  14.974  18.573  0.00  0.00    +0.000 OA
ATOM     11  N   UNL     1       1.148  15.262  20.209  0.00  0.00    +0.000 N 
ATOM     12  H   UNL     1       1.749  14.741  20.823  0.00  0.00    +0.000 HD
ENDROOT
BRANCH   2  13
ATOM     13  C   UNL     1       1.051   9.749  19.362  0.00  0.00    +0.000 A 
ATOM     14  C   UNL     1       1.532   9.673  18.058  0.00  0.00    +0.000 A 
ATOM     15  C   UNL     1       2.222   8.529  17.647  0.00  0.00    +0.000 A 
ATOM     16  C   UNL     1       2.436   7.450  18.520  0.00  0.00    +0.000 A 
ATOM     17  C   UNL     1       1.942   7.521  19.836  0.00  0.00    +0.000 A 
ATOM     18  C   UNL     1       1.259   8.677  20.238  0.00  0.00    +0.000 A 
BRANCH  16  19
ATOM     19  O   UNL     1       3.134   6.432  17.922  0.00  0.00    +0.000 OA
ATOM     20  C   UNL     1       4.422   6.706  17.389  0.00  0.00    +0.000 C 
ENDBRANCH  16  19
BRANCH  17  21
ATOM     21  O   UNL     1       2.139   6.457  20.676  0.00  0.00    +0.000 OA
ATOM     22  C   UNL     1       1.335   5.298  20.488  0.00  0.00    +0.000 C 
ENDBRANCH  17  21
ENDBRANCH   2  13
BRANCH   1  23
ATOM     23  C   UNL     1      -1.596  10.675  18.255  0.00  0.00    +0.000 C 
ATOM     24  O   UNL     1      -2.052   9.547  18.341  0.00  0.00    +0.000 OA
BRANCH  23  26
ATOM     25  C   UNL     1      -2.646  10.995  16.184  0.00  0.00    +0.000 C 
ATOM     26  O   UNL     1      -1.735  11.482  17.172  0.00  0.00    +0.000 OA
ENDBRANCH  23  26
ENDBRANCH   1  23
BRANCH  11  27
ATOM     27  C   UNL     1       1.755  16.422  19.600  0.00  0.00    +0.000 C 
BRANCH  27  28
ATOM     28  C   UNL     1       3.031  16.015  18.967  0.00  0.00    +0.000 A 
ATOM     29  C   UNL     1       3.328  15.366  17.788  0.00  0.00    +0.000 A 
ATOM     30  C   UNL     1       4.737  15.257  17.733  0.00  0.00    +0.000 A 
ATOM     31  C   UNL     1       5.210  15.841  18.885  0.00  0.00    +0.000 A 
ATOM     32  O   UNL     1       4.182  16.299  19.645  0.00  0.00    +0.000 OA
ENDBRANCH  27  28
ENDBRANCH  11  27
TORSDOF 7
ENDMDL
MODEL 3
REMARK VINA RESULT:      -6.3      6.540      8.697
REMARK  Name = 
REMARK  10 active torsions:
REMARK  status: ('A' for Active; 'I' for Inactive)
REMARK    1  A    between atoms: C_1  and  O_2
REMARK    2  A    between atoms: O_2  and  C_3
REMARK    3  A    between atoms: C_3  and  C_5
REMARK    4  A    between atoms: C_6  and  C_7
REMARK    5  A    between atoms: C_10  and  O_11
REMARK    6  A    between atoms: O_11  and  C_12
REMARK    7  A    between atoms: C_13  and  O_14
REMARK    8  A    between atoms: O_14  and  C_15
REMARK    9  A    between atoms: N_25  and  C_26
REMARK   10  A    between atoms: C_26  and  C_27
REMARK                            x       y       z     vdW  Elec       q    Type
REMARK                         _______ _______ _______ _____ _____    ______ ____
ROOT
ATOM      1  C   UNL     1       0.234  13.553  20.791  0.00  0.00    +0.000 C 
ATOM      2  C   UNL     1       0.989  13.555  19.661  0.00  0.00    +0.000 C 
ATOM      3  C   UNL     1       0.867  12.431  18.634  0.00  0.00    +0.000 C 
ATOM      4  C   UNL     1      -0.283  11.451  18.967  0.00  0.00    +0.000 C 
ATOM      5  C   UNL     1      -1.666  12.097  18.794  0.00  0.00    +0.000 C 
ATOM      6  C   UNL     1      -2.012  12.685  20.176  0.00  0.00    +0.000 C 
ATOM      7  C   UNL     1      -0.766  12.422  21.030  0.00  0.00    +0.000 C 
ATOM      8  N   UNL     1      -0.233  11.217  20.400  0.00  0.00    +0.000 N 
ATOM      9  C   UNL     1       0.371  10.209  21.103  0.00  0.00    +0.000 C 
ATOM     10  O   UNL     1       0.444  10.205  22.328  0.00  0.00    +0.000 OA
ATOM     11  N   UNL     1       0.828   9.173  20.333  0.00  0.00    +0.000 N 
ATOM     12  H   UNL     1       1.082   9.371  19.382  0.00  0.00    +0.000 HD
ENDROOT
BRANCH   2  13
ATOM     13  C   UNL     1       2.053  14.528  19.365  0.00  0.00    +0.000 A 
ATOM     14  C   UNL     1       3.346  14.395  19.863  0.00  0.00    +0.000 A 
ATOM     15  C   UNL     1       4.305  15.360  19.545  0.00  0.00    +0.000 A 
ATOM     16  C   UNL     1       3.993  16.467  18.738  0.00  0.00    +0.000 A 
ATOM     17  C   UNL     1       2.684  16.608  18.242  0.00  0.00    +0.000 A 
ATOM     18  C   UNL     1       1.732  15.629  18.561  0.00  0.00    +0.000 A 
BRANCH  16  19
ATOM     19  O   UNL     1       5.074  17.289  18.546  0.00  0.00    +0.000 OA
ATOM     20  C   UNL     1       6.049  17.388  19.574  0.00  0.00    +0.000 C 
ENDBRANCH  16  19
BRANCH  17  21
ATOM     21  O   UNL     1       2.381  17.699  17.471  0.00  0.00    +0.000 OA
ATOM     22  C   UNL     1       1.127  18.338  17.679  0.00  0.00    +0.000 C 
ENDBRANCH  17  21
ENDBRANCH   2  13
BRANCH   1  23
ATOM     23  C   UNL     1       0.293  14.643  21.811  0.00  0.00    +0.000 C 
ATOM     24  O   UNL     1       1.132  14.740  22.691  0.00  0.00    +0.000 OA
BRANCH  23  26
ATOM     25  C   UNL     1      -1.094  16.282  22.749  0.00  0.00    +0.000 C 
ATOM     26  O   UNL     1      -0.703  15.538  21.593  0.00  0.00    +0.000 OA
ENDBRANCH  23  26
ENDBRANCH   1  23
BRANCH  11  27
ATOM     27  C   UNL     1       1.477   8.021  20.911  0.00  0.00    +0.000 C 
BRANCH  27  28
ATOM     28  C   UNL     1       2.153   7.263  19.833  0.00  0.00    +0.000 A 
ATOM     29  C   UNL     1       2.470   7.569  18.527  0.00  0.00    +0.000 A 
ATOM     30  C   UNL     1       3.112   6.429  17.991  0.00  0.00    +0.000 A 
ATOM     31  C   UNL     1       3.140   5.496  19.002  0.00  0.00    +0.000 A 
ATOM     32  O   UNL     1       2.554   5.990  20.124  0.00  0.00    +0.000 OA
ENDBRANCH  27  28
ENDBRANCH  11  27
TORSDOF 7
ENDMDL
MODEL 4
REMARK VINA RESULT:      -6.3      6.444      8.563
REMARK  Name = 
REMARK  10 active torsions:
REMARK  status: ('A' for Active; 'I' for Inactive)
REMARK    1  A    between atoms: C_1  and  O_2
REMARK    2  A    between atoms: O_2  and  C_3
REMARK    3  A    between atoms: C_3  and  C_5
REMARK    4  A    between atoms: C_6  and  C_7
REMARK    5  A    between atoms: C_10  and  O_11
REMARK    6  A    between atoms: O_11  and  C_12
REMARK    7  A    between atoms: C_13  and  O_14
REMARK    8  A    between atoms: O_14  and  C_15
REMARK    9  A    between atoms: N_25  and  C_26
REMARK   10  A    between atoms: C_26  and  C_27
REMARK                            x       y       z     vdW  Elec       q    Type
REMARK                         _______ _______ _______ _____ _____    ______ ____
ROOT
ATOM      1  C   UNL     1       0.250  11.681  20.537  0.00  0.00    +0.000 C 
ATOM      2  C   UNL     1       1.190  12.146  19.673  0.00  0.00    +0.000 C 
ATOM      3  C   UNL     1       1.593  11.336  18.443  0.00  0.00    +0.000 C 
ATOM      4  C   UNL     1       0.714  10.078  18.251  0.00  0.00    +0.000 C 
ATOM      5  C   UNL     1      -0.728  10.431  17.854  0.00  0.00    +0.000 C 
ATOM      6  C   UNL     1      -1.497  10.542  19.185  0.00  0.00    +0.000 C 
ATOM      7  C   UNL     1      -0.428  10.339  20.266  0.00  0.00    +0.000 C 
ATOM      8  N   UNL     1       0.532   9.488  19.566  0.00  0.00    +0.000 N 
ATOM      9  C   UNL     1       1.232   8.486  20.183  0.00  0.00    +0.000 C 
ATOM     10  O   UNL     1       1.051   8.173  21.355  0.00  0.00    +0.000 OA
ATOM     11  N   UNL     1       2.103   7.816  19.365  0.00  0.00    +0.000 N 
ATOM     12  H   UNL     1       2.482   8.310  18.577  0.00  0.00    +0.000 HD
ENDROOT
BRANCH   2  13
ATOM     13  C   UNL     1       1.983  13.369  19.875  0.00  0.00    +0.000 A 
ATOM     14  C   UNL     1       2.965  13.468  20.857  0.00  0.00    +0.000 A 
ATOM     15  C   UNL     1       3.677  14.663  20.996  0.00  0.00    +0.000 A 
ATOM     16  C   UNL     1       3.420  15.770  20.170  0.00  0.00    +0.000 A 
ATOM     17  C   UNL     1       2.421  15.675  19.184  0.00  0.00    +0.000 A 
ATOM     18  C   UNL     1       1.719  14.469  19.049  0.00  0.00    +0.000 A 
BRANCH  16  19
ATOM     19  O   UNL     1       4.228  16.837  20.469  0.00  0.00    +0.000 OA
ATOM     20  C   UNL     1       5.495  16.934  19.835  0.00  0.00    +0.000 C 
ENDBRANCH  16  19
BRANCH  17  21
ATOM     21  O   UNL     1       2.163  16.764  18.394  0.00  0.00    +0.000 OA
ATOM     22  C   UNL     1       2.875  16.885  17.169  0.00  0.00    +0.000 C 
ENDBRANCH  17  21
ENDBRANCH   2  13
BRANCH   1  23
ATOM     23  C   UNL     1      -0.202  12.447  21.737  0.00  0.00    +0.000 C 
ATOM     24  O   UNL     1      -0.427  13.646  21.766  0.00  0.00    +0.000 OA
BRANCH  23  26
ATOM     25  C   UNL     1      -1.712  11.504  23.261  0.00  0.00    +0.000 C 
ATOM     26  O   UNL     1      -0.367  11.607  22.790  0.00  0.00    +0.000 OA
ENDBRANCH  23  26
ENDBRANCH   1  23
BRANCH  11  27
ATOM     27  C   UNL     1       2.910   6.720  19.846  0.00  0.00    +0.000 C 
BRANCH  27  28
ATOM     28  C   UNL     1       2.216   5.447  19.544  0.00  0.00    +0.000 A 
ATOM     29  C   UNL     1       2.068   4.710  18.389  0.00  0.00    +0.000 A 
ATOM     30  C   UNL     1       1.288   3.580  18.730  0.00  0.00    +0.000 A 
ATOM     31  C   UNL     1       1.003   3.704  20.070  0.00  0.00    +0.000 A 
ATOM     32  O   UNL     1       1.556   4.838  20.573  0.00  0.00    +0.000 OA
ENDBRANCH  27  28
ENDBRANCH  11  27
TORSDOF 7
ENDMDL
MODEL 5
REMARK VINA RESULT:      -6.2      6.521      8.528
REMARK  Name = 
REMARK  10 active torsions:
REMARK  status: ('A' for Active; 'I' for Inactive)
REMARK    1  A    between atoms: C_1  and  O_2
REMARK    2  A    between atoms: O_2  and  C_3
REMARK    3  A    between atoms: C_3  and  C_5
REMARK    4  A    between atoms: C_6  and  C_7
REMARK    5  A    between atoms: C_10  and  O_11
REMARK    6  A    between atoms: O_11  and  C_12
REMARK    7  A    between atoms: C_13  and  O_14
REMARK    8  A    between atoms: O_14  and  C_15
REMARK    9  A    between atoms: N_25  and  C_26
REMARK   10  A    between atoms: C_26  and  C_27
REMARK                            x       y       z     vdW  Elec       q    Type
REMARK                         _______ _______ _______ _____ _____    ______ ____
ROOT
ATOM      1  C   UNL     1       0.210  11.601  20.366  0.00  0.00    +0.000 C 
ATOM      2  C   UNL     1       1.167  12.027  19.501  0.00  0.00    +0.000 C 
ATOM      3  C   UNL     1       1.597  11.158  18.319  0.00  0.00    +0.000 C 
ATOM      4  C   UNL     1       0.722   9.891  18.170  0.00  0.00    +0.000 C 
ATOM      5  C   UNL     1      -0.710  10.222  17.727  0.00  0.00    +0.000 C 
ATOM      6  C   UNL     1      -1.508  10.396  19.034  0.00  0.00    +0.000 C 
ATOM      7  C   UNL     1      -0.462  10.247  20.146  0.00  0.00    +0.000 C 
ATOM      8  N   UNL     1       0.513   9.365  19.508  0.00  0.00    +0.000 N 
ATOM      9  C   UNL     1       1.201   8.395  20.187  0.00  0.00    +0.000 C 
ATOM     10  O   UNL     1       0.996   8.139  21.368  0.00  0.00    +0.000 OA
ATOM     11  N   UNL     1       2.089   7.687  19.421  0.00  0.00    +0.000 N 
ATOM     12  H   UNL     1       2.485   8.144  18.618  0.00  0.00    +0.000 HD
ENDROOT
BRANCH   2  13
ATOM     13  C   UNL     1       1.955  13.259  19.660  0.00  0.00    +0.000 A 
ATOM     14  C   UNL     1       2.853  13.440  20.708  0.00  0.00    +0.000 A 
ATOM     15  C   UNL     1       3.565  14.640  20.801  0.00  0.00    +0.000 A 
ATOM     16  C   UNL     1       3.390  15.670  19.862  0.00  0.00    +0.000 A 
ATOM     17  C   UNL     1       2.476  15.492  18.808  0.00  0.00    +0.000 A 
ATOM     18  C   UNL     1       1.774  14.282  18.721  0.00  0.00    +0.000 A 
BRANCH  16  19
ATOM     19  O   UNL     1       4.184  16.756  20.133  0.00  0.00    +0.000 OA
ATOM     20  C   UNL     1       5.443  16.861  19.486  0.00  0.00    +0.000 C 
ENDBRANCH  16  19
BRANCH  17  21
ATOM     21  O   UNL     1       2.297  16.508  17.907  0.00  0.00    +0.000 OA
ATOM     22  C   UNL     1       1.288  17.474  18.179  0.00  0.00    +0.000 C 
ENDBRANCH  17  21
ENDBRANCH   2  13
BRANCH   1  23
ATOM     23  C   UNL     1      -0.268  12.424  21.518  0.00  0.00    +0.000 C 
ATOM     24  O   UNL     1      -0.074  12.169  22.695  0.00  0.00    +0.000 OA
BRANCH  23  26
ATOM     25  C   UNL     1      -0.656  14.716  21.812  0.00  0.00    +0.000 C 
ATOM     26  O   UNL     1      -0.917  13.526  21.065  0.00  0.00    +0.000 OA
ENDBRANCH  23  26
ENDBRANCH   1  23
BRANCH  11  27
ATOM     27  C   UNL     1       2.887   6.618  19.971  0.00  0.00    +0.000 C 
BRANCH  27  28
ATOM     28  C   UNL     1       2.158   5.340  19.797  0.00  0.00    +0.000 A 
ATOM     29  C   UNL     1       1.467   4.528  20.669  0.00  0.00    +0.000 A 
ATOM     30  C   UNL     1       0.990   3.435  19.909  0.00  0.00    +0.000 A 
ATOM     31  C   UNL     1       1.428   3.645  18.622  0.00  0.00    +0.000 A 
ATOM     32  O   UNL     1       2.144   4.797  18.544  0.00  0.00    +0.000 OA
ENDBRANCH  27  28
ENDBRANCH  11  27
TORSDOF 7
ENDMDL
MODEL 6
REMARK VINA RESULT:      -6.2      1.064      1.254
REMARK  Name = 
REMARK  10 active torsions:
REMARK  status: ('A' for Active; 'I' for Inactive)
REMARK    1  A    between atoms: C_1  and  O_2
REMARK    2  A    between atoms: O_2  and  C_3
REMARK    3  A    between atoms: C_3  and  C_5
REMARK    4  A    between atoms: C_6  and  C_7
REMARK    5  A    between atoms: C_10  and  O_11
REMARK    6  A    between atoms: O_11  and  C_12
REMARK    7  A    between atoms: C_13  and  O_14
REMARK    8  A    between atoms: O_14  and  C_15
REMARK    9  A    between atoms: N_25  and  C_26
REMARK   10  A    between atoms: C_26  and  C_27
REMARK                            x       y       z     vdW  Elec       q    Type
REMARK                         _______ _______ _______ _____ _____    ______ ____
ROOT
ATOM      1  C   UNL     1       8.955  13.631  20.355  0.00  0.00    +0.000 C 
ATOM      2  C   UNL     1       8.753  12.823  21.428  0.00  0.00    +0.000 C 
ATOM      3  C   UNL     1       9.273  11.387  21.435  0.00  0.00    +0.000 C 
ATOM      4  C   UNL     1      10.146  11.069  20.199  0.00  0.00    +0.000 C 
ATOM      5  C   UNL     1      11.487  11.818  20.225  0.00  0.00    +0.000 C 
ATOM      6  C   UNL     1      11.226  13.139  19.474  0.00  0.00    +0.000 C 
ATOM      7  C   UNL     1       9.728  13.106  19.146  0.00  0.00    +0.000 C 
ATOM      8  N   UNL     1       9.485  11.669  19.053  0.00  0.00    +0.000 N 
ATOM      9  C   UNL     1       8.613  11.114  18.154  0.00  0.00    +0.000 C 
ATOM     10  O   UNL     1       8.025  11.776  17.304  0.00  0.00    +0.000 OA
ATOM     11  N   UNL     1       8.502   9.752  18.236  0.00  0.00    +0.000 N 
ATOM     12  H   UNL     1       8.682   9.319  19.124  0.00  0.00    +0.000 HD
ENDROOT
BRANCH   2  13
ATOM     13  C   UNL     1       7.942  13.176  22.604  0.00  0.00    +0.000 A 
ATOM     14  C   UNL     1       8.473  13.223  23.890  0.00  0.00    +0.000 A 
ATOM     15  C   UNL     1       7.643  13.562  24.962  0.00  0.00    +0.000 A 
ATOM     16  C   UNL     1       6.281  13.851  24.772  0.00  0.00    +0.000 A 
ATOM     17  C   UNL     1       5.741  13.795  23.474  0.00  0.00    +0.000 A 
ATOM     18  C   UNL     1       6.585  13.462  22.406  0.00  0.00    +0.000 A 
BRANCH  16  19
ATOM     19  O   UNL     1       5.649  14.162  25.949  0.00  0.00    +0.000 OA
ATOM     20  C   UNL     1       5.775  15.479  26.466  0.00  0.00    +0.000 C 
ENDBRANCH  16  19
BRANCH  17  21
ATOM     21  O   UNL     1       4.408  14.060  23.299  0.00  0.00    +0.000 OA
ATOM     22  C   UNL     1       4.011  14.726  22.106  0.00  0.00    +0.000 C 
ENDBRANCH  17  21
ENDBRANCH   2  13
BRANCH   1  23
ATOM     23  C   UNL     1       8.494  15.052  20.309  0.00  0.00    +0.000 C 
ATOM     24  O   UNL     1       8.997  15.977  20.924  0.00  0.00    +0.000 OA
BRANCH  23  26
ATOM     25  C   UNL     1       7.649  16.146  18.417  0.00  0.00    +0.000 C 
ATOM     26  O   UNL     1       7.453  15.176  19.447  0.00  0.00    +0.000 OA
ENDBRANCH  23  26
ENDBRANCH   1  23
BRANCH  11  27
ATOM     27  C   UNL     1       7.640   9.002  17.354  0.00  0.00    +0.000 C 
BRANCH  27  28
ATOM     28  C   UNL     1       7.674   7.576  17.753  0.00  0.00    +0.000 A 
ATOM     29  C   UNL     1       8.119   6.928  18.885  0.00  0.00    +0.000 A 
ATOM     30  C   UNL     1       7.890   5.548  18.675  0.00  0.00    +0.000 A 
ATOM     31  C   UNL     1       7.327   5.441  17.425  0.00  0.00    +0.000 A 
ATOM     32  O   UNL     1       7.197   6.666  16.852  0.00  0.00    +0.000 OA
ENDBRANCH  27  28
ENDBRANCH  11  27
TORSDOF 7
ENDMDL
MODEL 7
REMARK VINA RESULT:      -6.2      6.757      8.847
REMARK  Name = 
REMARK  10 active torsions:
REMARK  status: ('A' for Active; 'I' for Inactive)
REMARK    1  A    between atoms: C_1  and  O_2
REMARK    2  A    between atoms: O_2  and  C_3
REMARK    3  A    between atoms: C_3  and  C_5
REMARK    4  A    between atoms: C_6  and  C_7
REMARK    5  A    between atoms: C_10  and  O_11
REMARK    6  A    between atoms: O_11  and  C_12
REMARK    7  A    between atoms: C_13  and  O_14
REMARK    8  A    between atoms: O_14  and  C_15
REMARK    9  A    between atoms: N_25  and  C_26
REMARK   10  A    between atoms: C_26  and  C_27
REMARK                            x       y       z     vdW  Elec       q    Type
REMARK                         _______ _______ _______ _____ _____    ______ ____
ROOT
ATOM      1  C   UNL     1      -0.185  13.493  20.560  0.00  0.00    +0.000 C 
ATOM      2  C   UNL     1       0.822  13.515  19.648  0.00  0.00    +0.000 C 
ATOM      3  C   UNL     1       1.037  12.343  18.692  0.00  0.00    +0.000 C 
ATOM      4  C   UNL     1      -0.083  11.282  18.798  0.00  0.00    +0.000 C 
ATOM      5  C   UNL     1      -1.425  11.797  18.258  0.00  0.00    +0.000 C 
ATOM      6  C   UNL     1      -2.142  12.410  19.478  0.00  0.00    +0.000 C 
ATOM      7  C   UNL     1      -1.126  12.291  20.621  0.00  0.00    +0.000 C 
ATOM      8  N   UNL     1      -0.368  11.112  20.212  0.00  0.00    +0.000 N 
ATOM      9  C   UNL     1       0.119  10.190  21.100  0.00  0.00    +0.000 C 
ATOM     10  O   UNL     1      -0.110  10.243  22.304  0.00  0.00    +0.000 OA
ATOM     11  N   UNL     1       0.826   9.166  20.527  0.00  0.00    +0.000 N 
ATOM     12  H   UNL     1       1.290   9.347  19.655  0.00  0.00    +0.000 HD
ENDROOT
BRANCH   2  13
ATOM     13  C   UNL     1       1.850  14.563  19.557  0.00  0.00    +0.000 A 
ATOM     14  C   UNL     1       2.981  14.571  20.368  0.00  0.00    +0.000 A 
ATOM     15  C   UNL     1       3.916  15.602  20.231  0.00  0.00    +0.000 A 
ATOM     16  C   UNL     1       3.736  16.635  19.296  0.00  0.00    +0.000 A 
ATOM     17  C   UNL     1       2.588  16.634  18.482  0.00  0.00    +0.000 A 
ATOM     18  C   UNL     1       1.663  15.590  18.623  0.00  0.00    +0.000 A 
BRANCH  16  19
ATOM     19  O   UNL     1       4.766  17.540  19.321  0.00  0.00    +0.000 OA
ATOM     20  C   UNL     1       5.295  17.940  20.577  0.00  0.00    +0.000 C 
ENDBRANCH  16  19
BRANCH  17  21
ATOM     21  O   UNL     1       2.411  17.653  17.585  0.00  0.00    +0.000 OA
ATOM     22  C   UNL     1       1.100  18.182  17.425  0.00  0.00    +0.000 C 
ENDBRANCH  17  21
ENDBRANCH   2  13
BRANCH   1  23
ATOM     23  C   UNL     1      -0.458  14.625  21.496  0.00  0.00    +0.000 C 
ATOM     24  O   UNL     1      -0.986  15.682  21.191  0.00  0.00    +0.000 OA
BRANCH  23  26
ATOM     25  C   UNL     1      -1.117  14.324  23.725  0.00  0.00    +0.000 C 
ATOM     26  O   UNL     1      -0.069  14.293  22.754  0.00  0.00    +0.000 OA
ENDBRANCH  23  26
ENDBRANCH   1  23
BRANCH  11  27
ATOM     27  C   UNL     1       1.397   8.100  21.314  0.00  0.00    +0.000 C 
BRANCH  27  28
ATOM     28  C   UNL     1       1.853   7.025  20.401  0.00  0.00    +0.000 A 
ATOM     29  C   UNL     1       1.867   5.651  20.503  0.00  0.00    +0.000 A 
ATOM     30  C   UNL     1       2.432   5.165  19.301  0.00  0.00    +0.000 A 
ATOM     31  C   UNL     1       2.735   6.274  18.546  0.00  0.00    +0.000 A 
ATOM     32  O   UNL     1       2.393   7.410  19.207  0.00  0.00    +0.000 OA
ENDBRANCH  27  28
ENDBRANCH  11  27
TORSDOF 7
ENDMDL
MODEL 8
REMARK VINA RESULT:      -6.2      6.459      8.625
REMARK  Name = 
REMARK  10 active torsions:
REMARK  status: ('A' for Active; 'I' for Inactive)
REMARK    1  A    between atoms: C_1  and  O_2
REMARK    2  A    between atoms: O_2  and  C_3
REMARK    3  A    between atoms: C_3  and  C_5
REMARK    4  A    between atoms: C_6  and  C_7
REMARK    5  A    between atoms: C_10  and  O_11
REMARK    6  A    between atoms: O_11  and  C_12
REMARK    7  A    between atoms: C_13  and  O_14
REMARK    8  A    between atoms: O_14  and  C_15
REMARK    9  A    between atoms: N_25  and  C_26
REMARK   10  A    between atoms: C_26  and  C_27
REMARK                            x       y       z     vdW  Elec       q    Type
REMARK                         _______ _______ _______ _____ _____    ______ ____
ROOT
ATOM      1  C   UNL     1       0.227  11.924  20.195  0.00  0.00    +0.000 C 
ATOM      2  C   UNL     1       1.297  12.091  19.374  0.00  0.00    +0.000 C 
ATOM      3  C   UNL     1       1.699  11.001  18.382  0.00  0.00    +0.000 C 
ATOM      4  C   UNL     1       0.681   9.838  18.338  0.00  0.00    +0.000 C 
ATOM      5  C   UNL     1      -0.657  10.260  17.713  0.00  0.00    +0.000 C 
ATOM      6  C   UNL     1      -1.525  10.733  18.896  0.00  0.00    +0.000 C 
ATOM      7  C   UNL     1      -0.597  10.640  20.114  0.00  0.00    +0.000 C 
ATOM      8  N   UNL     1       0.301   9.560  19.712  0.00  0.00    +0.000 N 
ATOM      9  C   UNL     1       0.800   8.636  20.591  0.00  0.00    +0.000 C 
ATOM     10  O   UNL     1       0.472   8.597  21.772  0.00  0.00    +0.000 OA
ATOM     11  N   UNL     1       1.645   7.717  20.029  0.00  0.00    +0.000 N 
ATOM     12  H   UNL     1       2.159   7.989  19.209  0.00  0.00    +0.000 HD
ENDROOT
BRANCH   2  13
ATOM     13  C   UNL     1       2.224  13.232  19.425  0.00  0.00    +0.000 A 
ATOM     14  C   UNL     1       2.903  13.590  20.586  0.00  0.00    +0.000 A 
ATOM     15  C   UNL     1       3.766  14.690  20.564  0.00  0.00    +0.000 A 
ATOM     16  C   UNL     1       3.959  15.446  19.396  0.00  0.00    +0.000 A 
ATOM     17  C   UNL     1       3.266  15.091  18.224  0.00  0.00    +0.000 A 
ATOM     18  C   UNL     1       2.410  13.982  18.257  0.00  0.00    +0.000 A 
BRANCH  16  19
ATOM     19  O   UNL     1       4.846  16.476  19.588  0.00  0.00    +0.000 OA
ATOM     20  C   UNL     1       6.219  16.260  19.296  0.00  0.00    +0.000 C 
ENDBRANCH  16  19
BRANCH  17  21
ATOM     21  O   UNL     1       3.446  15.844  17.094  0.00  0.00    +0.000 OA
ATOM     22  C   UNL     1       2.715  17.059  16.977  0.00  0.00    +0.000 C 
ENDBRANCH  17  21
ENDBRANCH   2  13
BRANCH   1  23
ATOM     23  C   UNL     1      -0.227  12.970  21.161  0.00  0.00    +0.000 C 
ATOM     24  O   UNL     1      -0.632  14.081  20.860  0.00  0.00    +0.000 OA
BRANCH  23  26
ATOM     25  C   UNL     1      -1.425  12.416  23.098  0.00  0.00    +0.000 C 
ATOM     26  O   UNL     1      -0.164  12.491  22.429  0.00  0.00    +0.000 OA
ENDBRANCH  23  26
ENDBRANCH   1  23
BRANCH  11  27
ATOM     27  C   UNL     1       2.251   6.662  20.806  0.00  0.00    +0.000 C 
BRANCH  27  28
ATOM     28  C   UNL     1       1.858   5.357  20.226  0.00  0.00    +0.000 A 
ATOM     29  C   UNL     1       1.362   4.196  20.778  0.00  0.00    +0.000 A 
ATOM     30  C   UNL     1       1.186   3.285  19.710  0.00  0.00    +0.000 A 
ATOM     31  C   UNL     1       1.593   3.947  18.575  0.00  0.00    +0.000 A 
ATOM     32  O   UNL     1       2.010   5.203  18.877  0.00  0.00    +0.000 OA
ENDBRANCH  27  28
ENDBRANCH  11  27
TORSDOF 7
ENDMDL
MODEL 9
REMARK VINA RESULT:      -6.1      6.325      8.309
REMARK  Name = 
REMARK  10 active torsions:
REMARK  status: ('A' for Active; 'I' for Inactive)
REMARK    1  A    between atoms: C_1  and  O_2
REMARK    2  A    between atoms: O_2  and  C_3
REMARK    3  A    between atoms: C_3  and  C_5
REMARK    4  A    between atoms: C_6  and  C_7
REMARK    5  A    between atoms: C_10  and  O_11
REMARK    6  A    between atoms: O_11  and  C_12
REMARK    7  A    between atoms: C_13  and  O_14
REMARK    8  A    between atoms: O_14  and  C_15
REMARK    9  A    between atoms: N_25  and  C_26
REMARK   10  A    between atoms: C_26  and  C_27
REMARK                            x       y       z     vdW  Elec       q    Type
REMARK                         _______ _______ _______ _____ _____    ______ ____
ROOT
ATOM      1  C   UNL     1       0.283  11.597  20.342  0.00  0.00    +0.000 C 
ATOM      2  C   UNL     1       1.232  12.028  19.470  0.00  0.00    +0.000 C 
ATOM      3  C   UNL     1       1.659  11.163  18.286  0.00  0.00    +0.000 C 
ATOM      4  C   UNL     1       0.791   9.891  18.142  0.00  0.00    +0.000 C 
ATOM      5  C   UNL     1      -0.646  10.213  17.708  0.00  0.00    +0.000 C 
ATOM      6  C   UNL     1      -1.436  10.382  19.021  0.00  0.00    +0.000 C 
ATOM      7  C   UNL     1      -0.382  10.239  20.125  0.00  0.00    +0.000 C 
ATOM      8  N   UNL     1       0.594   9.363  19.481  0.00  0.00    +0.000 N 
ATOM      9  C   UNL     1       1.292   8.397  20.155  0.00  0.00    +0.000 C 
ATOM     10  O   UNL     1       1.096   8.139  21.338  0.00  0.00    +0.000 OA
ATOM     11  N   UNL     1       2.179   7.695  19.383  0.00  0.00    +0.000 N 
ATOM     12  H   UNL     1       2.567   8.153  18.578  0.00  0.00    +0.000 HD
ENDROOT
BRANCH   2  13
ATOM     13  C   UNL     1       2.014  13.265  19.625  0.00  0.00    +0.000 A 
ATOM     14  C   UNL     1       2.013  14.273  18.666  0.00  0.00    +0.000 A 
ATOM     15  C   UNL     1       2.783  15.421  18.876  0.00  0.00    +0.000 A 
ATOM     16  C   UNL     1       3.564  15.578  20.034  0.00  0.00    +0.000 A 
ATOM     17  C   UNL     1       3.573  14.555  21.000  0.00  0.00    +0.000 A 
ATOM     18  C   UNL     1       2.790  13.413  20.782  0.00  0.00    +0.000 A 
BRANCH  16  19
ATOM     19  O   UNL     1       4.237  16.772  20.046  0.00  0.00    +0.000 OA
ATOM     20  C   UNL     1       5.351  16.939  19.180  0.00  0.00    +0.000 C 
ENDBRANCH  16  19
BRANCH  17  21
ATOM     21  O   UNL     1       4.350  14.706  22.118  0.00  0.00    +0.000 OA
ATOM     22  C   UNL     1       5.277  13.674  22.433  0.00  0.00    +0.000 C 
ENDBRANCH  17  21
ENDBRANCH   2  13
BRANCH   1  23
ATOM     23  C   UNL     1      -0.192  12.417  21.497  0.00  0.00    +0.000 C 
ATOM     24  O   UNL     1      -0.575  13.573  21.433  0.00  0.00    +0.000 OA
BRANCH  23  26
ATOM     25  C   UNL     1      -1.462  11.441  23.208  0.00  0.00    +0.000 C 
ATOM     26  O   UNL     1      -0.175  11.673  22.633  0.00  0.00    +0.000 OA
ENDBRANCH  23  26
ENDBRANCH   1  23
BRANCH  11  27
ATOM     27  C   UNL     1       2.988   6.630  19.928  0.00  0.00    +0.000 C 
BRANCH  27  28
ATOM     28  C   UNL     1       2.247   5.354  19.796  0.00  0.00    +0.000 A 
ATOM     29  C   UNL     1       1.909   4.572  18.713  0.00  0.00    +0.000 A 
ATOM     30  C   UNL     1       1.189   3.467  19.223  0.00  0.00    +0.000 A 
ATOM     31  C   UNL     1       1.126   3.648  20.585  0.00  0.00    +0.000 A 
ATOM     32  O   UNL     1       1.760   4.795  20.944  0.00  0.00    +0.000 OA
ENDBRANCH  27  28
ENDBRANCH  11  27
TORSDOF 7
ENDMDL
