MODEL 1
REMARK VINA RESULT:      -7.9      0.000      0.000
REMARK  Name = 
REMARK  7 active torsions:
REMARK  status: ('A' for Active; 'I' for Inactive)
REMARK    1  A    between atoms: C_1  and  C_2
REMARK    2  A    between atoms: C_2  and  C_3
REMARK    3  A    between atoms: C_3  and  N_4
REMARK    4  A    between atoms: C_7  and  N_8
REMARK    5  A    between atoms: N_8  and  C_9
REMARK    6  A    between atoms: C_10  and  C_12
REMARK    7  A    between atoms: C_14  and  C_15
REMARK                            x       y       z     vdW  Elec       q    Type
REMARK                         _______ _______ _______ _____ _____    ______ ____
ROOT
ATOM      1  N   UNL     1       1.535   9.108  19.207  0.00  0.00    +0.000 N 
ATOM      2  C   UNL     1       1.856   9.494  17.831  0.00  0.00    +0.000 C 
ATOM      3  C   UNL     1       2.021   7.916  19.801  0.00  0.00    +0.000 C 
ATOM      4  O   UNL     1       1.928   7.731  21.012  0.00  0.00    +0.000 OA
ENDROOT
BRANCH   3   5
ATOM      5  C   UNL     1       2.631   6.815  18.975  0.00  0.00    +0.000 A 
ATOM      6  C   UNL     1       3.484   7.153  17.922  0.00  0.00    +0.000 A 
ATOM      7  C   UNL     1       4.111   6.153  17.204  0.00  0.00    +0.000 A 
ATOM      8  C   UNL     1       5.102   6.482  16.128  0.00  0.00    +0.000 C 
ATOM      9  N   UNL     1       3.863   4.848  17.426  0.00  0.00    +0.000 NA
ATOM     10  C   UNL     1       2.950   4.503  18.344  0.00  0.00    +0.000 A 
ATOM     11  C   UNL     1       2.645   3.156  18.449  0.00  0.00    +0.000 A 
ATOM     12  C   UNL     1       1.676   2.702  19.330  0.00  0.00    +0.000 A 
ATOM     13  F   UNL     1       1.381   1.396  19.377  0.00  0.00    +0.000 F 
ATOM     14  C   UNL     1       1.001   3.585  20.151  0.00  0.00    +0.000 A 
ATOM     15  C   UNL     1       1.318   4.941  20.086  0.00  0.00    +0.000 A 
ATOM     16  C   UNL     1       2.283   5.444  19.168  0.00  0.00    +0.000 A 
ENDBRANCH   3   5
BRANCH   1  20
ATOM     17  N   UNL     1      -1.423  11.398  18.647  0.00  0.00    +0.000 NA
ATOM     18  C   UNL     1      -1.483   9.992  19.080  0.00  0.00    +0.000 C 
ATOM     19  C   UNL     1      -0.655   9.739  20.332  0.00  0.00    +0.000 C 
ATOM     20  C   UNL     1       0.830  10.084  20.101  0.00  0.00    +0.000 C 
ATOM     21  C   UNL     1       0.850  11.571  19.693  0.00  0.00    +0.000 C 
ATOM     22  C   UNL     1      -0.035  11.858  18.476  0.00  0.00    +0.000 C 
BRANCH  17  23
ATOM     23  C   UNL     1      -2.168  11.602  17.388  0.00  0.00    +0.000 C 
BRANCH  23  25
ATOM     24  C   UNL     1      -2.994  10.621  15.218  0.00  0.00    +0.000 C 
ATOM     25  C   UNL     1      -2.324  10.326  16.552  0.00  0.00    +0.000 C 
ENDBRANCH  23  25
ENDBRANCH  17  23
ENDBRANCH   1  20
TORSDOF 4
ENDMDL
MODEL 2
REMARK VINA RESULT:      -7.4      1.762      3.070
REMARK  Name = 
REMARK  7 active torsions:
REMARK  status: ('A' for Active; 'I' for Inactive)
REMARK    1  A    between atoms: C_1  and  C_2
REMARK    2  A    between atoms: C_2  and  C_3
REMARK    3  A    between atoms: C_3  and  N_4
REMARK    4  A    between atoms: C_7  and  N_8
REMARK    5  A    between atoms: N_8  and  C_9
REMARK    6  A    between atoms: C_10  and  C_12
REMARK    7  A    between atoms: C_14  and  C_15
REMARK                            x       y       z     vdW  Elec       q    Type
REMARK                         _______ _______ _______ _____ _____    ______ ____
ROOT
ATOM      1  N   UNL     1       1.605   8.615  19.054  0.00  0.00    +0.000 N 
ATOM      2  C   UNL     1       1.606   8.778  17.598  0.00  0.00    +0.000 C 
ATOM      3  C   UNL     1       2.123   7.462  19.695  0.00  0.00    +0.000 C 
ATOM      4  O   UNL     1       2.319   7.448  20.908  0.00  0.00    +0.000 OA
ENDROOT
BRANCH   3   5
ATOM      5  C   UNL     1       2.416   6.198  18.930  0.00  0.00    +0.000 A 
ATOM      6  C   UNL     1       1.638   5.064  19.175  0.00  0.00    +0.000 A 
ATOM      7  C   UNL     1       1.844   3.920  18.427  0.00  0.00    +0.000 A 
ATOM      8  C   UNL     1       0.968   2.717  18.601  0.00  0.00    +0.000 C 
ATOM      9  N   UNL     1       2.836   3.828  17.519  0.00  0.00    +0.000 NA
ATOM     10  C   UNL     1       3.676   4.858  17.362  0.00  0.00    +0.000 A 
ATOM     11  C   UNL     1       4.748   4.667  16.504  0.00  0.00    +0.000 A 
ATOM     12  C   UNL     1       5.704   5.653  16.314  0.00  0.00    +0.000 A 
ATOM     13  F   UNL     1       6.747   5.418  15.506  0.00  0.00    +0.000 F 
ATOM     14  C   UNL     1       5.598   6.871  16.957  0.00  0.00    +0.000 A 
ATOM     15  C   UNL     1       4.508   7.096  17.796  0.00  0.00    +0.000 A 
ATOM     16  C   UNL     1       3.528   6.093  18.042  0.00  0.00    +0.000 A 
ENDBRANCH   3   5
BRANCH   1  20
ATOM     17  N   UNL     1      -1.098  11.245  18.762  0.00  0.00    +0.000 NA
ATOM     18  C   UNL     1      -1.240   9.918  19.384  0.00  0.00    +0.000 C 
ATOM     19  C   UNL     1      -0.210   9.681  20.478  0.00  0.00    +0.000 C 
ATOM     20  C   UNL     1       1.226   9.775  19.925  0.00  0.00    +0.000 C 
ATOM     21  C   UNL     1       1.347  11.190  19.324  0.00  0.00    +0.000 C 
ATOM     22  C   UNL     1       0.271  11.473  18.270  0.00  0.00    +0.000 C 
BRANCH  17  23
ATOM     23  C   UNL     1      -2.055  11.421  17.652  0.00  0.00    +0.000 C 
BRANCH  23  25
ATOM     24  C   UNL     1      -2.818  10.550  15.413  0.00  0.00    +0.000 C 
ATOM     25  C   UNL     1      -2.180  10.190  16.746  0.00  0.00    +0.000 C 
ENDBRANCH  23  25
ENDBRANCH  17  23
ENDBRANCH   1  20
TORSDOF 4
ENDMDL
MODEL 3
REMARK VINA RESULT:      -7.4      1.999      3.222
REMARK  Name = 
REMARK  7 active torsions:
REMARK  status: ('A' for Active; 'I' for Inactive)
REMARK    1  A    between atoms: C_1  and  C_2
REMARK    2  A    between atoms: C_2  and  C_3
REMARK    3  A    between atoms: C_3  and  N_4
REMARK    4  A    between atoms: C_7  and  N_8
REMARK    5  A    between atoms: N_8  and  C_9
REMARK    6  A    between atoms: C_10  and  C_12
REMARK    7  A    between atoms: C_14  and  C_15
REMARK                            x       y       z     vdW  Elec       q    Type
REMARK                         _______ _______ _______ _____ _____    ______ ____
ROOT
ATOM      1  N   UNL     1       2.234   8.346  18.488  0.00  0.00    +0.000 N 
ATOM      2  C   UNL     1       1.841   7.904  19.828  0.00  0.00    +0.000 C 
ATOM      3  C   UNL     1       3.076   7.578  17.644  0.00  0.00    +0.000 C 
ATOM      4  O   UNL     1       3.203   7.857  16.455  0.00  0.00    +0.000 OA
ENDROOT
BRANCH   3   5
ATOM      5  C   UNL     1       3.877   6.418  18.174  0.00  0.00    +0.000 A 
ATOM      6  C   UNL     1       5.257   6.565  18.331  0.00  0.00    +0.000 A 
ATOM      7  C   UNL     1       5.994   5.537  18.887  0.00  0.00    +0.000 A 
ATOM      8  C   UNL     1       7.461   5.697  19.152  0.00  0.00    +0.000 C 
ATOM      9  N   UNL     1       5.441   4.352  19.210  0.00  0.00    +0.000 NA
ATOM     10  C   UNL     1       4.144   4.143  18.947  0.00  0.00    +0.000 A 
ATOM     11  C   UNL     1       3.653   2.869  19.187  0.00  0.00    +0.000 A 
ATOM     12  C   UNL     1       2.339   2.536  18.899  0.00  0.00    +0.000 A 
ATOM     13  F   UNL     1       1.910   1.284  19.108  0.00  0.00    +0.000 F 
ATOM     14  C   UNL     1       1.470   3.480  18.385  0.00  0.00    +0.000 A 
ATOM     15  C   UNL     1       1.933   4.776  18.171  0.00  0.00    +0.000 A 
ATOM     16  C   UNL     1       3.286   5.142  18.422  0.00  0.00    +0.000 A 
ENDBRANCH   3   5
BRANCH   1  20
ATOM     17  N   UNL     1       0.306  11.218  20.017  0.00  0.00    +0.000 NA
ATOM     18  C   UNL     1       1.767  11.144  19.851  0.00  0.00    +0.000 C 
ATOM     19  C   UNL     1       2.170  10.885  18.407  0.00  0.00    +0.000 C 
ATOM     20  C   UNL     1       1.582   9.557  17.890  0.00  0.00    +0.000 C 
ATOM     21  C   UNL     1       0.054   9.693  18.041  0.00  0.00    +0.000 C 
ATOM     22  C   UNL     1      -0.367  10.025  19.476  0.00  0.00    +0.000 C 
BRANCH  17  23
ATOM     23  C   UNL     1      -0.063  11.389  21.437  0.00  0.00    +0.000 C 
BRANCH  23  25
ATOM     24  C   UNL     1       0.303   9.505  23.072  0.00  0.00    +0.000 C 
ATOM     25  C   UNL     1      -0.662  10.129  22.074  0.00  0.00    +0.000 C 
ENDBRANCH  23  25
ENDBRANCH  17  23
ENDBRANCH   1  20
TORSDOF 4
ENDMDL
MODEL 4
REMARK VINA RESULT:      -7.4      1.374      2.384
REMARK  Name = 
REMARK  7 active torsions:
REMARK  status: ('A' for Active; 'I' for Inactive)
REMARK    1  A    between atoms: C_1  and  C_2
REMARK    2  A    between atoms: C_2  and  C_3
REMARK    3  A    between atoms: C_3  and  N_4
REMARK    4  A    between atoms: C_7  and  N_8
REMARK    5  A    between atoms: N_8  and  C_9
REMARK    6  A    between atoms: C_10  and  C_12
REMARK    7  A    between atoms: C_14  and  C_15
REMARK                            x       y       z     vdW  Elec       q    Type
REMARK                         _______ _______ _______ _____ _____    ______ ____
ROOT
ATOM      1  N   UNL     1       0.989   9.056  19.392  0.00  0.00    +0.000 N 
ATOM      2  C   UNL     1       1.156   9.397  17.978  0.00  0.00    +0.000 C 
ATOM      3  C   UNL     1       1.709   8.006  20.017  0.00  0.00    +0.000 C 
ATOM      4  O   UNL     1       1.722   7.889  21.240  0.00  0.00    +0.000 OA
ENDROOT
BRANCH   3   5
ATOM      5  C   UNL     1       2.451   6.971  19.213  0.00  0.00    +0.000 A 
ATOM      6  C   UNL     1       3.323   7.394  18.207  0.00  0.00    +0.000 A 
ATOM      7  C   UNL     1       4.068   6.461  17.512  0.00  0.00    +0.000 A 
ATOM      8  C   UNL     1       5.078   6.887  16.490  0.00  0.00    +0.000 C 
ATOM      9  N   UNL     1       3.923   5.136  17.712  0.00  0.00    +0.000 NA
ATOM     10  C   UNL     1       3.000   4.704  18.580  0.00  0.00    +0.000 A 
ATOM     11  C   UNL     1       2.808   3.333  18.660  0.00  0.00    +0.000 A 
ATOM     12  C   UNL     1       1.840   2.787  19.488  0.00  0.00    +0.000 A 
ATOM     13  F   UNL     1       1.657   1.460  19.511  0.00  0.00    +0.000 F 
ATOM     14  C   UNL     1       1.052   3.599  20.282  0.00  0.00    +0.000 A 
ATOM     15  C   UNL     1       1.254   4.978  20.244  0.00  0.00    +0.000 A 
ATOM     16  C   UNL     1       2.214   5.573  19.378  0.00  0.00    +0.000 A 
ENDBRANCH   3   5
BRANCH   1  20
ATOM     17  N   UNL     1       0.427  12.796  19.393  0.00  0.00    +0.000 NA
ATOM     18  C   UNL     1      -0.346  11.802  18.630  0.00  0.00    +0.000 C 
ATOM     19  C   UNL     1      -0.930  10.717  19.523  0.00  0.00    +0.000 C 
ATOM     20  C   UNL     1       0.179   9.955  20.277  0.00  0.00    +0.000 C 
ATOM     21  C   UNL     1       0.934  11.023  21.093  0.00  0.00    +0.000 C 
ATOM     22  C   UNL     1       1.468  12.162  20.219  0.00  0.00    +0.000 C 
BRANCH  17  23
ATOM     23  C   UNL     1       1.049  13.792  18.497  0.00  0.00    +0.000 C 
BRANCH  23  25
ATOM     24  C   UNL     1       3.215  14.937  17.906  0.00  0.00    +0.000 C 
ATOM     25  C   UNL     1       2.569  13.640  18.369  0.00  0.00    +0.000 C 
ENDBRANCH  23  25
ENDBRANCH  17  23
ENDBRANCH   1  20
TORSDOF 4
ENDMDL
MODEL 5
REMARK VINA RESULT:      -7.2      2.794      7.458
REMARK  Name = 
REMARK  7 active torsions:
REMARK  status: ('A' for Active; 'I' for Inactive)
REMARK    1  A    between atoms: C_1  and  C_2
REMARK    2  A    between atoms: C_2  and  C_3
REMARK    3  A    between atoms: C_3  and  N_4
REMARK    4  A    between atoms: C_7  and  N_8
REMARK    5  A    between atoms: N_8  and  C_9
REMARK    6  A    between atoms: C_10  and  C_12
REMARK    7  A    between atoms: C_14  and  C_15
REMARK                            x       y       z     vdW  Elec       q    Type
REMARK                         _______ _______ _______ _____ _____    ______ ____
ROOT
ATOM      1  N   UNL     1       1.873   8.089  19.237  0.00  0.00    +0.000 N 
ATOM      2  C   UNL     1       1.439   7.779  20.601  0.00  0.00    +0.000 C 
ATOM      3  C   UNL     1       1.495   9.279  18.565  0.00  0.00    +0.000 C 
ATOM      4  O   UNL     1       2.050   9.621  17.523  0.00  0.00    +0.000 OA
ENDROOT
BRANCH   3   5
ATOM      5  C   UNL     1       0.376  10.150  19.073  0.00  0.00    +0.000 A 
ATOM      6  C   UNL     1       0.497  10.740  20.333  0.00  0.00    +0.000 A 
ATOM      7  C   UNL     1      -0.485  11.602  20.781  0.00  0.00    +0.000 A 
ATOM      8  C   UNL     1      -0.342  12.322  22.088  0.00  0.00    +0.000 C 
ATOM      9  N   UNL     1      -1.611  11.833  20.077  0.00  0.00    +0.000 NA
ATOM     10  C   UNL     1      -1.807  11.177  18.926  0.00  0.00    +0.000 A 
ATOM     11  C   UNL     1      -3.032  11.358  18.302  0.00  0.00    +0.000 A 
ATOM     12  C   UNL     1      -3.355  10.684  17.135  0.00  0.00    +0.000 A 
ATOM     13  F   UNL     1      -4.563  10.855  16.582  0.00  0.00    +0.000 F 
ATOM     14  C   UNL     1      -2.447   9.826  16.544  0.00  0.00    +0.000 A 
ATOM     15  C   UNL     1      -1.196   9.657  17.135  0.00  0.00    +0.000 A 
ATOM     16  C   UNL     1      -0.846  10.307  18.352  0.00  0.00    +0.000 A 
ENDBRANCH   3   5
BRANCH   1  20
ATOM     17  N   UNL     1       2.279   4.338  18.980  0.00  0.00    +0.000 NA
ATOM     18  C   UNL     1       1.500   5.191  18.068  0.00  0.00    +0.000 C 
ATOM     19  C   UNL     1       2.336   6.316  17.476  0.00  0.00    +0.000 C 
ATOM     20  C   UNL     1       2.909   7.228  18.578  0.00  0.00    +0.000 C 
ATOM     21  C   UNL     1       3.751   6.306  19.483  0.00  0.00    +0.000 C 
ATOM     22  C   UNL     1       2.943   5.126  20.032  0.00  0.00    +0.000 C 
BRANCH  17  23
ATOM     23  C   UNL     1       1.429   3.304  19.603  0.00  0.00    +0.000 C 
BRANCH  23  25
ATOM     24  C   UNL     1       3.060   1.818  18.384  0.00  0.00    +0.000 C 
ATOM     25  C   UNL     1       1.724   1.883  19.108  0.00  0.00    +0.000 C 
ENDBRANCH  23  25
ENDBRANCH  17  23
ENDBRANCH   1  20
TORSDOF 4
ENDMDL
MODEL 6
REMARK VINA RESULT:      -7.2      4.008      6.636
REMARK  Name = 
REMARK  7 active torsions:
REMARK  status: ('A' for Active; 'I' for Inactive)
REMARK    1  A    between atoms: C_1  and  C_2
REMARK    2  A    between atoms: C_2  and  C_3
REMARK    3  A    between atoms: C_3  and  N_4
REMARK    4  A    between atoms: C_7  and  N_8
REMARK    5  A    between atoms: N_8  and  C_9
REMARK    6  A    between atoms: C_10  and  C_12
REMARK    7  A    between atoms: C_14  and  C_15
REMARK                            x       y       z     vdW  Elec       q    Type
REMARK                         _______ _______ _______ _____ _____    ______ ____
ROOT
ATOM      1  N   UNL     1       4.021   3.534  18.498  0.00  0.00    +0.000 N 
ATOM      2  C   UNL     1       5.201   3.423  19.358  0.00  0.00    +0.000 C 
ATOM      3  C   UNL     1       4.090   3.996  17.159  0.00  0.00    +0.000 C 
ATOM      4  O   UNL     1       3.137   3.865  16.395  0.00  0.00    +0.000 OA
ENDROOT
BRANCH   3   5
ATOM      5  C   UNL     1       5.312   4.700  16.630  0.00  0.00    +0.000 A 
ATOM      6  C   UNL     1       5.910   5.693  17.408  0.00  0.00    +0.000 A 
ATOM      7  C   UNL     1       7.075   6.294  16.971  0.00  0.00    +0.000 A 
ATOM      8  C   UNL     1       7.791   7.299  17.823  0.00  0.00    +0.000 C 
ATOM      9  N   UNL     1       7.617   6.016  15.769  0.00  0.00    +0.000 NA
ATOM     10  C   UNL     1       6.988   5.162  14.951  0.00  0.00    +0.000 A 
ATOM     11  C   UNL     1       7.522   5.003  13.681  0.00  0.00    +0.000 A 
ATOM     12  C   UNL     1       6.916   4.183  12.742  0.00  0.00    +0.000 A 
ATOM     13  F   UNL     1       7.439   4.083  11.512  0.00  0.00    +0.000 F 
ATOM     14  C   UNL     1       5.771   3.477  13.057  0.00  0.00    +0.000 A 
ATOM     15  C   UNL     1       5.238   3.595  14.339  0.00  0.00    +0.000 A 
ATOM     16  C   UNL     1       5.815   4.456  15.316  0.00  0.00    +0.000 A 
ENDBRANCH   3   5
BRANCH   1  20
ATOM     17  N   UNL     1       1.190   4.988  20.542  0.00  0.00    +0.000 NA
ATOM     18  C   UNL     1       1.349   5.090  19.082  0.00  0.00    +0.000 C 
ATOM     19  C   UNL     1       1.488   3.727  18.420  0.00  0.00    +0.000 C 
ATOM     20  C   UNL     1       2.714   2.964  18.961  0.00  0.00    +0.000 C 
ATOM     21  C   UNL     1       2.487   2.841  20.482  0.00  0.00    +0.000 C 
ATOM     22  C   UNL     1       2.273   4.201  21.155  0.00  0.00    +0.000 C 
BRANCH  17  23
ATOM     23  C   UNL     1       1.137   6.324  21.169  0.00  0.00    +0.000 C 
BRANCH  23  25
ATOM     24  C   UNL     1       1.159   8.762  20.530  0.00  0.00    +0.000 C 
ATOM     25  C   UNL     1       1.843   7.415  20.355  0.00  0.00    +0.000 C 
ENDBRANCH  23  25
ENDBRANCH  17  23
ENDBRANCH   1  20
TORSDOF 4
ENDMDL
MODEL 7
REMARK VINA RESULT:      -7.2      2.405      4.177
REMARK  Name = 
REMARK  7 active torsions:
REMARK  status: ('A' for Active; 'I' for Inactive)
REMARK    1  A    between atoms: C_1  and  C_2
REMARK    2  A    between atoms: C_2  and  C_3
REMARK    3  A    between atoms: C_3  and  N_4
REMARK    4  A    between atoms: C_7  and  N_8
REMARK    5  A    between atoms: N_8  and  C_9
REMARK    6  A    between atoms: C_10  and  C_12
REMARK    7  A    between atoms: C_14  and  C_15
REMARK                            x       y       z     vdW  Elec       q    Type
REMARK                         _______ _______ _______ _____ _____    ______ ____
ROOT
ATOM      1  N   UNL     1       1.686   8.924  19.025  0.00  0.00    +0.000 N 
ATOM      2  C   UNL     1       1.327   8.636  20.415  0.00  0.00    +0.000 C 
ATOM      3  C   UNL     1       2.289   7.963  18.174  0.00  0.00    +0.000 C 
ATOM      4  O   UNL     1       2.369   8.153  16.963  0.00  0.00    +0.000 OA
ENDROOT
BRANCH   3   5
ATOM      5  C   UNL     1       2.891   6.695  18.719  0.00  0.00    +0.000 A 
ATOM      6  C   UNL     1       2.231   6.022  19.751  0.00  0.00    +0.000 A 
ATOM      7  C   UNL     1       2.729   4.818  20.209  0.00  0.00    +0.000 A 
ATOM      8  C   UNL     1       1.997   4.027  21.251  0.00  0.00    +0.000 C 
ATOM      9  N   UNL     1       3.887   4.302  19.753  0.00  0.00    +0.000 NA
ATOM     10  C   UNL     1       4.603   4.995  18.858  0.00  0.00    +0.000 A 
ATOM     11  C   UNL     1       5.842   4.479  18.512  0.00  0.00    +0.000 A 
ATOM     12  C   UNL     1       6.683   5.146  17.635  0.00  0.00    +0.000 A 
ATOM     13  F   UNL     1       7.889   4.636  17.354  0.00  0.00    +0.000 F 
ATOM     14  C   UNL     1       6.293   6.339  17.057  0.00  0.00    +0.000 A 
ATOM     15  C   UNL     1       5.036   6.857  17.363  0.00  0.00    +0.000 A 
ATOM     16  C   UNL     1       4.164   6.216  18.287  0.00  0.00    +0.000 A 
ENDBRANCH   3   5
BRANCH   1  20
ATOM     17  N   UNL     1      -0.680  11.635  20.192  0.00  0.00    +0.000 NA
ATOM     18  C   UNL     1       0.760  11.551  20.489  0.00  0.00    +0.000 C 
ATOM     19  C   UNL     1       1.604  11.456  19.227  0.00  0.00    +0.000 C 
ATOM     20  C   UNL     1       1.234  10.209  18.398  0.00  0.00    +0.000 C 
ATOM     21  C   UNL     1      -0.266  10.358  18.073  0.00  0.00    +0.000 C 
ATOM     22  C   UNL     1      -1.124  10.527  19.330  0.00  0.00    +0.000 C 
BRANCH  17  23
ATOM     23  C   UNL     1      -1.482  11.646  21.432  0.00  0.00    +0.000 C 
BRANCH  23  25
ATOM     24  C   UNL     1      -0.802   9.962  23.181  0.00  0.00    +0.000 C 
ATOM     25  C   UNL     1      -0.657  11.398  22.701  0.00  0.00    +0.000 C 
ENDBRANCH  23  25
ENDBRANCH  17  23
ENDBRANCH   1  20
TORSDOF 4
ENDMDL
MODEL 8
REMARK VINA RESULT:      -7.1      6.054      8.122
REMARK  Name = 
REMARK  7 active torsions:
REMARK  status: ('A' for Active; 'I' for Inactive)
REMARK    1  A    between atoms: C_1  and  C_2
REMARK    2  A    between atoms: C_2  and  C_3
REMARK    3  A    between atoms: C_3  and  N_4
REMARK    4  A    between atoms: C_7  and  N_8
REMARK    5  A    between atoms: N_8  and  C_9
REMARK    6  A    between atoms: C_10  and  C_12
REMARK    7  A    between atoms: C_14  and  C_15
REMARK                            x       y       z     vdW  Elec       q    Type
REMARK                         _______ _______ _______ _____ _____    ______ ____
ROOT
ATOM      1  N   UNL     1      -0.349  12.109  19.277  0.00  0.00    +0.000 N 
ATOM      2  C   UNL     1      -0.336  13.294  18.416  0.00  0.00    +0.000 C 
ATOM      3  C   UNL     1      -1.162  10.978  19.011  0.00  0.00    +0.000 C 
ATOM      4  O   UNL     1      -0.987   9.920  19.611  0.00  0.00    +0.000 OA
ENDROOT
BRANCH   3   5
ATOM      5  C   UNL     1      -2.293  11.036  18.019  0.00  0.00    +0.000 A 
ATOM      6  C   UNL     1      -2.069  10.596  16.712  0.00  0.00    +0.000 A 
ATOM      7  C   UNL     1      -3.117  10.570  15.812  0.00  0.00    +0.000 A 
ATOM      8  C   UNL     1      -2.932  10.020  14.430  0.00  0.00    +0.000 C 
ATOM      9  N   UNL     1      -4.341  11.039  16.124  0.00  0.00    +0.000 NA
ATOM     10  C   UNL     1      -4.544  11.585  17.330  0.00  0.00    +0.000 A 
ATOM     11  C   UNL     1      -5.784  12.160  17.557  0.00  0.00    +0.000 A 
ATOM     12  C   UNL     1      -6.076  12.798  18.752  0.00  0.00    +0.000 A 
ATOM     13  F   UNL     1      -7.273  13.375  18.921  0.00  0.00    +0.000 F 
ATOM     14  C   UNL     1      -5.140  12.856  19.766  0.00  0.00    +0.000 A 
ATOM     15  C   UNL     1      -3.899  12.253  19.572  0.00  0.00    +0.000 A 
ATOM     16  C   UNL     1      -3.554  11.621  18.344  0.00  0.00    +0.000 A 
ENDBRANCH   3   5
BRANCH   1  20
ATOM     17  N   UNL     1       0.086  13.932  22.563  0.00  0.00    +0.000 NA
ATOM     18  C   UNL     1      -0.745  12.737  22.335  0.00  0.00    +0.000 C 
ATOM     19  C   UNL     1       0.051  11.589  21.732  0.00  0.00    +0.000 C 
ATOM     20  C   UNL     1       0.665  11.985  20.374  0.00  0.00    +0.000 C 
ATOM     21  C   UNL     1       1.558  13.208  20.665  0.00  0.00    +0.000 C 
ATOM     22  C   UNL     1       0.789  14.349  21.338  0.00  0.00    +0.000 C 
BRANCH  17  23
ATOM     23  C   UNL     1      -0.724  15.057  23.073  0.00  0.00    +0.000 C 
BRANCH  23  25
ATOM     24  C   UNL     1      -2.658  15.407  24.651  0.00  0.00    +0.000 C 
ATOM     25  C   UNL     1      -1.256  14.838  24.494  0.00  0.00    +0.000 C 
ENDBRANCH  23  25
ENDBRANCH  17  23
ENDBRANCH   1  20
TORSDOF 4
ENDMDL
MODEL 9
REMARK VINA RESULT:      -7.0      5.224      7.492
REMARK  Name = 
REMARK  7 active torsions:
REMARK  status: ('A' for Active; 'I' for Inactive)
REMARK    1  A    between atoms: C_1  and  C_2
REMARK    2  A    between atoms: C_2  and  C_3
REMARK    3  A    between atoms: C_3  and  N_4
REMARK    4  A    between atoms: C_7  and  N_8
REMARK    5  A    between atoms: N_8  and  C_9
REMARK    6  A    between atoms: C_10  and  C_12
REMARK    7  A    between atoms: C_14  and  C_15
REMARK                            x       y       z     vdW  Elec       q    Type
REMARK                         _______ _______ _______ _____ _____    ______ ____
ROOT
ATOM      1  N   UNL     1      -2.930  13.401  23.030  0.00  0.00    +0.000 N 
ATOM      2  C   UNL     1      -3.681  13.036  21.827  0.00  0.00    +0.000 C 
ATOM      3  C   UNL     1      -1.515  13.489  23.053  0.00  0.00    +0.000 C 
ATOM      4  O   UNL     1      -0.929  14.013  23.997  0.00  0.00    +0.000 OA
ENDROOT
BRANCH   3   5
ATOM      5  C   UNL     1      -0.671  12.911  21.947  0.00  0.00    +0.000 A 
ATOM      6  C   UNL     1      -0.280  13.738  20.892  0.00  0.00    +0.000 A 
ATOM      7  C   UNL     1       0.557  13.243  19.910  0.00  0.00    +0.000 A 
ATOM      8  C   UNL     1       1.067  14.130  18.814  0.00  0.00    +0.000 C 
ATOM      9  N   UNL     1       0.947  11.954  19.885  0.00  0.00    +0.000 NA
ATOM     10  C   UNL     1       0.478  11.111  20.814  0.00  0.00    +0.000 A 
ATOM     11  C   UNL     1       0.813   9.774  20.673  0.00  0.00    +0.000 A 
ATOM     12  C   UNL     1       0.335   8.814  21.551  0.00  0.00    +0.000 A 
ATOM     13  F   UNL     1       0.649   7.525  21.361  0.00  0.00    +0.000 F 
ATOM     14  C   UNL     1      -0.472   9.171  22.614  0.00  0.00    +0.000 A 
ATOM     15  C   UNL     1      -0.791  10.516  22.795  0.00  0.00    +0.000 A 
ATOM     16  C   UNL     1      -0.347  11.522  21.891  0.00  0.00    +0.000 A 
ENDBRANCH   3   5
BRANCH   1  20
ATOM     17  N   UNL     1      -6.561  13.175  24.064  0.00  0.00    +0.000 NA
ATOM     18  C   UNL     1      -5.518  12.170  24.329  0.00  0.00    +0.000 C 
ATOM     19  C   UNL     1      -4.321  12.760  25.058  0.00  0.00    +0.000 C 
ATOM     20  C   UNL     1      -3.668  13.892  24.239  0.00  0.00    +0.000 C 
ATOM     21  C   UNL     1      -4.779  14.940  24.022  0.00  0.00    +0.000 C 
ATOM     22  C   UNL     1      -6.022  14.346  23.353  0.00  0.00    +0.000 C 
BRANCH  17  23
ATOM     23  C   UNL     1      -7.676  12.598  23.286  0.00  0.00    +0.000 C 
BRANCH  23  25
ATOM     24  C   UNL     1      -7.348  11.490  21.045  0.00  0.00    +0.000 C 
ATOM     25  C   UNL     1      -7.547  12.811  21.773  0.00  0.00    +0.000 C 
ENDBRANCH  23  25
ENDBRANCH  17  23
ENDBRANCH   1  20
TORSDOF 4
ENDMDL
