MODEL 1
REMARK VINA RESULT:      -8.7      0.000      0.000
REMARK  Name = 
REMARK  4 active torsions:
REMARK  status: ('A' for Active; 'I' for Inactive)
REMARK    1  A    between atoms: C_1  and  C_2
REMARK    2  A    between atoms: C_5  and  C_6
REMARK    3  A    between atoms: C_7  and  S_8
REMARK    4  A    between atoms: S_8  and  N_11
REMARK                            x       y       z     vdW  Elec       q    Type
REMARK                         _______ _______ _______ _____ _____    ______ ____
ROOT
ATOM      1  N   UNL     1       5.657   4.230  17.886  0.00  0.00    +0.000 N 
ATOM      2  C   UNL     1       6.668   4.982  18.533  0.00  0.00    +0.000 A 
ATOM      3  O   UNL     1       6.767   5.183  19.729  0.00  0.00    +0.000 OA
ATOM      4  N   UNL     1       7.516   5.490  17.572  0.00  0.00    +0.000 N 
ATOM      5  C   UNL     1       7.076   5.095  16.320  0.00  0.00    +0.000 A 
ATOM      6  C   UNL     1       7.622   5.391  15.089  0.00  0.00    +0.000 A 
ATOM      7  C   UNL     1       6.971   4.867  13.972  0.00  0.00    +0.000 A 
ATOM      8  C   UNL     1       5.813   4.079  14.122  0.00  0.00    +0.000 A 
ATOM      9 CL   UNL     1       5.039   3.454  12.715  0.00  0.00    +0.000 Cl
ATOM     10  C   UNL     1       5.278   3.793  15.384  0.00  0.00    +0.000 A 
ATOM     11  C   UNL     1       5.925   4.318  16.485  0.00  0.00    +0.000 A 
ATOM     12  H   UNL     1       8.310   6.069  17.788  0.00  0.00    +0.000 HD
ENDROOT
BRANCH   1  13
ATOM     13  S   UNL     1       4.364   3.501  18.608  0.00  0.00    +0.000 S 
ATOM     14  O   UNL     1       4.841   2.838  19.805  0.00  0.00    +0.000 OA
ATOM     15  O   UNL     1       3.589   2.751  17.637  0.00  0.00    +0.000 OA
BRANCH  13  22
ATOM     16  C   UNL     1       2.667   8.422  17.901  0.00  0.00    +0.000 C 
ATOM     17  C   UNL     1       2.602   7.165  18.717  0.00  0.00    +0.000 A 
ATOM     18  C   UNL     1       1.821   7.105  19.872  0.00  0.00    +0.000 A 
ATOM     19  C   UNL     1       1.782   5.941  20.643  0.00  0.00    +0.000 A 
ATOM     20  C   UNL     1       2.530   4.807  20.289  0.00  0.00    +0.000 A 
ATOM     21  C   UNL     1       2.449   3.603  21.183  0.00  0.00    +0.000 C 
ATOM     22  C   UNL     1       3.312   4.865  19.118  0.00  0.00    +0.000 A 
ATOM     23  C   UNL     1       3.341   6.037  18.339  0.00  0.00    +0.000 A 
ENDBRANCH  13  22
ENDBRANCH   1  13
TORSDOF 2
ENDMDL
MODEL 2
REMARK VINA RESULT:      -7.8      2.574      5.505
REMARK  Name = 
REMARK  4 active torsions:
REMARK  status: ('A' for Active; 'I' for Inactive)
REMARK    1  A    between atoms: C_1  and  C_2
REMARK    2  A    between atoms: C_5  and  C_6
REMARK    3  A    between atoms: C_7  and  S_8
REMARK    4  A    between atoms: S_8  and  N_11
REMARK                            x       y       z     vdW  Elec       q    Type
REMARK                         _______ _______ _______ _____ _____    ______ ____
ROOT
ATOM      1  N   UNL     1       2.655   3.995  19.129  0.00  0.00    +0.000 N 
ATOM      2  C   UNL     1       2.329   3.492  20.412  0.00  0.00    +0.000 A 
ATOM      3  O   UNL     1       2.361   2.327  20.762  0.00  0.00    +0.000 OA
ATOM      4  N   UNL     1       1.924   4.546  21.204  0.00  0.00    +0.000 N 
ATOM      5  C   UNL     1       1.972   5.716  20.465  0.00  0.00    +0.000 A 
ATOM      6  C   UNL     1       1.641   6.993  20.866  0.00  0.00    +0.000 A 
ATOM      7  C   UNL     1       1.774   8.003  19.912  0.00  0.00    +0.000 A 
ATOM      8  C   UNL     1       2.225   7.705  18.611  0.00  0.00    +0.000 A 
ATOM      9 CL   UNL     1       2.371   8.983  17.464  0.00  0.00    +0.000 Cl
ATOM     10  C   UNL     1       2.554   6.399  18.230  0.00  0.00    +0.000 A 
ATOM     11  C   UNL     1       2.417   5.403  19.177  0.00  0.00    +0.000 A 
ATOM     12  H   UNL     1       1.631   4.436  22.160  0.00  0.00    +0.000 HD
ENDROOT
BRANCH   1  13
ATOM     13  S   UNL     1       3.106   3.107  17.813  0.00  0.00    +0.000 S 
ATOM     14  O   UNL     1       2.128   3.336  16.768  0.00  0.00    +0.000 OA
ATOM     15  O   UNL     1       3.433   1.747  18.198  0.00  0.00    +0.000 OA
BRANCH  13  22
ATOM     16  C   UNL     1       6.347   4.567  13.945  0.00  0.00    +0.000 C 
ATOM     17  C   UNL     1       6.099   4.473  15.422  0.00  0.00    +0.000 A 
ATOM     18  C   UNL     1       7.079   4.865  16.335  0.00  0.00    +0.000 A 
ATOM     19  C   UNL     1       6.854   4.753  17.709  0.00  0.00    +0.000 A 
ATOM     20  C   UNL     1       5.648   4.236  18.210  0.00  0.00    +0.000 A 
ATOM     21  C   UNL     1       5.494   4.130  19.700  0.00  0.00    +0.000 C 
ATOM     22  C   UNL     1       4.656   3.848  17.287  0.00  0.00    +0.000 A 
ATOM     23  C   UNL     1       4.883   3.971  15.904  0.00  0.00    +0.000 A 
ENDBRANCH  13  22
ENDBRANCH   1  13
TORSDOF 2
ENDMDL
MODEL 3
REMARK VINA RESULT:      -7.7      2.543      5.656
REMARK  Name = 
REMARK  4 active torsions:
REMARK  status: ('A' for Active; 'I' for Inactive)
REMARK    1  A    between atoms: C_1  and  C_2
REMARK    2  A    between atoms: C_5  and  C_6
REMARK    3  A    between atoms: C_7  and  S_8
REMARK    4  A    between atoms: S_8  and  N_11
REMARK                            x       y       z     vdW  Elec       q    Type
REMARK                         _______ _______ _______ _____ _____    ______ ____
ROOT
ATOM      1  N   UNL     1       2.952   4.212  19.147  0.00  0.00    +0.000 N 
ATOM      2  C   UNL     1       2.621   3.621  20.391  0.00  0.00    +0.000 A 
ATOM      3  O   UNL     1       2.759   2.451  20.695  0.00  0.00    +0.000 OA
ATOM      4  N   UNL     1       2.069   4.590  21.202  0.00  0.00    +0.000 N 
ATOM      5  C   UNL     1       2.028   5.791  20.514  0.00  0.00    +0.000 A 
ATOM      6  C   UNL     1       1.545   7.007  20.948  0.00  0.00    +0.000 A 
ATOM      7  C   UNL     1       1.615   8.068  20.044  0.00  0.00    +0.000 A 
ATOM      8  C   UNL     1       2.157   7.877  18.757  0.00  0.00    +0.000 A 
ATOM      9 CL   UNL     1       2.222   9.214  17.672  0.00  0.00    +0.000 Cl
ATOM     10  C   UNL     1       2.640   6.631  18.341  0.00  0.00    +0.000 A 
ATOM     11  C   UNL     1       2.564   5.585  19.239  0.00  0.00    +0.000 A 
ATOM     12  H   UNL     1       1.744   4.407  22.137  0.00  0.00    +0.000 HD
ENDROOT
BRANCH   1  13
ATOM     13  S   UNL     1       3.557   3.436  17.822  0.00  0.00    +0.000 S 
ATOM     14  O   UNL     1       2.699   3.749  16.696  0.00  0.00    +0.000 OA
ATOM     15  O   UNL     1       3.855   2.050  18.130  0.00  0.00    +0.000 OA
BRANCH  13  22
ATOM     16  C   UNL     1       7.842   5.815  19.715  0.00  0.00    +0.000 C 
ATOM     17  C   UNL     1       7.090   5.332  18.509  0.00  0.00    +0.000 A 
ATOM     18  C   UNL     1       7.575   5.572  17.224  0.00  0.00    +0.000 A 
ATOM     19  C   UNL     1       6.859   5.142  16.103  0.00  0.00    +0.000 A 
ATOM     20  C   UNL     1       5.633   4.471  16.236  0.00  0.00    +0.000 A 
ATOM     21  C   UNL     1       4.917   4.061  14.981  0.00  0.00    +0.000 C 
ATOM     22  C   UNL     1       5.147   4.222  17.535  0.00  0.00    +0.000 A 
ATOM     23  C   UNL     1       5.876   4.648  18.661  0.00  0.00    +0.000 A 
ENDBRANCH  13  22
ENDBRANCH   1  13
TORSDOF 2
ENDMDL
MODEL 4
REMARK VINA RESULT:      -7.3      2.850      5.853
REMARK  Name = 
REMARK  4 active torsions:
REMARK  status: ('A' for Active; 'I' for Inactive)
REMARK    1  A    between atoms: C_1  and  C_2
REMARK    2  A    between atoms: C_5  and  C_6
REMARK    3  A    between atoms: C_7  and  S_8
REMARK    4  A    between atoms: S_8  and  N_11
REMARK                            x       y       z     vdW  Elec       q    Type
REMARK                         _______ _______ _______ _____ _____    ______ ____
ROOT
ATOM      1  N   UNL     1       3.110   5.027  19.317  0.00  0.00    +0.000 N 
ATOM      2  C   UNL     1       2.691   4.362  20.495  0.00  0.00    +0.000 A 
ATOM      3  O   UNL     1       2.924   3.205  20.794  0.00  0.00    +0.000 OA
ATOM      4  N   UNL     1       1.932   5.236  21.244  0.00  0.00    +0.000 N 
ATOM      5  C   UNL     1       1.841   6.447  20.578  0.00  0.00    +0.000 A 
ATOM      6  C   UNL     1       1.170   7.586  20.965  0.00  0.00    +0.000 A 
ATOM      7  C   UNL     1       1.233   8.677  20.098  0.00  0.00    +0.000 A 
ATOM      8  C   UNL     1       1.954   8.591  18.890  0.00  0.00    +0.000 A 
ATOM      9 CL   UNL     1       2.004   9.961  17.847  0.00  0.00    +0.000 Cl
ATOM     10  C   UNL     1       2.628   7.421  18.520  0.00  0.00    +0.000 A 
ATOM     11  C   UNL     1       2.558   6.344  19.381  0.00  0.00    +0.000 A 
ATOM     12  H   UNL     1       1.513   4.987  22.124  0.00  0.00    +0.000 HD
ENDROOT
BRANCH   1  13
ATOM     13  S   UNL     1       3.966   4.367  18.069  0.00  0.00    +0.000 S 
ATOM     14  O   UNL     1       3.275   4.693  16.837  0.00  0.00    +0.000 OA
ATOM     15  O   UNL     1       4.306   2.986  18.353  0.00  0.00    +0.000 OA
BRANCH  13  22
ATOM     16  C   UNL     1       8.520   5.509  20.425  0.00  0.00    +0.000 C 
ATOM     17  C   UNL     1       7.604   5.741  19.259  0.00  0.00    +0.000 A 
ATOM     18  C   UNL     1       7.923   6.682  18.279  0.00  0.00    +0.000 A 
ATOM     19  C   UNL     1       7.056   6.912  17.208  0.00  0.00    +0.000 A 
ATOM     20  C   UNL     1       5.842   6.217  17.092  0.00  0.00    +0.000 A 
ATOM     21  C   UNL     1       4.957   6.539  15.922  0.00  0.00    +0.000 C 
ATOM     22  C   UNL     1       5.524   5.262  18.078  0.00  0.00    +0.000 A 
ATOM     23  C   UNL     1       6.404   5.026  19.150  0.00  0.00    +0.000 A 
ENDBRANCH  13  22
ENDBRANCH   1  13
TORSDOF 2
ENDMDL
MODEL 5
REMARK VINA RESULT:      -7.3      1.147      2.490
REMARK  Name = 
REMARK  4 active torsions:
REMARK  status: ('A' for Active; 'I' for Inactive)
REMARK    1  A    between atoms: C_1  and  C_2
REMARK    2  A    between atoms: C_5  and  C_6
REMARK    3  A    between atoms: C_7  and  S_8
REMARK    4  A    between atoms: S_8  and  N_11
REMARK                            x       y       z     vdW  Elec       q    Type
REMARK                         _______ _______ _______ _____ _____    ______ ____
ROOT
ATOM      1  N   UNL     1       4.922   3.621  17.243  0.00  0.00    +0.000 N 
ATOM      2  C   UNL     1       5.762   4.174  18.240  0.00  0.00    +0.000 A 
ATOM      3  O   UNL     1       5.559   4.170  19.441  0.00  0.00    +0.000 OA
ATOM      4  N   UNL     1       6.845   4.762  17.622  0.00  0.00    +0.000 N 
ATOM      5  C   UNL     1       6.724   4.612  16.250  0.00  0.00    +0.000 A 
ATOM      6  C   UNL     1       7.576   5.059  15.264  0.00  0.00    +0.000 A 
ATOM      7  C   UNL     1       7.213   4.778  13.946  0.00  0.00    +0.000 A 
ATOM      8  C   UNL     1       6.027   4.071  13.666  0.00  0.00    +0.000 A 
ATOM      9 CL   UNL     1       5.615   3.747  12.025  0.00  0.00    +0.000 Cl
ATOM     10  C   UNL     1       5.178   3.628  14.687  0.00  0.00    +0.000 A 
ATOM     11  C   UNL     1       5.541   3.913  15.989  0.00  0.00    +0.000 A 
ATOM     12  H   UNL     1       7.578   5.233  18.125  0.00  0.00    +0.000 HD
ENDROOT
BRANCH   1  13
ATOM     13  S   UNL     1       3.462   2.890  17.485  0.00  0.00    +0.000 S 
ATOM     14  O   UNL     1       3.713   1.514  17.865  0.00  0.00    +0.000 OA
ATOM     15  O   UNL     1       2.557   3.173  16.387  0.00  0.00    +0.000 OA
BRANCH  13  22
ATOM     16  C   UNL     1       1.365   2.686  22.298  0.00  0.00    +0.000 C 
ATOM     17  C   UNL     1       1.791   3.537  21.137  0.00  0.00    +0.000 A 
ATOM     18  C   UNL     1       1.570   4.914  21.143  0.00  0.00    +0.000 A 
ATOM     19  C   UNL     1       1.946   5.699  20.050  0.00  0.00    +0.000 A 
ATOM     20  C   UNL     1       2.542   5.128  18.915  0.00  0.00    +0.000 A 
ATOM     21  C   UNL     1       2.896   6.038  17.774  0.00  0.00    +0.000 C 
ATOM     22  C   UNL     1       2.772   3.737  18.911  0.00  0.00    +0.000 A 
ATOM     23  C   UNL     1       2.401   2.952  20.019  0.00  0.00    +0.000 A 
ENDBRANCH  13  22
ENDBRANCH   1  13
TORSDOF 2
ENDMDL
MODEL 6
REMARK VINA RESULT:      -6.9      3.338      5.335
REMARK  Name = 
REMARK  4 active torsions:
REMARK  status: ('A' for Active; 'I' for Inactive)
REMARK    1  A    between atoms: C_1  and  C_2
REMARK    2  A    between atoms: C_5  and  C_6
REMARK    3  A    between atoms: C_7  and  S_8
REMARK    4  A    between atoms: S_8  and  N_11
REMARK                            x       y       z     vdW  Elec       q    Type
REMARK                         _______ _______ _______ _____ _____    ______ ____
ROOT
ATOM      1  N   UNL     1       3.998   6.020  17.286  0.00  0.00    +0.000 N 
ATOM      2  C   UNL     1       3.197   7.079  17.781  0.00  0.00    +0.000 A 
ATOM      3  O   UNL     1       3.323   8.262  17.525  0.00  0.00    +0.000 OA
ATOM      4  N   UNL     1       2.261   6.550  18.644  0.00  0.00    +0.000 N 
ATOM      5  C   UNL     1       2.439   5.180  18.727  0.00  0.00    +0.000 A 
ATOM      6  C   UNL     1       1.730   4.271  19.482  0.00  0.00    +0.000 A 
ATOM      7  C   UNL     1       2.123   2.935  19.388  0.00  0.00    +0.000 A 
ATOM      8  C   UNL     1       3.197   2.562  18.556  0.00  0.00    +0.000 A 
ATOM      9 CL   UNL     1       3.651   0.902  18.472  0.00  0.00    +0.000 Cl
ATOM     10  C   UNL     1       3.902   3.506  17.800  0.00  0.00    +0.000 A 
ATOM     11  C   UNL     1       3.510   4.826  17.900  0.00  0.00    +0.000 A 
ATOM     12  H   UNL     1       1.582   7.112  19.131  0.00  0.00    +0.000 HD
ENDROOT
BRANCH   1  13
ATOM     13  S   UNL     1       5.307   6.163  16.290  0.00  0.00    +0.000 S 
ATOM     14  O   UNL     1       4.987   7.151  15.279  0.00  0.00    +0.000 OA
ATOM     15  O   UNL     1       5.789   4.857  15.885  0.00  0.00    +0.000 OA
BRANCH  13  22
ATOM     16  C   UNL     1       8.305  10.238  17.707  0.00  0.00    +0.000 C 
ATOM     17  C   UNL     1       7.949   8.795  17.914  0.00  0.00    +0.000 A 
ATOM     18  C   UNL     1       8.658   8.010  18.824  0.00  0.00    +0.000 A 
ATOM     19  C   UNL     1       8.340   6.660  18.995  0.00  0.00    +0.000 A 
ATOM     20  C   UNL     1       7.313   6.054  18.255  0.00  0.00    +0.000 A 
ATOM     21  C   UNL     1       7.048   4.594  18.484  0.00  0.00    +0.000 C 
ATOM     22  C   UNL     1       6.592   6.850  17.342  0.00  0.00    +0.000 A 
ATOM     23  C   UNL     1       6.909   8.211  17.179  0.00  0.00    +0.000 A 
ENDBRANCH  13  22
ENDBRANCH   1  13
TORSDOF 2
ENDMDL
MODEL 7
REMARK VINA RESULT:      -6.9      3.285      5.310
REMARK  Name = 
REMARK  4 active torsions:
REMARK  status: ('A' for Active; 'I' for Inactive)
REMARK    1  A    between atoms: C_1  and  C_2
REMARK    2  A    between atoms: C_5  and  C_6
REMARK    3  A    between atoms: C_7  and  S_8
REMARK    4  A    between atoms: S_8  and  N_11
REMARK                            x       y       z     vdW  Elec       q    Type
REMARK                         _______ _______ _______ _____ _____    ______ ____
ROOT
ATOM      1  N   UNL     1       4.122   6.082  18.039  0.00  0.00    +0.000 N 
ATOM      2  C   UNL     1       4.565   6.622  16.806  0.00  0.00    +0.000 A 
ATOM      3  O   UNL     1       5.411   6.147  16.071  0.00  0.00    +0.000 OA
ATOM      4  N   UNL     1       3.902   7.811  16.587  0.00  0.00    +0.000 N 
ATOM      5  C   UNL     1       3.048   8.059  17.649  0.00  0.00    +0.000 A 
ATOM      6  C   UNL     1       2.212   9.138  17.837  0.00  0.00    +0.000 A 
ATOM      7  C   UNL     1       1.454   9.147  19.009  0.00  0.00    +0.000 A 
ATOM      8  C   UNL     1       1.560   8.093  19.938  0.00  0.00    +0.000 A 
ATOM      9 CL   UNL     1       0.609   8.146  21.374  0.00  0.00    +0.000 Cl
ATOM     10  C   UNL     1       2.418   7.008  19.723  0.00  0.00    +0.000 A 
ATOM     11  C   UNL     1       3.167   7.007  18.563  0.00  0.00    +0.000 A 
ATOM     12  H   UNL     1       4.057   8.387  15.777  0.00  0.00    +0.000 HD
ENDROOT
BRANCH   1  13
ATOM     13  S   UNL     1       4.689   4.716  18.772  0.00  0.00    +0.000 S 
ATOM     14  O   UNL     1       5.268   5.103  20.043  0.00  0.00    +0.000 OA
ATOM     15  O   UNL     1       5.470   3.921  17.843  0.00  0.00    +0.000 OA
BRANCH  13  22
ATOM     16  C   UNL     1       1.441   2.475  22.240  0.00  0.00    +0.000 C 
ATOM     17  C   UNL     1       1.775   2.730  20.799  0.00  0.00    +0.000 A 
ATOM     18  C   UNL     1       1.014   2.158  19.780  0.00  0.00    +0.000 A 
ATOM     19  C   UNL     1       1.343   2.378  18.440  0.00  0.00    +0.000 A 
ATOM     20  C   UNL     1       2.448   3.166  18.081  0.00  0.00    +0.000 A 
ATOM     21  C   UNL     1       2.746   3.336  16.619  0.00  0.00    +0.000 C 
ATOM     22  C   UNL     1       3.212   3.750  19.112  0.00  0.00    +0.000 A 
ATOM     23  C   UNL     1       2.872   3.533  20.460  0.00  0.00    +0.000 A 
ENDBRANCH  13  22
ENDBRANCH   1  13
TORSDOF 2
ENDMDL
MODEL 8
REMARK VINA RESULT:      -6.8      7.464      9.537
REMARK  Name = 
REMARK  4 active torsions:
REMARK  status: ('A' for Active; 'I' for Inactive)
REMARK    1  A    between atoms: C_1  and  C_2
REMARK    2  A    between atoms: C_5  and  C_6
REMARK    3  A    between atoms: C_7  and  S_8
REMARK    4  A    between atoms: S_8  and  N_11
REMARK                            x       y       z     vdW  Elec       q    Type
REMARK                         _______ _______ _______ _____ _____    ______ ____
ROOT
ATOM      1  N   UNL     1      -0.683  11.494  20.588  0.00  0.00    +0.000 N 
ATOM      2  C   UNL     1      -0.984  11.435  21.971  0.00  0.00    +0.000 A 
ATOM      3  O   UNL     1      -1.636  12.244  22.605  0.00  0.00    +0.000 OA
ATOM      4  N   UNL     1      -0.378  10.316  22.502  0.00  0.00    +0.000 N 
ATOM      5  C   UNL     1       0.315   9.654  21.502  0.00  0.00    +0.000 A 
ATOM      6  C   UNL     1       1.067   8.503  21.602  0.00  0.00    +0.000 A 
ATOM      7  C   UNL     1       1.672   8.047  20.431  0.00  0.00    +0.000 A 
ATOM      8  C   UNL     1       1.509   8.748  19.220  0.00  0.00    +0.000 A 
ATOM      9 CL   UNL     1       2.277   8.150  17.798  0.00  0.00    +0.000 Cl
ATOM     10  C   UNL     1       0.740   9.915  19.146  0.00  0.00    +0.000 A 
ATOM     11  C   UNL     1       0.146  10.364  20.309  0.00  0.00    +0.000 A 
ATOM     12  H   UNL     1      -0.440  10.066  23.475  0.00  0.00    +0.000 HD
ENDROOT
BRANCH   1  13
ATOM     13  S   UNL     1      -1.111  12.697  19.542  0.00  0.00    +0.000 S 
ATOM     14  O   UNL     1       0.001  12.911  18.636  0.00  0.00    +0.000 OA
ATOM     15  O   UNL     1      -1.676  13.824  20.258  0.00  0.00    +0.000 OA
BRANCH  13  22
ATOM     16  C   UNL     1      -2.849  10.386  15.155  0.00  0.00    +0.000 C 
ATOM     17  C   UNL     1      -3.178  10.943  16.509  0.00  0.00    +0.000 A 
ATOM     18  C   UNL     1      -4.498  10.991  16.958  0.00  0.00    +0.000 A 
ATOM     19  C   UNL     1      -4.804  11.533  18.209  0.00  0.00    +0.000 A 
ATOM     20  C   UNL     1      -3.800  12.053  19.042  0.00  0.00    +0.000 A 
ATOM     21  C   UNL     1      -4.214  12.636  20.362  0.00  0.00    +0.000 C 
ATOM     22  C   UNL     1      -2.466  11.997  18.592  0.00  0.00    +0.000 A 
ATOM     23  C   UNL     1      -2.162  11.442  17.335  0.00  0.00    +0.000 A 
ENDBRANCH  13  22
ENDBRANCH   1  13
TORSDOF 2
ENDMDL
MODEL 9
REMARK VINA RESULT:      -6.8     11.511     14.314
REMARK  Name = 
REMARK  4 active torsions:
REMARK  status: ('A' for Active; 'I' for Inactive)
REMARK    1  A    between atoms: C_1  and  C_2
REMARK    2  A    between atoms: C_5  and  C_6
REMARK    3  A    between atoms: C_7  and  S_8
REMARK    4  A    between atoms: S_8  and  N_11
REMARK                            x       y       z     vdW  Elec       q    Type
REMARK                         _______ _______ _______ _____ _____    ______ ____
ROOT
ATOM      1  N   UNL     1      -6.777  11.975  19.788  0.00  0.00    +0.000 N 
ATOM      2  C   UNL     1      -7.089  10.600  19.922  0.00  0.00    +0.000 A 
ATOM      3  O   UNL     1      -7.012   9.753  19.051  0.00  0.00    +0.000 OA
ATOM      4  N   UNL     1      -7.538  10.377  21.206  0.00  0.00    +0.000 N 
ATOM      5  C   UNL     1      -7.533  11.572  21.905  0.00  0.00    +0.000 A 
ATOM      6  C   UNL     1      -7.916  11.800  23.210  0.00  0.00    +0.000 A 
ATOM      7  C   UNL     1      -7.818  13.113  23.671  0.00  0.00    +0.000 A 
ATOM      8  C   UNL     1      -7.351  14.137  22.824  0.00  0.00    +0.000 A 
ATOM      9 CL   UNL     1      -7.249  15.746  23.433  0.00  0.00    +0.000 Cl
ATOM     10  C   UNL     1      -6.969  13.879  21.502  0.00  0.00    +0.000 A 
ATOM     11  C   UNL     1      -7.071  12.578  21.051  0.00  0.00    +0.000 A 
ATOM     12  H   UNL     1      -7.830   9.473  21.538  0.00  0.00    +0.000 HD
ENDROOT
BRANCH   1  13
ATOM     13  S   UNL     1      -6.286  12.740  18.411  0.00  0.00    +0.000 S 
ATOM     14  O   UNL     1      -6.058  14.134  18.736  0.00  0.00    +0.000 OA
ATOM     15  O   UNL     1      -7.151  12.399  17.297  0.00  0.00    +0.000 OA
BRANCH  13  22
ATOM     16  C   UNL     1      -3.257   9.918  15.177  0.00  0.00    +0.000 C 
ATOM     17  C   UNL     1      -3.375  10.662  16.475  0.00  0.00    +0.000 A 
ATOM     18  C   UNL     1      -2.313  10.688  17.380  0.00  0.00    +0.000 A 
ATOM     19  C   UNL     1      -2.435  11.361  18.598  0.00  0.00    +0.000 A 
ATOM     20  C   UNL     1      -3.625  12.017  18.951  0.00  0.00    +0.000 A 
ATOM     21  C   UNL     1      -3.682  12.699  20.288  0.00  0.00    +0.000 C 
ATOM     22  C   UNL     1      -4.695  11.997  18.034  0.00  0.00    +0.000 A 
ATOM     23  C   UNL     1      -4.564  11.326  16.804  0.00  0.00    +0.000 A 
ENDBRANCH  13  22
ENDBRANCH   1  13
TORSDOF 2
ENDMDL
