MODEL 1
REMARK VINA RESULT:      -6.9      0.000      0.000
REMARK  Name = 
REMARK  8 active torsions:
REMARK  status: ('A' for Active; 'I' for Inactive)
REMARK    1  A    between atoms: C_1  and  C_2
REMARK    2  A    between atoms: C_2  and  O_3
REMARK    3  A    between atoms: O_3  and  C_4
REMARK    4  A    between atoms: C_4  and  C_6
REMARK    5  A    between atoms: N_9  and  S_10
REMARK    6  A    between atoms: S_10  and  C_13
REMARK    7  A    between atoms: C_16  and  C_17
REMARK    8  A    between atoms: C_20  and  C_21
REMARK                            x       y       z     vdW  Elec       q    Type
REMARK                         _______ _______ _______ _____ _____    ______ ____
ROOT
ATOM      1  C   UNL     1       5.894   5.813  16.486  0.00  0.00    +0.000 C 
ATOM      2  C   UNL     1       5.286   6.777  15.782  0.00  0.00    +0.000 C 
ATOM      3  C   UNL     1       4.171   7.396  16.553  0.00  0.00    +0.000 C 
ATOM      4  N   UNL     1       4.258   6.763  17.892  0.00  0.00    +0.000 NA
ATOM      5  C   UNL     1       5.280   5.644  17.838  0.00  0.00    +0.000 C 
ENDROOT
BRANCH   5   6
ATOM      6  C   UNL     1       4.758   4.238  18.107  0.00  0.00    +0.000 A 
ATOM      7  C   UNL     1       3.941   3.561  17.187  0.00  0.00    +0.000 A 
ATOM      8  C   UNL     1       3.271   2.395  17.562  0.00  0.00    +0.000 A 
ATOM      9  C   UNL     1       3.457   1.867  18.836  0.00  0.00    +0.000 A 
ATOM     10 CL   UNL     1       2.564   0.482  19.328  0.00  0.00    +0.000 Cl
ATOM     11  C   UNL     1       4.339   2.472  19.728  0.00  0.00    +0.000 A 
ATOM     12  C   UNL     1       4.989   3.652  19.364  0.00  0.00    +0.000 A 
ENDBRANCH   5   6
BRANCH   4  13
ATOM     13  S   UNL     1       2.800   6.466  18.710  0.00  0.00    +0.000 S 
ATOM     14  O   UNL     1       1.907   5.764  17.815  0.00  0.00    +0.000 OA
ATOM     15  O   UNL     1       3.124   5.941  20.022  0.00  0.00    +0.000 OA
BRANCH  13  16
ATOM     16  C   UNL     1       2.060   8.060  19.003  0.00  0.00    +0.000 A 
ATOM     17  C   UNL     1       1.659   8.844  17.919  0.00  0.00    +0.000 A 
ATOM     18  C   UNL     1       0.823   9.943  18.133  0.00  0.00    +0.000 A 
ATOM     19  C   UNL     1       0.367  10.250  19.422  0.00  0.00    +0.000 A 
ATOM     20  C   UNL     1      -0.600  11.375  19.653  0.00  0.00    +0.000 C 
ATOM     21  C   UNL     1       0.780   9.461  20.502  0.00  0.00    +0.000 A 
ATOM     22  C   UNL     1       1.623   8.369  20.297  0.00  0.00    +0.000 A 
ENDBRANCH  13  16
ENDBRANCH   4  13
BRANCH   1  23
ATOM     23  C   UNL     1       6.966   4.954  15.962  0.00  0.00    +0.000 C 
ATOM     24  O   UNL     1       7.834   4.452  16.661  0.00  0.00    +0.000 OA
BRANCH  23  25
ATOM     25  O   UNL     1       6.881   4.875  14.612  0.00  0.00    +0.000 OA
BRANCH  25  27
ATOM     26  C   UNL     1       6.339   3.600  12.609  0.00  0.00    +0.000 C 
ATOM     27  C   UNL     1       6.064   3.819  14.083  0.00  0.00    +0.000 C 
ENDBRANCH  25  27
ENDBRANCH  23  25
ENDBRANCH   1  23
TORSDOF 6
ENDMDL
MODEL 2
REMARK VINA RESULT:      -6.7      2.159      6.628
REMARK  Name = 
REMARK  8 active torsions:
REMARK  status: ('A' for Active; 'I' for Inactive)
REMARK    1  A    between atoms: C_1  and  C_2
REMARK    2  A    between atoms: C_2  and  O_3
REMARK    3  A    between atoms: O_3  and  C_4
REMARK    4  A    between atoms: C_4  and  C_6
REMARK    5  A    between atoms: N_9  and  S_10
REMARK    6  A    between atoms: S_10  and  C_13
REMARK    7  A    between atoms: C_16  and  C_17
REMARK    8  A    between atoms: C_20  and  C_21
REMARK                            x       y       z     vdW  Elec       q    Type
REMARK                         _______ _______ _______ _____ _____    ______ ____
ROOT
ATOM      1  C   UNL     1       2.976   7.345  18.174  0.00  0.00    +0.000 C 
ATOM      2  C   UNL     1       4.177   7.881  17.920  0.00  0.00    +0.000 C 
ATOM      3  C   UNL     1       5.055   6.930  17.185  0.00  0.00    +0.000 C 
ATOM      4  N   UNL     1       4.178   5.767  16.901  0.00  0.00    +0.000 NA
ATOM      5  C   UNL     1       2.866   5.954  17.640  0.00  0.00    +0.000 C 
ENDROOT
BRANCH   5   6
ATOM      6  C   UNL     1       2.533   4.911  18.699  0.00  0.00    +0.000 A 
ATOM      7  C   UNL     1       1.455   4.023  18.555  0.00  0.00    +0.000 A 
ATOM      8  C   UNL     1       1.016   3.261  19.640  0.00  0.00    +0.000 A 
ATOM      9  C   UNL     1       1.686   3.339  20.857  0.00  0.00    +0.000 A 
ATOM     10 CL   UNL     1       1.092   2.470  22.218  0.00  0.00    +0.000 Cl
ATOM     11  C   UNL     1       2.816   4.141  20.991  0.00  0.00    +0.000 A 
ATOM     12  C   UNL     1       3.240   4.923  19.916  0.00  0.00    +0.000 A 
ENDBRANCH   5   6
BRANCH   4  13
ATOM     13  S   UNL     1       4.891   4.227  16.929  0.00  0.00    +0.000 S 
ATOM     14  O   UNL     1       5.880   4.199  17.984  0.00  0.00    +0.000 OA
ATOM     15  O   UNL     1       3.829   3.243  16.861  0.00  0.00    +0.000 OA
BRANCH  13  16
ATOM     16  C   UNL     1       5.791   4.067  15.399  0.00  0.00    +0.000 A 
ATOM     17  C   UNL     1       5.180   3.459  14.300  0.00  0.00    +0.000 A 
ATOM     18  C   UNL     1       5.751   3.590  13.032  0.00  0.00    +0.000 A 
ATOM     19  C   UNL     1       6.920   4.344  12.852  0.00  0.00    +0.000 A 
ATOM     20  C   UNL     1       7.495   4.563  11.483  0.00  0.00    +0.000 C 
ATOM     21  C   UNL     1       7.527   4.943  13.962  0.00  0.00    +0.000 A 
ATOM     22  C   UNL     1       6.968   4.807  15.232  0.00  0.00    +0.000 A 
ENDBRANCH  13  16
ENDBRANCH   4  13
BRANCH   1  23
ATOM     23  C   UNL     1       1.925   8.000  18.968  0.00  0.00    +0.000 C 
ATOM     24  O   UNL     1       1.787   7.839  20.172  0.00  0.00    +0.000 OA
BRANCH  23  25
ATOM     25  O   UNL     1       1.115   8.726  18.159  0.00  0.00    +0.000 OA
BRANCH  25  27
ATOM     26  C   UNL     1      -0.497  10.269  19.133  0.00  0.00    +0.000 C 
ATOM     27  C   UNL     1       0.886  10.091  18.542  0.00  0.00    +0.000 C 
ENDBRANCH  25  27
ENDBRANCH  23  25
ENDBRANCH   1  23
TORSDOF 6
ENDMDL
MODEL 3
REMARK VINA RESULT:      -6.5      2.332      6.705
REMARK  Name = 
REMARK  8 active torsions:
REMARK  status: ('A' for Active; 'I' for Inactive)
REMARK    1  A    between atoms: C_1  and  C_2
REMARK    2  A    between atoms: C_2  and  O_3
REMARK    3  A    between atoms: O_3  and  C_4
REMARK    4  A    between atoms: C_4  and  C_6
REMARK    5  A    between atoms: N_9  and  S_10
REMARK    6  A    between atoms: S_10  and  C_13
REMARK    7  A    between atoms: C_16  and  C_17
REMARK    8  A    between atoms: C_20  and  C_21
REMARK                            x       y       z     vdW  Elec       q    Type
REMARK                         _______ _______ _______ _____ _____    ______ ____
ROOT
ATOM      1  C   UNL     1       2.943   7.366  18.213  0.00  0.00    +0.000 C 
ATOM      2  C   UNL     1       4.144   7.900  17.957  0.00  0.00    +0.000 C 
ATOM      3  C   UNL     1       5.020   6.948  17.218  0.00  0.00    +0.000 C 
ATOM      4  N   UNL     1       4.139   5.788  16.934  0.00  0.00    +0.000 NA
ATOM      5  C   UNL     1       2.830   5.975  17.676  0.00  0.00    +0.000 C 
ENDROOT
BRANCH   5   6
ATOM      6  C   UNL     1       2.497   4.932  18.735  0.00  0.00    +0.000 A 
ATOM      7  C   UNL     1       1.394   4.072  18.610  0.00  0.00    +0.000 A 
ATOM      8  C   UNL     1       0.964   3.311  19.699  0.00  0.00    +0.000 A 
ATOM      9  C   UNL     1       1.665   3.362  20.900  0.00  0.00    +0.000 A 
ATOM     10 CL   UNL     1       1.083   2.495  22.267  0.00  0.00    +0.000 Cl
ATOM     11  C   UNL     1       2.817   4.134  21.012  0.00  0.00    +0.000 A 
ATOM     12  C   UNL     1       3.233   4.916  19.934  0.00  0.00    +0.000 A 
ENDBRANCH   5   6
BRANCH   4  13
ATOM     13  S   UNL     1       4.849   4.246  16.957  0.00  0.00    +0.000 S 
ATOM     14  O   UNL     1       5.827   4.208  18.023  0.00  0.00    +0.000 OA
ATOM     15  O   UNL     1       3.787   3.264  16.870  0.00  0.00    +0.000 OA
BRANCH  13  16
ATOM     16  C   UNL     1       5.765   4.096  15.436  0.00  0.00    +0.000 A 
ATOM     17  C   UNL     1       5.160   3.511  14.322  0.00  0.00    +0.000 A 
ATOM     18  C   UNL     1       5.748   3.652  13.063  0.00  0.00    +0.000 A 
ATOM     19  C   UNL     1       6.927   4.394  12.907  0.00  0.00    +0.000 A 
ATOM     20  C   UNL     1       7.521   4.625  11.548  0.00  0.00    +0.000 C 
ATOM     21  C   UNL     1       7.528   4.971  14.032  0.00  0.00    +0.000 A 
ATOM     22  C   UNL     1       6.952   4.825  15.294  0.00  0.00    +0.000 A 
ENDBRANCH  13  16
ENDBRANCH   4  13
BRANCH   1  23
ATOM     23  C   UNL     1       1.896   8.022  19.010  0.00  0.00    +0.000 C 
ATOM     24  O   UNL     1       1.062   8.782  18.538  0.00  0.00    +0.000 OA
BRANCH  23  25
ATOM     25  O   UNL     1       2.050   7.717  20.321  0.00  0.00    +0.000 OA
BRANCH  25  27
ATOM     26  C   UNL     1       1.269   9.164  22.117  0.00  0.00    +0.000 C 
ATOM     27  C   UNL     1       0.941   8.018  21.183  0.00  0.00    +0.000 C 
ENDBRANCH  25  27
ENDBRANCH  23  25
ENDBRANCH   1  23
TORSDOF 6
ENDMDL
MODEL 4
REMARK VINA RESULT:      -6.4      2.256      6.647
REMARK  Name = 
REMARK  8 active torsions:
REMARK  status: ('A' for Active; 'I' for Inactive)
REMARK    1  A    between atoms: C_1  and  C_2
REMARK    2  A    between atoms: C_2  and  O_3
REMARK    3  A    between atoms: O_3  and  C_4
REMARK    4  A    between atoms: C_4  and  C_6
REMARK    5  A    between atoms: N_9  and  S_10
REMARK    6  A    between atoms: S_10  and  C_13
REMARK    7  A    between atoms: C_16  and  C_17
REMARK    8  A    between atoms: C_20  and  C_21
REMARK                            x       y       z     vdW  Elec       q    Type
REMARK                         _______ _______ _______ _____ _____    ______ ____
ROOT
ATOM      1  C   UNL     1       2.656   7.742  18.130  0.00  0.00    +0.000 C 
ATOM      2  C   UNL     1       3.865   8.218  17.806  0.00  0.00    +0.000 C 
ATOM      3  C   UNL     1       4.713   7.170  17.171  0.00  0.00    +0.000 C 
ATOM      4  N   UNL     1       3.806   6.005  17.028  0.00  0.00    +0.000 NA
ATOM      5  C   UNL     1       2.508   6.303  17.755  0.00  0.00    +0.000 C 
ENDROOT
BRANCH   5   6
ATOM      6  C   UNL     1       2.166   5.393  18.927  0.00  0.00    +0.000 A 
ATOM      7  C   UNL     1       2.890   5.425  20.130  0.00  0.00    +0.000 A 
ATOM      8  C   UNL     1       2.728   4.417  21.081  0.00  0.00    +0.000 A 
ATOM      9  C   UNL     1       1.801   3.402  20.863  0.00  0.00    +0.000 A 
ATOM     10 CL   UNL     1       1.664   2.111  21.992  0.00  0.00    +0.000 Cl
ATOM     11  C   UNL     1       1.005   3.407  19.721  0.00  0.00    +0.000 A 
ATOM     12  C   UNL     1       1.185   4.399  18.757  0.00  0.00    +0.000 A 
ENDBRANCH   5   6
BRANCH   4  13
ATOM     13  S   UNL     1       4.485   4.461  17.218  0.00  0.00    +0.000 S 
ATOM     14  O   UNL     1       5.397   4.496  18.340  0.00  0.00    +0.000 OA
ATOM     15  O   UNL     1       3.410   3.490  17.148  0.00  0.00    +0.000 OA
BRANCH  13  16
ATOM     16  C   UNL     1       5.484   4.173  15.772  0.00  0.00    +0.000 A 
ATOM     17  C   UNL     1       4.899   3.635  14.624  0.00  0.00    +0.000 A 
ATOM     18  C   UNL     1       5.588   3.680  13.410  0.00  0.00    +0.000 A 
ATOM     19  C   UNL     1       6.852   4.281  13.331  0.00  0.00    +0.000 A 
ATOM     20  C   UNL     1       7.565   4.412  12.017  0.00  0.00    +0.000 C 
ATOM     21  C   UNL     1       7.432   4.812  14.489  0.00  0.00    +0.000 A 
ATOM     22  C   UNL     1       6.754   4.760  15.707  0.00  0.00    +0.000 A 
ENDBRANCH  13  16
ENDBRANCH   4  13
BRANCH   1  23
ATOM     23  C   UNL     1       1.631   8.506  18.857  0.00  0.00    +0.000 C 
ATOM     24  O   UNL     1       1.441   8.407  20.061  0.00  0.00    +0.000 OA
BRANCH  23  25
ATOM     25  O   UNL     1       0.906   9.254  17.991  0.00  0.00    +0.000 OA
BRANCH  25  27
ATOM     26  C   UNL     1      -1.348  10.172  18.063  0.00  0.00    +0.000 C 
ATOM     27  C   UNL     1       0.077  10.275  18.567  0.00  0.00    +0.000 C 
ENDBRANCH  25  27
ENDBRANCH  23  25
ENDBRANCH   1  23
TORSDOF 6
ENDMDL
MODEL 5
REMARK VINA RESULT:      -6.3      5.436     10.356
REMARK  Name = 
REMARK  8 active torsions:
REMARK  status: ('A' for Active; 'I' for Inactive)
REMARK    1  A    between atoms: C_1  and  C_2
REMARK    2  A    between atoms: C_2  and  O_3
REMARK    3  A    between atoms: O_3  and  C_4
REMARK    4  A    between atoms: C_4  and  C_6
REMARK    5  A    between atoms: N_9  and  S_10
REMARK    6  A    between atoms: S_10  and  C_13
REMARK    7  A    between atoms: C_16  and  C_17
REMARK    8  A    between atoms: C_20  and  C_21
REMARK                            x       y       z     vdW  Elec       q    Type
REMARK                         _______ _______ _______ _____ _____    ______ ____
ROOT
ATOM      1  C   UNL     1       0.540  14.452  19.252  0.00  0.00    +0.000 C 
ATOM      2  C   UNL     1       1.837  14.122  19.203  0.00  0.00    +0.000 C 
ATOM      3  C   UNL     1       2.032  12.652  19.347  0.00  0.00    +0.000 C 
ATOM      4  N   UNL     1       0.655  12.100  19.361  0.00  0.00    +0.000 NA
ATOM      5  C   UNL     1      -0.332  13.251  19.430  0.00  0.00    +0.000 C 
ENDROOT
BRANCH   5   6
ATOM      6  C   UNL     1      -1.216  13.309  20.668  0.00  0.00    +0.000 A 
ATOM      7  C   UNL     1      -0.680  13.443  21.959  0.00  0.00    +0.000 A 
ATOM      8  C   UNL     1      -1.481  13.235  23.083  0.00  0.00    +0.000 A 
ATOM      9  C   UNL     1      -2.834  12.948  22.926  0.00  0.00    +0.000 A 
ATOM     10 CL   UNL     1      -3.802  12.604  24.307  0.00  0.00    +0.000 Cl
ATOM     11  C   UNL     1      -3.404  12.907  21.657  0.00  0.00    +0.000 A 
ATOM     12  C   UNL     1      -2.599  13.088  20.532  0.00  0.00    +0.000 A 
ENDBRANCH   5   6
BRANCH   4  13
ATOM     13  S   UNL     1       0.366  10.748  20.345  0.00  0.00    +0.000 S 
ATOM     14  O   UNL     1       1.107  10.912  21.577  0.00  0.00    +0.000 OA
ATOM     15  O   UNL     1      -1.061  10.497  20.350  0.00  0.00    +0.000 OA
BRANCH  13  16
ATOM     16  C   UNL     1       1.095   9.356  19.506  0.00  0.00    +0.000 A 
ATOM     17  C   UNL     1       1.525   9.495  18.185  0.00  0.00    +0.000 A 
ATOM     18  C   UNL     1       2.353   8.520  17.622  0.00  0.00    +0.000 A 
ATOM     19  C   UNL     1       2.771   7.417  18.379  0.00  0.00    +0.000 A 
ATOM     20  C   UNL     1       3.729   6.409  17.813  0.00  0.00    +0.000 C 
ATOM     21  C   UNL     1       2.329   7.285  19.700  0.00  0.00    +0.000 A 
ATOM     22  C   UNL     1       1.494   8.249  20.266  0.00  0.00    +0.000 A 
ENDBRANCH  13  16
ENDBRANCH   4  13
BRANCH   1  23
ATOM     23  C   UNL     1       0.034  15.833  19.237  0.00  0.00    +0.000 C 
ATOM     24  O   UNL     1      -0.522  16.339  18.272  0.00  0.00    +0.000 OA
BRANCH  23  25
ATOM     25  O   UNL     1       0.344  16.455  20.400  0.00  0.00    +0.000 OA
BRANCH  25  27
ATOM     26  C   UNL     1      -1.805  16.906  21.453  0.00  0.00    +0.000 C 
ATOM     27  C   UNL     1      -0.554  17.491  20.830  0.00  0.00    +0.000 C 
ENDBRANCH  25  27
ENDBRANCH  23  25
ENDBRANCH   1  23
TORSDOF 6
ENDMDL
MODEL 6
REMARK VINA RESULT:      -6.3      5.524     10.607
REMARK  Name = 
REMARK  8 active torsions:
REMARK  status: ('A' for Active; 'I' for Inactive)
REMARK    1  A    between atoms: C_1  and  C_2
REMARK    2  A    between atoms: C_2  and  O_3
REMARK    3  A    between atoms: O_3  and  C_4
REMARK    4  A    between atoms: C_4  and  C_6
REMARK    5  A    between atoms: N_9  and  S_10
REMARK    6  A    between atoms: S_10  and  C_13
REMARK    7  A    between atoms: C_16  and  C_17
REMARK    8  A    between atoms: C_20  and  C_21
REMARK                            x       y       z     vdW  Elec       q    Type
REMARK                         _______ _______ _______ _____ _____    ______ ____
ROOT
ATOM      1  C   UNL     1      -0.007  14.312  20.113  0.00  0.00    +0.000 C 
ATOM      2  C   UNL     1       1.262  13.974  20.376  0.00  0.00    +0.000 C 
ATOM      3  C   UNL     1       1.501  12.522  20.145  0.00  0.00    +0.000 C 
ATOM      4  N   UNL     1       0.224  12.029  19.572  0.00  0.00    +0.000 NA
ATOM      5  C   UNL     1      -0.810  13.136  19.659  0.00  0.00    +0.000 C 
ENDROOT
BRANCH   5   6
ATOM      6  C   UNL     1      -2.031  12.853  20.523  0.00  0.00    +0.000 A 
ATOM      7  C   UNL     1      -3.306  12.654  19.967  0.00  0.00    +0.000 A 
ATOM      8  C   UNL     1      -4.440  12.655  20.781  0.00  0.00    +0.000 A 
ATOM      9  C   UNL     1      -4.305  12.796  22.159  0.00  0.00    +0.000 A 
ATOM     10 CL   UNL     1      -5.707  12.886  23.152  0.00  0.00    +0.000 Cl
ATOM     11  C   UNL     1      -3.042  12.896  22.737  0.00  0.00    +0.000 A 
ATOM     12  C   UNL     1      -1.909  12.923  21.923  0.00  0.00    +0.000 A 
ENDBRANCH   5   6
BRANCH   4  13
ATOM     13  S   UNL     1      -0.261  10.456  19.987  0.00  0.00    +0.000 S 
ATOM     14  O   UNL     1      -0.348  10.369  21.428  0.00  0.00    +0.000 OA
ATOM     15  O   UNL     1      -1.381  10.097  19.138  0.00  0.00    +0.000 OA
BRANCH  13  16
ATOM     16  C   UNL     1       1.072   9.379  19.501  0.00  0.00    +0.000 A 
ATOM     17  C   UNL     1       1.431   8.311  20.327  0.00  0.00    +0.000 A 
ATOM     18  C   UNL     1       2.258   7.301  19.830  0.00  0.00    +0.000 A 
ATOM     19  C   UNL     1       2.712   7.341  18.504  0.00  0.00    +0.000 A 
ATOM     20  C   UNL     1       3.530   6.220  17.932  0.00  0.00    +0.000 C 
ATOM     21  C   UNL     1       2.351   8.419  17.688  0.00  0.00    +0.000 A 
ATOM     22  C   UNL     1       1.534   9.437  18.181  0.00  0.00    +0.000 A 
ENDBRANCH  13  16
ENDBRANCH   4  13
BRANCH   1  23
ATOM     23  C   UNL     1      -0.573  15.650  20.338  0.00  0.00    +0.000 C 
ATOM     24  O   UNL     1      -1.325  16.208  19.551  0.00  0.00    +0.000 OA
BRANCH  23  25
ATOM     25  O   UNL     1      -0.080  16.177  21.485  0.00  0.00    +0.000 OA
BRANCH  25  27
ATOM     26  C   UNL     1      -0.671  15.832  23.822  0.00  0.00    +0.000 C 
ATOM     27  C   UNL     1      -1.038  16.491  22.508  0.00  0.00    +0.000 C 
ENDBRANCH  25  27
ENDBRANCH  23  25
ENDBRANCH   1  23
TORSDOF 6
ENDMDL
MODEL 7
REMARK VINA RESULT:      -6.2      0.728      1.155
REMARK  Name = 
REMARK  8 active torsions:
REMARK  status: ('A' for Active; 'I' for Inactive)
REMARK    1  A    between atoms: C_1  and  C_2
REMARK    2  A    between atoms: C_2  and  O_3
REMARK    3  A    between atoms: O_3  and  C_4
REMARK    4  A    between atoms: C_4  and  C_6
REMARK    5  A    between atoms: N_9  and  S_10
REMARK    6  A    between atoms: S_10  and  C_13
REMARK    7  A    between atoms: C_16  and  C_17
REMARK    8  A    between atoms: C_20  and  C_21
REMARK                            x       y       z     vdW  Elec       q    Type
REMARK                         _______ _______ _______ _____ _____    ______ ____
ROOT
ATOM      1  C   UNL     1       5.712   5.569  16.566  0.00  0.00    +0.000 C 
ATOM      2  C   UNL     1       5.204   6.560  15.822  0.00  0.00    +0.000 C 
ATOM      3  C   UNL     1       4.130   7.293  16.550  0.00  0.00    +0.000 C 
ATOM      4  N   UNL     1       4.135   6.695  17.908  0.00  0.00    +0.000 NA
ATOM      5  C   UNL     1       5.059   5.492  17.908  0.00  0.00    +0.000 C 
ENDROOT
BRANCH   5   6
ATOM      6  C   UNL     1       4.413   4.145  18.204  0.00  0.00    +0.000 A 
ATOM      7  C   UNL     1       3.567   3.508  17.281  0.00  0.00    +0.000 A 
ATOM      8  C   UNL     1       2.791   2.415  17.671  0.00  0.00    +0.000 A 
ATOM      9  C   UNL     1       2.897   1.916  18.967  0.00  0.00    +0.000 A 
ATOM     10 CL   UNL     1       1.877   0.627  19.474  0.00  0.00    +0.000 Cl
ATOM     11  C   UNL     1       3.802   2.474  19.865  0.00  0.00    +0.000 A 
ATOM     12  C   UNL     1       4.559   3.583  19.485  0.00  0.00    +0.000 A 
ENDBRANCH   5   6
BRANCH   4  13
ATOM     13  S   UNL     1       2.642   6.549  18.701  0.00  0.00    +0.000 S 
ATOM     14  O   UNL     1       1.761   5.752  17.875  0.00  0.00    +0.000 OA
ATOM     15  O   UNL     1       2.903   6.199  20.083  0.00  0.00    +0.000 OA
BRANCH  13  16
ATOM     16  C   UNL     1       1.938   8.185  18.746  0.00  0.00    +0.000 A 
ATOM     17  C   UNL     1       1.326   8.640  19.915  0.00  0.00    +0.000 A 
ATOM     18  C   UNL     1       1.039   9.999  20.061  0.00  0.00    +0.000 A 
ATOM     19  C   UNL     1       1.382  10.911  19.053  0.00  0.00    +0.000 A 
ATOM     20  C   UNL     1       1.157  12.385  19.234  0.00  0.00    +0.000 C 
ATOM     21  C   UNL     1       1.990  10.443  17.883  0.00  0.00    +0.000 A 
ATOM     22  C   UNL     1       2.269   9.085  17.726  0.00  0.00    +0.000 A 
ENDBRANCH  13  16
ENDBRANCH   4  13
BRANCH   1  23
ATOM     23  C   UNL     1       6.716   4.606  16.090  0.00  0.00    +0.000 C 
ATOM     24  O   UNL     1       7.870   4.576  16.494  0.00  0.00    +0.000 OA
BRANCH  23  25
ATOM     25  O   UNL     1       6.192   3.834  15.107  0.00  0.00    +0.000 OA
BRANCH  25  27
ATOM     26  C   UNL     1       5.729   3.508  12.739  0.00  0.00    +0.000 C 
ATOM     27  C   UNL     1       6.675   4.078  13.777  0.00  0.00    +0.000 C 
ENDBRANCH  25  27
ENDBRANCH  23  25
ENDBRANCH   1  23
TORSDOF 6
ENDMDL
MODEL 8
REMARK VINA RESULT:      -6.2      2.274      6.732
REMARK  Name = 
REMARK  8 active torsions:
REMARK  status: ('A' for Active; 'I' for Inactive)
REMARK    1  A    between atoms: C_1  and  C_2
REMARK    2  A    between atoms: C_2  and  O_3
REMARK    3  A    between atoms: O_3  and  C_4
REMARK    4  A    between atoms: C_4  and  C_6
REMARK    5  A    between atoms: N_9  and  S_10
REMARK    6  A    between atoms: S_10  and  C_13
REMARK    7  A    between atoms: C_16  and  C_17
REMARK    8  A    between atoms: C_20  and  C_21
REMARK                            x       y       z     vdW  Elec       q    Type
REMARK                         _______ _______ _______ _____ _____    ______ ____
ROOT
ATOM      1  C   UNL     1       2.587   7.727  18.177  0.00  0.00    +0.000 C 
ATOM      2  C   UNL     1       3.793   8.216  17.858  0.00  0.00    +0.000 C 
ATOM      3  C   UNL     1       4.652   7.178  17.221  0.00  0.00    +0.000 C 
ATOM      4  N   UNL     1       3.757   6.005  17.071  0.00  0.00    +0.000 NA
ATOM      5  C   UNL     1       2.455   6.287  17.797  0.00  0.00    +0.000 C 
ENDROOT
BRANCH   5   6
ATOM      6  C   UNL     1       2.119   5.369  18.965  0.00  0.00    +0.000 A 
ATOM      7  C   UNL     1       2.840   5.405  20.169  0.00  0.00    +0.000 A 
ATOM      8  C   UNL     1       2.685   4.391  21.117  0.00  0.00    +0.000 A 
ATOM      9  C   UNL     1       1.769   3.368  20.893  0.00  0.00    +0.000 A 
ATOM     10 CL   UNL     1       1.642   2.072  22.017  0.00  0.00    +0.000 Cl
ATOM     11  C   UNL     1       0.975   3.369  19.749  0.00  0.00    +0.000 A 
ATOM     12  C   UNL     1       1.148   4.367  18.789  0.00  0.00    +0.000 A 
ENDBRANCH   5   6
BRANCH   4  13
ATOM     13  S   UNL     1       4.450   4.466  17.258  0.00  0.00    +0.000 S 
ATOM     14  O   UNL     1       5.368   4.510  18.374  0.00  0.00    +0.000 OA
ATOM     15  O   UNL     1       3.384   3.486  17.193  0.00  0.00    +0.000 OA
BRANCH  13  16
ATOM     16  C   UNL     1       5.444   4.189  15.806  0.00  0.00    +0.000 A 
ATOM     17  C   UNL     1       4.851   3.673  14.652  0.00  0.00    +0.000 A 
ATOM     18  C   UNL     1       5.539   3.727  13.437  0.00  0.00    +0.000 A 
ATOM     19  C   UNL     1       6.810   4.315  13.365  0.00  0.00    +0.000 A 
ATOM     20  C   UNL     1       7.522   4.456  12.051  0.00  0.00    +0.000 C 
ATOM     21  C   UNL     1       7.397   4.823  14.529  0.00  0.00    +0.000 A 
ATOM     22  C   UNL     1       6.721   4.762  15.747  0.00  0.00    +0.000 A 
ENDBRANCH  13  16
ENDBRANCH   4  13
BRANCH   1  23
ATOM     23  C   UNL     1       1.554   8.478  18.905  0.00  0.00    +0.000 C 
ATOM     24  O   UNL     1       0.729   9.197  18.359  0.00  0.00    +0.000 OA
BRANCH  23  25
ATOM     25  O   UNL     1       1.709   8.308  20.241  0.00  0.00    +0.000 OA
BRANCH  25  27
ATOM     26  C   UNL     1      -0.255   8.494  21.667  0.00  0.00    +0.000 C 
ATOM     27  C   UNL     1       0.958   9.192  21.089  0.00  0.00    +0.000 C 
ENDBRANCH  25  27
ENDBRANCH  23  25
ENDBRANCH   1  23
TORSDOF 6
ENDMDL
MODEL 9
REMARK VINA RESULT:      -6.2      5.513     10.424
REMARK  Name = 
REMARK  8 active torsions:
REMARK  status: ('A' for Active; 'I' for Inactive)
REMARK    1  A    between atoms: C_1  and  C_2
REMARK    2  A    between atoms: C_2  and  O_3
REMARK    3  A    between atoms: O_3  and  C_4
REMARK    4  A    between atoms: C_4  and  C_6
REMARK    5  A    between atoms: N_9  and  S_10
REMARK    6  A    between atoms: S_10  and  C_13
REMARK    7  A    between atoms: C_16  and  C_17
REMARK    8  A    between atoms: C_20  and  C_21
REMARK                            x       y       z     vdW  Elec       q    Type
REMARK                         _______ _______ _______ _____ _____    ______ ____
ROOT
ATOM      1  C   UNL     1       0.347  14.180  20.517  0.00  0.00    +0.000 C 
ATOM      2  C   UNL     1       1.587  13.734  20.753  0.00  0.00    +0.000 C 
ATOM      3  C   UNL     1       1.729  12.296  20.388  0.00  0.00    +0.000 C 
ATOM      4  N   UNL     1       0.428  11.948  19.765  0.00  0.00    +0.000 NA
ATOM      5  C   UNL     1      -0.529  13.110  19.950  0.00  0.00    +0.000 C 
ENDROOT
BRANCH   5   6
ATOM      6  C   UNL     1      -1.776  12.831  20.779  0.00  0.00    +0.000 A 
ATOM      7  C   UNL     1      -3.050  12.735  20.195  0.00  0.00    +0.000 A 
ATOM      8  C   UNL     1      -4.196  12.739  20.993  0.00  0.00    +0.000 A 
ATOM      9  C   UNL     1      -4.075  12.780  22.379  0.00  0.00    +0.000 A 
ATOM     10 CL   UNL     1      -5.486  12.875  23.358  0.00  0.00    +0.000 Cl
ATOM     11  C   UNL     1      -2.819  12.777  22.978  0.00  0.00    +0.000 A 
ATOM     12  C   UNL     1      -1.673  12.801  22.181  0.00  0.00    +0.000 A 
ENDBRANCH   5   6
BRANCH   4  13
ATOM     13  S   UNL     1      -0.167  10.380  20.028  0.00  0.00    +0.000 S 
ATOM     14  O   UNL     1      -0.318  10.180  21.453  0.00  0.00    +0.000 OA
ATOM     15  O   UNL     1      -1.270  10.163  19.113  0.00  0.00    +0.000 OA
BRANCH  13  16
ATOM     16  C   UNL     1       1.118   9.264  19.502  0.00  0.00    +0.000 A 
ATOM     17  C   UNL     1       1.491   8.202  20.329  0.00  0.00    +0.000 A 
ATOM     18  C   UNL     1       2.272   7.166  19.813  0.00  0.00    +0.000 A 
ATOM     19  C   UNL     1       2.665   7.172  18.468  0.00  0.00    +0.000 A 
ATOM     20  C   UNL     1       3.431   6.023  17.880  0.00  0.00    +0.000 C 
ATOM     21  C   UNL     1       2.291   8.244  17.649  0.00  0.00    +0.000 A 
ATOM     22  C   UNL     1       1.521   9.288  18.161  0.00  0.00    +0.000 A 
ENDBRANCH  13  16
ENDBRANCH   4  13
BRANCH   1  23
ATOM     23  C   UNL     1      -0.131  15.527  20.864  0.00  0.00    +0.000 C 
ATOM     24  O   UNL     1       0.006  16.030  21.970  0.00  0.00    +0.000 OA
BRANCH  23  25
ATOM     25  O   UNL     1      -0.794  16.071  19.814  0.00  0.00    +0.000 OA
BRANCH  25  27
ATOM     26  C   UNL     1      -1.162  17.904  18.254  0.00  0.00    +0.000 C 
ATOM     27  C   UNL     1      -0.601  17.477  19.595  0.00  0.00    +0.000 C 
ENDBRANCH  25  27
ENDBRANCH  23  25
ENDBRANCH   1  23
TORSDOF 6
ENDMDL
