MODEL 1
REMARK VINA RESULT:      -8.6      0.000      0.000
REMARK  Name = 
REMARK  5 active torsions:
REMARK  status: ('A' for Active; 'I' for Inactive)
REMARK    1  A    between atoms: C_1  and  C_2
REMARK    2  A    between atoms: C_7  and  C_8
REMARK    3  A    between atoms: C_8  and  C_9
REMARK    4  A    between atoms: C_9  and  N_10
REMARK    5  A    between atoms: C_14  and  C_15
REMARK                            x       y       z     vdW  Elec       q    Type
REMARK                         _______ _______ _______ _____ _____    ______ ____
ROOT
ATOM      1  N   UNL     1       6.175   5.731  17.733  0.00  0.00    +0.000 N 
ATOM      2  C   UNL     1       7.544   5.730  17.873  0.00  0.00    +0.000 A 
ATOM      3  C   UNL     1       7.789   5.557  19.204  0.00  0.00    +0.000 A 
ATOM      4  N   UNL     1       6.621   5.355  19.865  0.00  0.00    +0.000 NA
ATOM      5  C   UNL     1       5.632   5.453  18.987  0.00  0.00    +0.000 A 
ENDROOT
BRANCH   5   6
ATOM      6  C   UNL     1       4.210   5.215  19.366  0.00  0.00    +0.000 A 
ATOM      7  C   UNL     1       3.405   6.273  19.792  0.00  0.00    +0.000 A 
ATOM      8  C   UNL     1       2.060   6.063  20.015  0.00  0.00    +0.000 A 
ATOM      9  N   UNL     1       1.444   4.890  19.808  0.00  0.00    +0.000 NA
ATOM     10  C   UNL     1       2.180   3.868  19.352  0.00  0.00    +0.000 A 
ATOM     11  C   UNL     1       1.503   2.700  19.031  0.00  0.00    +0.000 A 
ATOM     12  C   UNL     1       2.152   1.584  18.510  0.00  0.00    +0.000 A 
ATOM     13  C   UNL     1       3.526   1.610  18.350  0.00  0.00    +0.000 A 
ATOM     14  C   UNL     1       4.231   2.765  18.687  0.00  0.00    +0.000 A 
ATOM     15  C   UNL     1       3.584   3.946  19.139  0.00  0.00    +0.000 A 
ENDBRANCH   5   6
BRANCH   1  16
ATOM     16  C   UNL     1       5.468   6.018  16.490  0.00  0.00    +0.000 C 
BRANCH  16  17
ATOM     17  C   UNL     1       4.951   4.820  15.693  0.00  0.00    +0.000 C 
BRANCH  17  24
ATOM     18  C   UNL     1       5.678   2.457  11.494  0.00  0.00    +0.000 C 
ATOM     19  C   UNL     1       6.192   3.453  12.491  0.00  0.00    +0.000 A 
ATOM     20  C   UNL     1       7.292   4.181  12.247  0.00  0.00    +0.000 A 
ATOM     21  C   UNL     1       7.701   5.182  13.237  0.00  0.00    +0.000 A 
ATOM     22  O   UNL     1       8.656   5.923  13.053  0.00  0.00    +0.000 OA
ATOM     23  N   UNL     1       6.910   5.249  14.344  0.00  0.00    +0.000 N 
ATOM     24  C   UNL     1       5.777   4.500  14.478  0.00  0.00    +0.000 A 
ATOM     25  N   UNL     1       5.423   3.591  13.625  0.00  0.00    +0.000 NA
ATOM     26  H   UNL     1       7.158   5.967  15.010  0.00  0.00    +0.000 HD
ENDBRANCH  17  24
ENDBRANCH  16  17
ENDBRANCH   1  16
TORSDOF 4
ENDMDL
MODEL 2
REMARK VINA RESULT:      -8.6      0.840      2.160
REMARK  Name = 
REMARK  5 active torsions:
REMARK  status: ('A' for Active; 'I' for Inactive)
REMARK    1  A    between atoms: C_1  and  C_2
REMARK    2  A    between atoms: C_7  and  C_8
REMARK    3  A    between atoms: C_8  and  C_9
REMARK    4  A    between atoms: C_9  and  N_10
REMARK    5  A    between atoms: C_14  and  C_15
REMARK                            x       y       z     vdW  Elec       q    Type
REMARK                         _______ _______ _______ _____ _____    ______ ____
ROOT
ATOM      1  N   UNL     1       6.327   5.790  17.800  0.00  0.00    +0.000 N 
ATOM      2  C   UNL     1       7.597   6.251  18.052  0.00  0.00    +0.000 A 
ATOM      3  C   UNL     1       7.902   5.850  19.320  0.00  0.00    +0.000 A 
ATOM      4  N   UNL     1       6.900   5.078  19.812  0.00  0.00    +0.000 NA
ATOM      5  C   UNL     1       5.937   5.027  18.901  0.00  0.00    +0.000 A 
ENDROOT
BRANCH   5   6
ATOM      6  C   UNL     1       4.710   4.202  19.089  0.00  0.00    +0.000 A 
ATOM      7  C   UNL     1       4.778   2.809  19.024  0.00  0.00    +0.000 A 
ATOM      8  C   UNL     1       3.663   2.056  19.327  0.00  0.00    +0.000 A 
ATOM      9  N   UNL     1       2.496   2.578  19.730  0.00  0.00    +0.000 NA
ATOM     10  C   UNL     1       2.415   3.909  19.850  0.00  0.00    +0.000 A 
ATOM     11  C   UNL     1       1.239   4.422  20.381  0.00  0.00    +0.000 A 
ATOM     12  C   UNL     1       1.052   5.785  20.593  0.00  0.00    +0.000 A 
ATOM     13  C   UNL     1       2.043   6.674  20.216  0.00  0.00    +0.000 A 
ATOM     14  C   UNL     1       3.224   6.185  19.658  0.00  0.00    +0.000 A 
ATOM     15  C   UNL     1       3.476   4.794  19.511  0.00  0.00    +0.000 A 
ENDBRANCH   5   6
BRANCH   1  16
ATOM     16  C   UNL     1       5.551   6.103  16.604  0.00  0.00    +0.000 C 
BRANCH  16  17
ATOM     17  C   UNL     1       4.995   4.923  15.807  0.00  0.00    +0.000 C 
BRANCH  17  24
ATOM     18  C   UNL     1       5.624   2.550  11.598  0.00  0.00    +0.000 C 
ATOM     19  C   UNL     1       6.171   3.533  12.590  0.00  0.00    +0.000 A 
ATOM     20  C   UNL     1       7.283   4.237  12.335  0.00  0.00    +0.000 A 
ATOM     21  C   UNL     1       7.725   5.228  13.321  0.00  0.00    +0.000 A 
ATOM     22  O   UNL     1       8.693   5.948  13.127  0.00  0.00    +0.000 OA
ATOM     23  N   UNL     1       6.948   5.310  14.437  0.00  0.00    +0.000 N 
ATOM     24  C   UNL     1       5.801   4.586  14.583  0.00  0.00    +0.000 A 
ATOM     25  N   UNL     1       5.417   3.686  13.733  0.00  0.00    +0.000 NA
ATOM     26  H   UNL     1       7.220   6.022  15.101  0.00  0.00    +0.000 HD
ENDBRANCH  17  24
ENDBRANCH  16  17
ENDBRANCH   1  16
TORSDOF 4
ENDMDL
MODEL 3
REMARK VINA RESULT:      -8.1      1.419      2.768
REMARK  Name = 
REMARK  5 active torsions:
REMARK  status: ('A' for Active; 'I' for Inactive)
REMARK    1  A    between atoms: C_1  and  C_2
REMARK    2  A    between atoms: C_7  and  C_8
REMARK    3  A    between atoms: C_8  and  C_9
REMARK    4  A    between atoms: C_9  and  N_10
REMARK    5  A    between atoms: C_14  and  C_15
REMARK                            x       y       z     vdW  Elec       q    Type
REMARK                         _______ _______ _______ _____ _____    ______ ____
ROOT
ATOM      1  N   UNL     1       6.264   5.595  17.652  0.00  0.00    +0.000 N 
ATOM      2  C   UNL     1       7.535   6.112  17.754  0.00  0.00    +0.000 A 
ATOM      3  C   UNL     1       7.892   5.986  19.065  0.00  0.00    +0.000 A 
ATOM      4  N   UNL     1       6.923   5.323  19.745  0.00  0.00    +0.000 NA
ATOM      5  C   UNL     1       5.929   5.074  18.902  0.00  0.00    +0.000 A 
ENDROOT
BRANCH   5   6
ATOM      6  C   UNL     1       4.725   4.293  19.305  0.00  0.00    +0.000 A 
ATOM      7  C   UNL     1       4.813   2.917  19.517  0.00  0.00    +0.000 A 
ATOM      8  C   UNL     1       3.725   2.230  20.014  0.00  0.00    +0.000 A 
ATOM      9  N   UNL     1       2.566   2.813  20.354  0.00  0.00    +0.000 NA
ATOM     10  C   UNL     1       2.468   4.141  20.209  0.00  0.00    +0.000 A 
ATOM     11  C   UNL     1       1.307   4.739  20.677  0.00  0.00    +0.000 A 
ATOM     12  C   UNL     1       1.105   6.116  20.619  0.00  0.00    +0.000 A 
ATOM     13  C   UNL     1       2.065   6.920  20.030  0.00  0.00    +0.000 A 
ATOM     14  C   UNL     1       3.230   6.337  19.530  0.00  0.00    +0.000 A 
ATOM     15  C   UNL     1       3.499   4.948  19.654  0.00  0.00    +0.000 A 
ENDBRANCH   5   6
BRANCH   1  16
ATOM     16  C   UNL     1       5.441   5.645  16.449  0.00  0.00    +0.000 C 
BRANCH  16  17
ATOM     17  C   UNL     1       5.275   4.342  15.666  0.00  0.00    +0.000 C 
BRANCH  17  24
ATOM     18  C   UNL     1       8.713   5.964  12.619  0.00  0.00    +0.000 C 
ATOM     19  C   UNL     1       7.563   5.028  12.846  0.00  0.00    +0.000 A 
ATOM     20  C   UNL     1       7.244   4.085  11.949  0.00  0.00    +0.000 A 
ATOM     21  C   UNL     1       6.149   3.162  12.265  0.00  0.00    +0.000 A 
ATOM     22  O   UNL     1       5.844   2.240  11.523  0.00  0.00    +0.000 OA
ATOM     23  N   UNL     1       5.539   3.387  13.462  0.00  0.00    +0.000 N 
ATOM     24  C   UNL     1       5.971   4.344  14.334  0.00  0.00    +0.000 A 
ATOM     25  N   UNL     1       6.917   5.184  14.053  0.00  0.00    +0.000 NA
ATOM     26  H   UNL     1       4.813   2.728  13.708  0.00  0.00    +0.000 HD
ENDBRANCH  17  24
ENDBRANCH  16  17
ENDBRANCH   1  16
TORSDOF 4
ENDMDL
MODEL 4
REMARK VINA RESULT:      -8.1      1.031      1.674
REMARK  Name = 
REMARK  5 active torsions:
REMARK  status: ('A' for Active; 'I' for Inactive)
REMARK    1  A    between atoms: C_1  and  C_2
REMARK    2  A    between atoms: C_7  and  C_8
REMARK    3  A    between atoms: C_8  and  C_9
REMARK    4  A    between atoms: C_9  and  N_10
REMARK    5  A    between atoms: C_14  and  C_15
REMARK                            x       y       z     vdW  Elec       q    Type
REMARK                         _______ _______ _______ _____ _____    ______ ____
ROOT
ATOM      1  N   UNL     1       6.064   5.608  17.661  0.00  0.00    +0.000 N 
ATOM      2  C   UNL     1       7.437   5.634  17.750  0.00  0.00    +0.000 A 
ATOM      3  C   UNL     1       7.733   5.547  19.079  0.00  0.00    +0.000 A 
ATOM      4  N   UNL     1       6.593   5.370  19.794  0.00  0.00    +0.000 NA
ATOM      5  C   UNL     1       5.571   5.401  18.949  0.00  0.00    +0.000 A 
ENDROOT
BRANCH   5   6
ATOM      6  C   UNL     1       4.167   5.167  19.393  0.00  0.00    +0.000 A 
ATOM      7  C   UNL     1       3.386   6.229  19.852  0.00  0.00    +0.000 A 
ATOM      8  C   UNL     1       2.052   6.022  20.138  0.00  0.00    +0.000 A 
ATOM      9  N   UNL     1       1.424   4.850  19.964  0.00  0.00    +0.000 NA
ATOM     10  C   UNL     1       2.136   3.825  19.478  0.00  0.00    +0.000 A 
ATOM     11  C   UNL     1       1.442   2.658  19.194  0.00  0.00    +0.000 A 
ATOM     12  C   UNL     1       2.064   1.538  18.647  0.00  0.00    +0.000 A 
ATOM     13  C   UNL     1       3.429   1.560  18.423  0.00  0.00    +0.000 A 
ATOM     14  C   UNL     1       4.152   2.715  18.724  0.00  0.00    +0.000 A 
ATOM     15  C   UNL     1       3.529   3.899  19.201  0.00  0.00    +0.000 A 
ENDBRANCH   5   6
BRANCH   1  16
ATOM     16  C   UNL     1       5.308   5.808  16.429  0.00  0.00    +0.000 C 
BRANCH  16  17
ATOM     17  C   UNL     1       5.000   4.566  15.593  0.00  0.00    +0.000 C 
BRANCH  17  24
ATOM     18  C   UNL     1       8.752   5.870  12.771  0.00  0.00    +0.000 C 
ATOM     19  C   UNL     1       7.524   5.024  12.932  0.00  0.00    +0.000 A 
ATOM     20  C   UNL     1       7.200   4.085  12.031  0.00  0.00    +0.000 A 
ATOM     21  C   UNL     1       6.022   3.250  12.284  0.00  0.00    +0.000 A 
ATOM     22  O   UNL     1       5.702   2.336  11.538  0.00  0.00    +0.000 OA
ATOM     23  N   UNL     1       5.347   3.545  13.430  0.00  0.00    +0.000 N 
ATOM     24  C   UNL     1       5.786   4.488  14.314  0.00  0.00    +0.000 A 
ATOM     25  N   UNL     1       6.808   5.252  14.086  0.00  0.00    +0.000 NA
ATOM     26  H   UNL     1       4.560   2.945  13.635  0.00  0.00    +0.000 HD
ENDBRANCH  17  24
ENDBRANCH  16  17
ENDBRANCH   1  16
TORSDOF 4
ENDMDL
MODEL 5
REMARK VINA RESULT:      -8.0      2.861      7.125
REMARK  Name = 
REMARK  5 active torsions:
REMARK  status: ('A' for Active; 'I' for Inactive)
REMARK    1  A    between atoms: C_1  and  C_2
REMARK    2  A    between atoms: C_7  and  C_8
REMARK    3  A    between atoms: C_8  and  C_9
REMARK    4  A    between atoms: C_9  and  N_10
REMARK    5  A    between atoms: C_14  and  C_15
REMARK                            x       y       z     vdW  Elec       q    Type
REMARK                         _______ _______ _______ _____ _____    ______ ____
ROOT
ATOM      1  N   UNL     1       2.876   3.802  18.444  0.00  0.00    +0.000 N 
ATOM      2  C   UNL     1       2.348   2.718  19.106  0.00  0.00    +0.000 A 
ATOM      3  C   UNL     1       3.048   1.630  18.671  0.00  0.00    +0.000 A 
ATOM      4  N   UNL     1       4.047   2.027  17.842  0.00  0.00    +0.000 NA
ATOM      5  C   UNL     1       3.960   3.343  17.697  0.00  0.00    +0.000 A 
ENDROOT
BRANCH   5   6
ATOM      6  C   UNL     1       4.952   4.120  16.901  0.00  0.00    +0.000 A 
ATOM      7  C   UNL     1       4.797   4.262  15.521  0.00  0.00    +0.000 A 
ATOM      8  C   UNL     1       5.648   5.089  14.818  0.00  0.00    +0.000 A 
ATOM      9  N   UNL     1       6.619   5.818  15.387  0.00  0.00    +0.000 NA
ATOM     10  C   UNL     1       6.761   5.741  16.716  0.00  0.00    +0.000 A 
ATOM     11  C   UNL     1       7.691   6.592  17.299  0.00  0.00    +0.000 A 
ATOM     12  C   UNL     1       7.900   6.634  18.675  0.00  0.00    +0.000 A 
ATOM     13  C   UNL     1       7.201   5.766  19.496  0.00  0.00    +0.000 A 
ATOM     14  C   UNL     1       6.279   4.885  18.931  0.00  0.00    +0.000 A 
ATOM     15  C   UNL     1       5.983   4.881  17.541  0.00  0.00    +0.000 A 
ENDBRANCH   5   6
BRANCH   1  16
ATOM     16  C   UNL     1       2.339   5.157  18.510  0.00  0.00    +0.000 C 
BRANCH  16  17
ATOM     17  C   UNL     1       2.624   5.956  19.782  0.00  0.00    +0.000 C 
BRANCH  17  24
ATOM     18  C   UNL     1       0.355   9.624  22.051  0.00  0.00    +0.000 C 
ATOM     19  C   UNL     1       0.951   9.098  20.778  0.00  0.00    +0.000 A 
ATOM     20  C   UNL     1       1.078   9.876  19.694  0.00  0.00    +0.000 A 
ATOM     21  C   UNL     1       1.728   9.317  18.505  0.00  0.00    +0.000 A 
ATOM     22  O   UNL     1       1.933   9.986  17.503  0.00  0.00    +0.000 OA
ATOM     23  N   UNL     1       2.121   8.018  18.625  0.00  0.00    +0.000 N 
ATOM     24  C   UNL     1       1.995   7.322  19.792  0.00  0.00    +0.000 A 
ATOM     25  N   UNL     1       1.395   7.796  20.838  0.00  0.00    +0.000 NA
ATOM     26  H   UNL     1       2.610   7.638  17.826  0.00  0.00    +0.000 HD
ENDBRANCH  17  24
ENDBRANCH  16  17
ENDBRANCH   1  16
TORSDOF 4
ENDMDL
MODEL 6
REMARK VINA RESULT:      -8.0      3.476      7.442
REMARK  Name = 
REMARK  5 active torsions:
REMARK  status: ('A' for Active; 'I' for Inactive)
REMARK    1  A    between atoms: C_1  and  C_2
REMARK    2  A    between atoms: C_7  and  C_8
REMARK    3  A    between atoms: C_8  and  C_9
REMARK    4  A    between atoms: C_9  and  N_10
REMARK    5  A    between atoms: C_14  and  C_15
REMARK                            x       y       z     vdW  Elec       q    Type
REMARK                         _______ _______ _______ _____ _____    ______ ____
ROOT
ATOM      1  N   UNL     1       2.621   4.261  18.395  0.00  0.00    +0.000 N 
ATOM      2  C   UNL     1       1.882   3.255  18.973  0.00  0.00    +0.000 A 
ATOM      3  C   UNL     1       2.357   2.087  18.450  0.00  0.00    +0.000 A 
ATOM      4  N   UNL     1       3.422   2.341  17.648  0.00  0.00    +0.000 NA
ATOM      5  C   UNL     1       3.599   3.655  17.607  0.00  0.00    +0.000 A 
ENDROOT
BRANCH   5   6
ATOM      6  C   UNL     1       4.733   4.279  16.867  0.00  0.00    +0.000 A 
ATOM      7  C   UNL     1       4.682   4.415  15.479  0.00  0.00    +0.000 A 
ATOM      8  C   UNL     1       5.678   5.109  14.823  0.00  0.00    +0.000 A 
ATOM      9  N   UNL     1       6.701   5.713  15.445  0.00  0.00    +0.000 NA
ATOM     10  C   UNL     1       6.750   5.643  16.781  0.00  0.00    +0.000 A 
ATOM     11  C   UNL     1       7.747   6.373  17.412  0.00  0.00    +0.000 A 
ATOM     12  C   UNL     1       7.875   6.412  18.798  0.00  0.00    +0.000 A 
ATOM     13  C   UNL     1       7.018   5.660  19.582  0.00  0.00    +0.000 A 
ATOM     14  C   UNL     1       6.023   4.899  18.969  0.00  0.00    +0.000 A 
ATOM     15  C   UNL     1       5.815   4.909  17.564  0.00  0.00    +0.000 A 
ENDBRANCH   5   6
BRANCH   1  16
ATOM     16  C   UNL     1       2.363   5.686  18.570  0.00  0.00    +0.000 C 
BRANCH  16  17
ATOM     17  C   UNL     1       2.579   6.265  19.968  0.00  0.00    +0.000 C 
BRANCH  17  24
ATOM     18  C   UNL     1       0.453  10.300  18.254  0.00  0.00    +0.000 C 
ATOM     19  C   UNL     1       0.950   9.542  19.449  0.00  0.00    +0.000 A 
ATOM     20  C   UNL     1       0.720   9.977  20.697  0.00  0.00    +0.000 A 
ATOM     21  C   UNL     1       1.177   9.152  21.819  0.00  0.00    +0.000 A 
ATOM     22  O   UNL     1       0.949   9.454  22.981  0.00  0.00    +0.000 OA
ATOM     23  N   UNL     1       1.830   8.011  21.463  0.00  0.00    +0.000 N 
ATOM     24  C   UNL     1       1.970   7.626  20.161  0.00  0.00    +0.000 A 
ATOM     25  N   UNL     1       1.597   8.361  19.161  0.00  0.00    +0.000 NA
ATOM     26  H   UNL     1       2.109   7.414  22.229  0.00  0.00    +0.000 HD
ENDBRANCH  17  24
ENDBRANCH  16  17
ENDBRANCH   1  16
TORSDOF 4
ENDMDL
MODEL 7
REMARK VINA RESULT:      -7.9      3.670      7.577
REMARK  Name = 
REMARK  5 active torsions:
REMARK  status: ('A' for Active; 'I' for Inactive)
REMARK    1  A    between atoms: C_1  and  C_2
REMARK    2  A    between atoms: C_7  and  C_8
REMARK    3  A    between atoms: C_8  and  C_9
REMARK    4  A    between atoms: C_9  and  N_10
REMARK    5  A    between atoms: C_14  and  C_15
REMARK                            x       y       z     vdW  Elec       q    Type
REMARK                         _______ _______ _______ _____ _____    ______ ____
ROOT
ATOM      1  N   UNL     1       2.770   4.543  19.215  0.00  0.00    +0.000 N 
ATOM      2  C   UNL     1       1.957   3.492  19.571  0.00  0.00    +0.000 A 
ATOM      3  C   UNL     1       2.604   2.359  19.172  0.00  0.00    +0.000 A 
ATOM      4  N   UNL     1       3.826   2.678  18.674  0.00  0.00    +0.000 NA
ATOM      5  C   UNL     1       3.945   3.999  18.697  0.00  0.00    +0.000 A 
ENDROOT
BRANCH   5   6
ATOM      6  C   UNL     1       5.199   4.690  18.283  0.00  0.00    +0.000 A 
ATOM      7  C   UNL     1       6.082   5.188  19.243  0.00  0.00    +0.000 A 
ATOM      8  C   UNL     1       7.298   5.708  18.849  0.00  0.00    +0.000 A 
ATOM      9  N   UNL     1       7.722   5.734  17.577  0.00  0.00    +0.000 NA
ATOM     10  C   UNL     1       6.918   5.218  16.639  0.00  0.00    +0.000 A 
ATOM     11  C   UNL     1       7.424   5.146  15.349  0.00  0.00    +0.000 A 
ATOM     12  C   UNL     1       6.699   4.592  14.296  0.00  0.00    +0.000 A 
ATOM     13  C   UNL     1       5.410   4.142  14.521  0.00  0.00    +0.000 A 
ATOM     14  C   UNL     1       4.871   4.226  15.805  0.00  0.00    +0.000 A 
ATOM     15  C   UNL     1       5.619   4.706  16.913  0.00  0.00    +0.000 A 
ENDBRANCH   5   6
BRANCH   1  16
ATOM     16  C   UNL     1       2.408   5.951  19.337  0.00  0.00    +0.000 C 
BRANCH  16  17
ATOM     17  C   UNL     1       1.772   6.394  20.656  0.00  0.00    +0.000 C 
BRANCH  17  24
ATOM     18  C   UNL     1       0.931  10.695  18.527  0.00  0.00    +0.000 C 
ATOM     19  C   UNL     1       1.038   9.914  19.803  0.00  0.00    +0.000 A 
ATOM     20  C   UNL     1       0.710  10.459  20.984  0.00  0.00    +0.000 A 
ATOM     21  C   UNL     1       0.776   9.618  22.184  0.00  0.00    +0.000 A 
ATOM     22  O   UNL     1       0.433  10.028  23.283  0.00  0.00    +0.000 OA
ATOM     23  N   UNL     1       1.202   8.343  21.966  0.00  0.00    +0.000 N 
ATOM     24  C   UNL     1       1.465   7.864  20.715  0.00  0.00    +0.000 A 
ATOM     25  N   UNL     1       1.439   8.605  19.653  0.00  0.00    +0.000 NA
ATOM     26  H   UNL     1       1.208   7.744  22.780  0.00  0.00    +0.000 HD
ENDBRANCH  17  24
ENDBRANCH  16  17
ENDBRANCH   1  16
TORSDOF 4
ENDMDL
MODEL 8
REMARK VINA RESULT:      -7.8      1.133      1.183
REMARK  Name = 
REMARK  5 active torsions:
REMARK  status: ('A' for Active; 'I' for Inactive)
REMARK    1  A    between atoms: C_1  and  C_2
REMARK    2  A    between atoms: C_7  and  C_8
REMARK    3  A    between atoms: C_8  and  C_9
REMARK    4  A    between atoms: C_9  and  N_10
REMARK    5  A    between atoms: C_14  and  C_15
REMARK                            x       y       z     vdW  Elec       q    Type
REMARK                         _______ _______ _______ _____ _____    ______ ____
ROOT
ATOM      1  N   UNL     1       6.127   4.541  17.859  0.00  0.00    +0.000 N 
ATOM      2  C   UNL     1       7.496   4.443  17.955  0.00  0.00    +0.000 A 
ATOM      3  C   UNL     1       7.854   5.178  19.047  0.00  0.00    +0.000 A 
ATOM      4  N   UNL     1       6.743   5.639  19.676  0.00  0.00    +0.000 NA
ATOM      5  C   UNL     1       5.686   5.258  18.971  0.00  0.00    +0.000 A 
ENDROOT
BRANCH   5   6
ATOM      6  C   UNL     1       4.292   5.538  19.419  0.00  0.00    +0.000 A 
ATOM      7  C   UNL     1       3.684   6.758  19.116  0.00  0.00    +0.000 A 
ATOM      8  C   UNL     1       2.353   6.954  19.423  0.00  0.00    +0.000 A 
ATOM      9  N   UNL     1       1.568   6.015  19.972  0.00  0.00    +0.000 NA
ATOM     10  C   UNL     1       2.110   4.818  20.228  0.00  0.00    +0.000 A 
ATOM     11  C   UNL     1       1.253   3.826  20.683  0.00  0.00    +0.000 A 
ATOM     12  C   UNL     1       1.690   2.529  20.945  0.00  0.00    +0.000 A 
ATOM     13  C   UNL     1       3.031   2.222  20.800  0.00  0.00    +0.000 A 
ATOM     14  C   UNL     1       3.915   3.209  20.367  0.00  0.00    +0.000 A 
ATOM     15  C   UNL     1       3.482   4.514  20.010  0.00  0.00    +0.000 A 
ENDBRANCH   5   6
BRANCH   1  16
ATOM     16  C   UNL     1       5.331   4.012  16.756  0.00  0.00    +0.000 C 
BRANCH  16  17
ATOM     17  C   UNL     1       5.086   4.943  15.568  0.00  0.00    +0.000 C 
BRANCH  17  24
ATOM     18  C   UNL     1       5.700   2.371  11.476  0.00  0.00    +0.000 C 
ATOM     19  C   UNL     1       6.230   3.430  12.396  0.00  0.00    +0.000 A 
ATOM     20  C   UNL     1       7.302   4.167  12.068  0.00  0.00    +0.000 A 
ATOM     21  C   UNL     1       7.726   5.230  12.985  0.00  0.00    +0.000 A 
ATOM     22  O   UNL     1       8.655   5.980  12.723  0.00  0.00    +0.000 OA
ATOM     23  N   UNL     1       6.979   5.339  14.118  0.00  0.00    +0.000 N 
ATOM     24  C   UNL     1       5.870   4.574  14.340  0.00  0.00    +0.000 A 
ATOM     25  N   UNL     1       5.504   3.613  13.552  0.00  0.00    +0.000 NA
ATOM     26  H   UNL     1       7.236   6.098  14.734  0.00  0.00    +0.000 HD
ENDBRANCH  17  24
ENDBRANCH  16  17
ENDBRANCH   1  16
TORSDOF 4
ENDMDL
MODEL 9
REMARK VINA RESULT:      -7.7      3.165      7.227
REMARK  Name = 
REMARK  5 active torsions:
REMARK  status: ('A' for Active; 'I' for Inactive)
REMARK    1  A    between atoms: C_1  and  C_2
REMARK    2  A    between atoms: C_7  and  C_8
REMARK    3  A    between atoms: C_8  and  C_9
REMARK    4  A    between atoms: C_9  and  N_10
REMARK    5  A    between atoms: C_14  and  C_15
REMARK                            x       y       z     vdW  Elec       q    Type
REMARK                         _______ _______ _______ _____ _____    ______ ____
ROOT
ATOM      1  N   UNL     1       3.165   4.433  19.494  0.00  0.00    +0.000 N 
ATOM      2  C   UNL     1       2.607   3.452  20.281  0.00  0.00    +0.000 A 
ATOM      3  C   UNL     1       3.553   2.476  20.399  0.00  0.00    +0.000 A 
ATOM      4  N   UNL     1       4.701   2.872  19.794  0.00  0.00    +0.000 NA
ATOM      5  C   UNL     1       4.485   4.059  19.243  0.00  0.00    +0.000 A 
ENDROOT
BRANCH   5   6
ATOM      6  C   UNL     1       5.564   4.821  18.551  0.00  0.00    +0.000 A 
ATOM      7  C   UNL     1       6.544   5.487  19.289  0.00  0.00    +0.000 A 
ATOM      8  C   UNL     1       7.606   6.078  18.638  0.00  0.00    +0.000 A 
ATOM      9  N   UNL     1       7.792   6.024  17.311  0.00  0.00    +0.000 NA
ATOM     10  C   UNL     1       6.895   5.349  16.581  0.00  0.00    +0.000 A 
ATOM     11  C   UNL     1       7.168   5.204  15.228  0.00  0.00    +0.000 A 
ATOM     12  C   UNL     1       6.333   4.489  14.374  0.00  0.00    +0.000 A 
ATOM     13  C   UNL     1       5.160   3.945  14.868  0.00  0.00    +0.000 A 
ATOM     14  C   UNL     1       4.852   4.099  16.219  0.00  0.00    +0.000 A 
ATOM     15  C   UNL     1       5.729   4.748  17.130  0.00  0.00    +0.000 A 
ENDBRANCH   5   6
BRANCH   1  16
ATOM     16  C   UNL     1       2.453   5.608  19.003  0.00  0.00    +0.000 C 
BRANCH  16  17
ATOM     17  C   UNL     1       2.967   6.973  19.461  0.00  0.00    +0.000 C 
BRANCH  17  24
ATOM     18  C   UNL     1      -0.241   8.898  22.582  0.00  0.00    +0.000 C 
ATOM     19  C   UNL     1       0.358   8.923  21.206  0.00  0.00    +0.000 A 
ATOM     20  C   UNL     1       0.055   9.893  20.331  0.00  0.00    +0.000 A 
ATOM     21  C   UNL     1       0.727   9.891  19.028  0.00  0.00    +0.000 A 
ATOM     22  O   UNL     1       0.547  10.777  18.205  0.00  0.00    +0.000 OA
ATOM     23  N   UNL     1       1.592   8.859  18.831  0.00  0.00    +0.000 N 
ATOM     24  C   UNL     1       1.874   7.946  19.806  0.00  0.00    +0.000 A 
ATOM     25  N   UNL     1       1.265   7.919  20.949  0.00  0.00    +0.000 NA
ATOM     26  H   UNL     1       2.093   8.875  17.953  0.00  0.00    +0.000 HD
ENDBRANCH  17  24
ENDBRANCH  16  17
ENDBRANCH   1  16
TORSDOF 4
ENDMDL
