MODEL 1
REMARK VINA RESULT:      -7.2      0.000      0.000
REMARK  Name = 
REMARK  8 active torsions:
REMARK  status: ('A' for Active; 'I' for Inactive)
REMARK    1  A    between atoms: C_4  and  C_5
REMARK    2  A    between atoms: C_5  and  C_6
REMARK    3  A    between atoms: C_11  and  O_12
REMARK    4  A    between atoms: O_12  and  C_13
REMARK    5  A    between atoms: C_13  and  C_14
REMARK    6  A    between atoms: C_14  and  C_15
REMARK    7  A    between atoms: C_15  and  C_16
REMARK    8  A    between atoms: C_16  and  N_17
REMARK                            x       y       z     vdW  Elec       q    Type
REMARK                         _______ _______ _______ _____ _____    ______ ____
ROOT
ATOM      1  C   UNL     1       3.437   4.021  17.848  0.00  0.00    +0.000 A 
ATOM      2  C   UNL     1       3.667   2.629  17.838  0.00  0.00    +0.000 A 
ATOM      3  C   UNL     1       2.951   1.772  18.668  0.00  0.00    +0.000 A 
ATOM      4  C   UNL     1       2.007   2.286  19.549  0.00  0.00    +0.000 A 
ATOM      5  C   UNL     1       1.758   3.656  19.579  0.00  0.00    +0.000 A 
ATOM      6  C   UNL     1       2.433   4.548  18.729  0.00  0.00    +0.000 A 
ENDROOT
BRANCH   1   7
ATOM      7  C   UNL     1       4.273   4.839  16.886  0.00  0.00    +0.000 C 
BRANCH   7  11
ATOM      8  C   UNL     1       7.839   6.568  18.630  0.00  0.00    +0.000 A 
ATOM      9  C   UNL     1       7.164   5.562  19.320  0.00  0.00    +0.000 A 
ATOM     10  C   UNL     1       6.013   4.988  18.779  0.00  0.00    +0.000 A 
ATOM     11  C   UNL     1       5.524   5.418  17.523  0.00  0.00    +0.000 A 
ATOM     12  C   UNL     1       6.213   6.433  16.836  0.00  0.00    +0.000 A 
ATOM     13  C   UNL     1       7.365   7.004  17.388  0.00  0.00    +0.000 A 
ENDBRANCH   7  11
ENDBRANCH   1   7
BRANCH   6  14
ATOM     14  O   UNL     1       2.017   5.844  18.837  0.00  0.00    +0.000 OA
BRANCH  14  15
ATOM     15  C   UNL     1       2.623   7.009  19.275  0.00  0.00    +0.000 C 
BRANCH  15  16
ATOM     16  C   UNL     1       2.824   7.944  18.074  0.00  0.00    +0.000 C 
BRANCH  16  17
ATOM     17  C   UNL     1       1.573   8.792  17.821  0.00  0.00    +0.000 C 
BRANCH  17  18
ATOM     18  C   UNL     1       1.728  10.262  18.256  0.00  0.00    +0.000 C 
BRANCH  18  19
ATOM     19  N   UNL     1       0.493  10.720  18.935  0.00  0.00    +0.000 NA
ATOM     20  C   UNL     1       0.453  12.152  19.313  0.00  0.00    +0.000 C 
ATOM     21  C   UNL     1       1.142  12.411  20.662  0.00  0.00    +0.000 C 
ATOM     22  O   UNL     1       0.567  11.610  21.675  0.00  0.00    +0.000 OA
ATOM     23  C   UNL     1       0.797  10.250  21.367  0.00  0.00    +0.000 C 
ATOM     24  C   UNL     1       0.073   9.866  20.067  0.00  0.00    +0.000 C 
ENDBRANCH  18  19
ENDBRANCH  17  18
ENDBRANCH  16  17
ENDBRANCH  15  16
ENDBRANCH  14  15
ENDBRANCH   6  14
TORSDOF 8
ENDMDL
MODEL 2
REMARK VINA RESULT:      -7.1      4.738      7.231
REMARK  Name = 
REMARK  8 active torsions:
REMARK  status: ('A' for Active; 'I' for Inactive)
REMARK    1  A    between atoms: C_4  and  C_5
REMARK    2  A    between atoms: C_5  and  C_6
REMARK    3  A    between atoms: C_11  and  O_12
REMARK    4  A    between atoms: O_12  and  C_13
REMARK    5  A    between atoms: C_13  and  C_14
REMARK    6  A    between atoms: C_14  and  C_15
REMARK    7  A    between atoms: C_15  and  C_16
REMARK    8  A    between atoms: C_16  and  N_17
REMARK                            x       y       z     vdW  Elec       q    Type
REMARK                         _______ _______ _______ _____ _____    ______ ____
ROOT
ATOM      1  C   UNL     1       4.955   5.421  16.669  0.00  0.00    +0.000 A 
ATOM      2  C   UNL     1       4.780   4.283  15.853  0.00  0.00    +0.000 A 
ATOM      3  C   UNL     1       5.805   3.814  15.038  0.00  0.00    +0.000 A 
ATOM      4  C   UNL     1       7.021   4.483  14.996  0.00  0.00    +0.000 A 
ATOM      5  C   UNL     1       7.224   5.609  15.792  0.00  0.00    +0.000 A 
ATOM      6  C   UNL     1       6.226   6.090  16.656  0.00  0.00    +0.000 A 
ENDROOT
BRANCH   1   7
ATOM      7  C   UNL     1       3.767   5.819  17.519  0.00  0.00    +0.000 C 
BRANCH   7  11
ATOM      8  C   UNL     1       1.809   2.465  19.432  0.00  0.00    +0.000 A 
ATOM      9  C   UNL     1       3.117   2.783  19.792  0.00  0.00    +0.000 A 
ATOM     10  C   UNL     1       3.769   3.860  19.191  0.00  0.00    +0.000 A 
ATOM     11  C   UNL     1       3.107   4.641  18.215  0.00  0.00    +0.000 A 
ATOM     12  C   UNL     1       1.788   4.311  17.860  0.00  0.00    +0.000 A 
ATOM     13  C   UNL     1       1.143   3.227  18.466  0.00  0.00    +0.000 A 
ENDBRANCH   7  11
ENDBRANCH   1   7
BRANCH   6  14
ATOM     14  O   UNL     1       6.613   7.155  17.416  0.00  0.00    +0.000 OA
BRANCH  14  15
ATOM     15  C   UNL     1       7.803   7.511  18.028  0.00  0.00    +0.000 C 
BRANCH  15  16
ATOM     16  C   UNL     1       8.029   9.017  17.833  0.00  0.00    +0.000 C 
BRANCH  16  17
ATOM     17  C   UNL     1       8.988   9.571  18.892  0.00  0.00    +0.000 C 
BRANCH  17  18
ATOM     18  C   UNL     1       9.377  11.045  18.659  0.00  0.00    +0.000 C 
BRANCH  18  19
ATOM     19  N   UNL     1      10.742  11.294  19.179  0.00  0.00    +0.000 NA
ATOM     20  C   UNL     1      10.826  12.078  20.434  0.00  0.00    +0.000 C 
ATOM     21  C   UNL     1      10.783  13.592  20.172  0.00  0.00    +0.000 C 
ATOM     22  O   UNL     1      11.810  13.969  19.277  0.00  0.00    +0.000 OA
ATOM     23  C   UNL     1      11.581  13.345  18.030  0.00  0.00    +0.000 C 
ATOM     24  C   UNL     1      11.687  11.818  18.168  0.00  0.00    +0.000 C 
ENDBRANCH  18  19
ENDBRANCH  17  18
ENDBRANCH  16  17
ENDBRANCH  15  16
ENDBRANCH  14  15
ENDBRANCH   6  14
TORSDOF 8
ENDMDL
MODEL 3
REMARK VINA RESULT:      -7.0      1.475      4.003
REMARK  Name = 
REMARK  8 active torsions:
REMARK  status: ('A' for Active; 'I' for Inactive)
REMARK    1  A    between atoms: C_4  and  C_5
REMARK    2  A    between atoms: C_5  and  C_6
REMARK    3  A    between atoms: C_11  and  O_12
REMARK    4  A    between atoms: O_12  and  C_13
REMARK    5  A    between atoms: C_13  and  C_14
REMARK    6  A    between atoms: C_14  and  C_15
REMARK    7  A    between atoms: C_15  and  C_16
REMARK    8  A    between atoms: C_16  and  N_17
REMARK                            x       y       z     vdW  Elec       q    Type
REMARK                         _______ _______ _______ _____ _____    ______ ____
ROOT
ATOM      1  C   UNL     1       4.135   4.655  17.113  0.00  0.00    +0.000 A 
ATOM      2  C   UNL     1       5.326   4.044  16.669  0.00  0.00    +0.000 A 
ATOM      3  C   UNL     1       6.494   4.780  16.492  0.00  0.00    +0.000 A 
ATOM      4  C   UNL     1       6.494   6.150  16.726  0.00  0.00    +0.000 A 
ATOM      5  C   UNL     1       5.332   6.780  17.166  0.00  0.00    +0.000 A 
ATOM      6  C   UNL     1       4.145   6.063  17.393  0.00  0.00    +0.000 A 
ENDROOT
BRANCH   1   7
ATOM      7  C   UNL     1       2.940   3.739  17.279  0.00  0.00    +0.000 C 
BRANCH   7  11
ATOM      8  C   UNL     1       1.725   3.153  21.393  0.00  0.00    +0.000 A 
ATOM      9  C   UNL     1       2.955   2.655  20.970  0.00  0.00    +0.000 A 
ATOM     10  C   UNL     1       3.371   2.832  19.650  0.00  0.00    +0.000 A 
ATOM     11  C   UNL     1       2.548   3.523  18.730  0.00  0.00    +0.000 A 
ATOM     12  C   UNL     1       1.309   4.022  19.166  0.00  0.00    +0.000 A 
ATOM     13  C   UNL     1       0.900   3.837  20.492  0.00  0.00    +0.000 A 
ENDBRANCH   7  11
ENDBRANCH   1   7
BRANCH   6  14
ATOM     14  O   UNL     1       3.124   6.820  17.891  0.00  0.00    +0.000 OA
BRANCH  14  15
ATOM     15  C   UNL     1       2.763   8.149  17.751  0.00  0.00    +0.000 C 
BRANCH  15  16
ATOM     16  C   UNL     1       1.868   8.546  18.934  0.00  0.00    +0.000 C 
BRANCH  16  17
ATOM     17  C   UNL     1       0.775   9.525  18.492  0.00  0.00    +0.000 C 
BRANCH  17  18
ATOM     18  C   UNL     1      -0.130  10.000  19.647  0.00  0.00    +0.000 C 
BRANCH  18  19
ATOM     19  N   UNL     1       0.703  10.423  20.798  0.00  0.00    +0.000 NA
ATOM     20  C   UNL     1       0.455   9.713  22.074  0.00  0.00    +0.000 C 
ATOM     21  C   UNL     1      -0.717  10.325  22.857  0.00  0.00    +0.000 C 
ATOM     22  O   UNL     1      -0.496  11.702  23.085  0.00  0.00    +0.000 OA
ATOM     23  C   UNL     1      -0.457  12.371  21.841  0.00  0.00    +0.000 C 
ATOM     24  C   UNL     1       0.741  11.886  21.010  0.00  0.00    +0.000 C 
ENDBRANCH  18  19
ENDBRANCH  17  18
ENDBRANCH  16  17
ENDBRANCH  15  16
ENDBRANCH  14  15
ENDBRANCH   6  14
TORSDOF 8
ENDMDL
MODEL 4
REMARK VINA RESULT:      -7.0      1.785      4.042
REMARK  Name = 
REMARK  8 active torsions:
REMARK  status: ('A' for Active; 'I' for Inactive)
REMARK    1  A    between atoms: C_4  and  C_5
REMARK    2  A    between atoms: C_5  and  C_6
REMARK    3  A    between atoms: C_11  and  O_12
REMARK    4  A    between atoms: O_12  and  C_13
REMARK    5  A    between atoms: C_13  and  C_14
REMARK    6  A    between atoms: C_14  and  C_15
REMARK    7  A    between atoms: C_15  and  C_16
REMARK    8  A    between atoms: C_16  and  N_17
REMARK                            x       y       z     vdW  Elec       q    Type
REMARK                         _______ _______ _______ _____ _____    ______ ____
ROOT
ATOM      1  C   UNL     1       4.941   4.856  17.675  0.00  0.00    +0.000 A 
ATOM      2  C   UNL     1       5.618   3.952  16.829  0.00  0.00    +0.000 A 
ATOM      3  C   UNL     1       5.943   4.293  15.520  0.00  0.00    +0.000 A 
ATOM      4  C   UNL     1       5.576   5.534  15.013  0.00  0.00    +0.000 A 
ATOM      5  C   UNL     1       4.909   6.447  15.826  0.00  0.00    +0.000 A 
ATOM      6  C   UNL     1       4.598   6.154  17.165  0.00  0.00    +0.000 A 
ENDROOT
BRANCH   1   7
ATOM      7  C   UNL     1       4.660   4.367  19.080  0.00  0.00    +0.000 C 
BRANCH   7  11
ATOM      8  C   UNL     1       0.529   3.275  19.779  0.00  0.00    +0.000 A 
ATOM      9  C   UNL     1       1.125   2.938  18.565  0.00  0.00    +0.000 A 
ATOM     10  C   UNL     1       2.455   3.278  18.316  0.00  0.00    +0.000 A 
ATOM     11  C   UNL     1       3.212   3.962  19.296  0.00  0.00    +0.000 A 
ATOM     12  C   UNL     1       2.602   4.297  20.516  0.00  0.00    +0.000 A 
ATOM     13  C   UNL     1       1.266   3.954  20.756  0.00  0.00    +0.000 A 
ENDBRANCH   7  11
ENDBRANCH   1   7
BRANCH   6  14
ATOM     14  O   UNL     1       4.009   7.184  17.838  0.00  0.00    +0.000 OA
BRANCH  14  15
ATOM     15  C   UNL     1       2.762   7.363  18.411  0.00  0.00    +0.000 C 
BRANCH  15  16
ATOM     16  C   UNL     1       2.056   8.530  17.706  0.00  0.00    +0.000 C 
BRANCH  16  17
ATOM     17  C   UNL     1       1.465   9.512  18.724  0.00  0.00    +0.000 C 
BRANCH  17  18
ATOM     18  C   UNL     1       1.291   8.908  20.132  0.00  0.00    +0.000 C 
BRANCH  18  19
ATOM     19  N   UNL     1      -0.064   9.217  20.649  0.00  0.00    +0.000 NA
ATOM     20  C   UNL     1      -0.472  10.640  20.588  0.00  0.00    +0.000 C 
ATOM     21  C   UNL     1       0.038  11.438  21.799  0.00  0.00    +0.000 C 
ATOM     22  O   UNL     1      -0.400  10.843  23.004  0.00  0.00    +0.000 OA
ATOM     23  C   UNL     1       0.170   9.554  23.110  0.00  0.00    +0.000 C 
ATOM     24  C   UNL     1      -0.346   8.646  21.983  0.00  0.00    +0.000 C 
ENDBRANCH  18  19
ENDBRANCH  17  18
ENDBRANCH  16  17
ENDBRANCH  15  16
ENDBRANCH  14  15
ENDBRANCH   6  14
TORSDOF 8
ENDMDL
MODEL 5
REMARK VINA RESULT:      -7.0      1.298      1.914
REMARK  Name = 
REMARK  8 active torsions:
REMARK  status: ('A' for Active; 'I' for Inactive)
REMARK    1  A    between atoms: C_4  and  C_5
REMARK    2  A    between atoms: C_5  and  C_6
REMARK    3  A    between atoms: C_11  and  O_12
REMARK    4  A    between atoms: O_12  and  C_13
REMARK    5  A    between atoms: C_13  and  C_14
REMARK    6  A    between atoms: C_14  and  C_15
REMARK    7  A    between atoms: C_15  and  C_16
REMARK    8  A    between atoms: C_16  and  N_17
REMARK                            x       y       z     vdW  Elec       q    Type
REMARK                         _______ _______ _______ _____ _____    ______ ____
ROOT
ATOM      1  C   UNL     1       3.341   4.831  18.878  0.00  0.00    +0.000 A 
ATOM      2  C   UNL     1       3.458   3.517  19.378  0.00  0.00    +0.000 A 
ATOM      3  C   UNL     1       2.756   3.108  20.507  0.00  0.00    +0.000 A 
ATOM      4  C   UNL     1       1.940   4.007  21.182  0.00  0.00    +0.000 A 
ATOM      5  C   UNL     1       1.803   5.311  20.711  0.00  0.00    +0.000 A 
ATOM      6  C   UNL     1       2.466   5.750  19.551  0.00  0.00    +0.000 A 
ENDROOT
BRANCH   1   7
ATOM      7  C   UNL     1       4.147   5.144  17.635  0.00  0.00    +0.000 C 
BRANCH   7  11
ATOM      8  C   UNL     1       8.029   6.883  18.443  0.00  0.00    +0.000 A 
ATOM      9  C   UNL     1       7.595   5.802  19.208  0.00  0.00    +0.000 A 
ATOM     10  C   UNL     1       6.349   5.223  18.967  0.00  0.00    +0.000 A 
ATOM     11  C   UNL     1       5.517   5.725  17.939  0.00  0.00    +0.000 A 
ATOM     12  C   UNL     1       5.963   6.815  17.173  0.00  0.00    +0.000 A 
ATOM     13  C   UNL     1       7.214   7.391  17.424  0.00  0.00    +0.000 A 
ENDBRANCH   7  11
ENDBRANCH   1   7
BRANCH   6  14
ATOM     14  O   UNL     1       2.166   7.031  19.190  0.00  0.00    +0.000 OA
BRANCH  14  15
ATOM     15  C   UNL     1       2.677   7.902  18.243  0.00  0.00    +0.000 C 
BRANCH  15  16
ATOM     16  C   UNL     1       1.535   8.783  17.714  0.00  0.00    +0.000 C 
BRANCH  16  17
ATOM     17  C   UNL     1       1.380  10.049  18.563  0.00  0.00    +0.000 C 
BRANCH  17  18
ATOM     18  C   UNL     1       0.354   9.903  19.705  0.00  0.00    +0.000 C 
BRANCH  18  19
ATOM     19  N   UNL     1       0.923  10.437  20.965  0.00  0.00    +0.000 NA
ATOM     20  C   UNL     1       1.036   9.473  22.085  0.00  0.00    +0.000 C 
ATOM     21  C   UNL     1      -0.277   9.351  22.874  0.00  0.00    +0.000 C 
ATOM     22  O   UNL     1      -0.693  10.617  23.344  0.00  0.00    +0.000 OA
ATOM     23  C   UNL     1      -0.974  11.446  22.234  0.00  0.00    +0.000 C 
ATOM     24  C   UNL     1       0.304  11.700  21.419  0.00  0.00    +0.000 C 
ENDBRANCH  18  19
ENDBRANCH  17  18
ENDBRANCH  16  17
ENDBRANCH  15  16
ENDBRANCH  14  15
ENDBRANCH   6  14
TORSDOF 8
ENDMDL
MODEL 6
REMARK VINA RESULT:      -7.0      1.208      1.703
REMARK  Name = 
REMARK  8 active torsions:
REMARK  status: ('A' for Active; 'I' for Inactive)
REMARK    1  A    between atoms: C_4  and  C_5
REMARK    2  A    between atoms: C_5  and  C_6
REMARK    3  A    between atoms: C_11  and  O_12
REMARK    4  A    between atoms: O_12  and  C_13
REMARK    5  A    between atoms: C_13  and  C_14
REMARK    6  A    between atoms: C_14  and  C_15
REMARK    7  A    between atoms: C_15  and  C_16
REMARK    8  A    between atoms: C_16  and  N_17
REMARK                            x       y       z     vdW  Elec       q    Type
REMARK                         _______ _______ _______ _____ _____    ______ ____
ROOT
ATOM      1  C   UNL     1       2.670   4.329  18.358  0.00  0.00    +0.000 A 
ATOM      2  C   UNL     1       2.109   3.035  18.371  0.00  0.00    +0.000 A 
ATOM      3  C   UNL     1       1.298   2.609  19.418  0.00  0.00    +0.000 A 
ATOM      4  C   UNL     1       1.049   3.454  20.492  0.00  0.00    +0.000 A 
ATOM      5  C   UNL     1       1.589   4.738  20.506  0.00  0.00    +0.000 A 
ATOM      6  C   UNL     1       2.381   5.217  19.448  0.00  0.00    +0.000 A 
ENDROOT
BRANCH   1   7
ATOM      7  C   UNL     1       3.521   4.672  17.154  0.00  0.00    +0.000 C 
BRANCH   7  11
ATOM      8  C   UNL     1       7.384   6.346  18.164  0.00  0.00    +0.000 A 
ATOM      9  C   UNL     1       7.005   5.126  18.722  0.00  0.00    +0.000 A 
ATOM     10  C   UNL     1       5.767   4.565  18.411  0.00  0.00    +0.000 A 
ATOM     11  C   UNL     1       4.886   5.227  17.523  0.00  0.00    +0.000 A 
ATOM     12  C   UNL     1       5.278   6.456  16.966  0.00  0.00    +0.000 A 
ATOM     13  C   UNL     1       6.523   7.012  17.285  0.00  0.00    +0.000 A 
ENDBRANCH   7  11
ENDBRANCH   1   7
BRANCH   6  14
ATOM     14  O   UNL     1       2.768   6.518  19.587  0.00  0.00    +0.000 OA
BRANCH  14  15
ATOM     15  C   UNL     1       2.108   7.730  19.475  0.00  0.00    +0.000 C 
BRANCH  15  16
ATOM     16  C   UNL     1       2.106   8.158  18.001  0.00  0.00    +0.000 C 
BRANCH  16  17
ATOM     17  C   UNL     1       1.859   9.665  17.866  0.00  0.00    +0.000 C 
BRANCH  17  18
ATOM     18  C   UNL     1       0.634  10.160  18.659  0.00  0.00    +0.000 C 
BRANCH  18  19
ATOM     19  N   UNL     1       0.992  11.370  19.437  0.00  0.00    +0.000 NA
ATOM     20  C   UNL     1       0.261  11.562  20.711  0.00  0.00    +0.000 C 
ATOM     21  C   UNL     1      -1.096  12.253  20.498  0.00  0.00    +0.000 C 
ATOM     22  O   UNL     1      -0.925  13.485  19.828  0.00  0.00    +0.000 OA
ATOM     23  C   UNL     1      -0.401  13.236  18.539  0.00  0.00    +0.000 C 
ATOM     24  C   UNL     1       1.002  12.618  18.643  0.00  0.00    +0.000 C 
ENDBRANCH  18  19
ENDBRANCH  17  18
ENDBRANCH  16  17
ENDBRANCH  15  16
ENDBRANCH  14  15
ENDBRANCH   6  14
TORSDOF 8
ENDMDL
MODEL 7
REMARK VINA RESULT:      -7.0      4.302      6.840
REMARK  Name = 
REMARK  8 active torsions:
REMARK  status: ('A' for Active; 'I' for Inactive)
REMARK    1  A    between atoms: C_4  and  C_5
REMARK    2  A    between atoms: C_5  and  C_6
REMARK    3  A    between atoms: C_11  and  O_12
REMARK    4  A    between atoms: O_12  and  C_13
REMARK    5  A    between atoms: C_13  and  C_14
REMARK    6  A    between atoms: C_14  and  C_15
REMARK    7  A    between atoms: C_15  and  C_16
REMARK    8  A    between atoms: C_16  and  N_17
REMARK                            x       y       z     vdW  Elec       q    Type
REMARK                         _______ _______ _______ _____ _____    ______ ____
ROOT
ATOM      1  C   UNL     1       5.263   5.078  17.851  0.00  0.00    +0.000 A 
ATOM      2  C   UNL     1       4.349   4.445  16.982  0.00  0.00    +0.000 A 
ATOM      3  C   UNL     1       4.763   3.897  15.772  0.00  0.00    +0.000 A 
ATOM      4  C   UNL     1       6.094   3.990  15.387  0.00  0.00    +0.000 A 
ATOM      5  C   UNL     1       7.020   4.607  16.225  0.00  0.00    +0.000 A 
ATOM      6  C   UNL     1       6.646   5.138  17.472  0.00  0.00    +0.000 A 
ENDROOT
BRANCH   1   7
ATOM      7  C   UNL     1       4.687   5.620  19.142  0.00  0.00    +0.000 C 
BRANCH   7  11
ATOM      8  C   UNL     1       1.473   3.172  20.700  0.00  0.00    +0.000 A 
ATOM      9  C   UNL     1       1.231   4.517  20.426  0.00  0.00    +0.000 A 
ATOM     10  C   UNL     1       2.250   5.326  19.922  0.00  0.00    +0.000 A 
ATOM     11  C   UNL     1       3.535   4.788  19.680  0.00  0.00    +0.000 A 
ATOM     12  C   UNL     1       3.768   3.430  19.960  0.00  0.00    +0.000 A 
ATOM     13  C   UNL     1       2.741   2.627  20.468  0.00  0.00    +0.000 A 
ENDBRANCH   7  11
ENDBRANCH   1   7
BRANCH   6  14
ATOM     14  O   UNL     1       7.687   5.642  18.196  0.00  0.00    +0.000 OA
BRANCH  14  15
ATOM     15  C   UNL     1       8.008   6.907  18.658  0.00  0.00    +0.000 C 
BRANCH  15  16
ATOM     16  C   UNL     1       7.972   7.888  17.477  0.00  0.00    +0.000 C 
BRANCH  16  17
ATOM     17  C   UNL     1       7.911   9.339  17.968  0.00  0.00    +0.000 C 
BRANCH  17  18
ATOM     18  C   UNL     1       9.107   9.738  18.856  0.00  0.00    +0.000 C 
BRANCH  18  19
ATOM     19  N   UNL     1       9.171  11.213  18.981  0.00  0.00    +0.000 NA
ATOM     20  C   UNL     1       9.754  11.938  17.827  0.00  0.00    +0.000 C 
ATOM     21  C   UNL     1      11.288  11.989  17.894  0.00  0.00    +0.000 C 
ATOM     22  O   UNL     1      11.712  12.566  19.113  0.00  0.00    +0.000 OA
ATOM     23  C   UNL     1      11.297  11.737  20.180  0.00  0.00    +0.000 C 
ATOM     24  C   UNL     1       9.763  11.686  20.251  0.00  0.00    +0.000 C 
ENDBRANCH  18  19
ENDBRANCH  17  18
ENDBRANCH  16  17
ENDBRANCH  15  16
ENDBRANCH  14  15
ENDBRANCH   6  14
TORSDOF 8
ENDMDL
MODEL 8
REMARK VINA RESULT:      -6.9      1.041      1.256
REMARK  Name = 
REMARK  8 active torsions:
REMARK  status: ('A' for Active; 'I' for Inactive)
REMARK    1  A    between atoms: C_4  and  C_5
REMARK    2  A    between atoms: C_5  and  C_6
REMARK    3  A    between atoms: C_11  and  O_12
REMARK    4  A    between atoms: O_12  and  C_13
REMARK    5  A    between atoms: C_13  and  C_14
REMARK    6  A    between atoms: C_14  and  C_15
REMARK    7  A    between atoms: C_15  and  C_16
REMARK    8  A    between atoms: C_16  and  N_17
REMARK                            x       y       z     vdW  Elec       q    Type
REMARK                         _______ _______ _______ _____ _____    ______ ____
ROOT
ATOM      1  C   UNL     1       2.928   4.178  18.611  0.00  0.00    +0.000 A 
ATOM      2  C   UNL     1       2.483   2.856  18.818  0.00  0.00    +0.000 A 
ATOM      3  C   UNL     1       1.762   2.505  19.955  0.00  0.00    +0.000 A 
ATOM      4  C   UNL     1       1.489   3.460  20.927  0.00  0.00    +0.000 A 
ATOM      5  C   UNL     1       1.915   4.774  20.749  0.00  0.00    +0.000 A 
ATOM      6  C   UNL     1       2.612   5.174  19.596  0.00  0.00    +0.000 A 
ENDROOT
BRANCH   1   7
ATOM      7  C   UNL     1       3.689   4.430  17.327  0.00  0.00    +0.000 C 
BRANCH   7  11
ATOM      8  C   UNL     1       7.449   6.495  17.918  0.00  0.00    +0.000 A 
ATOM      9  C   UNL     1       7.271   5.232  18.480  0.00  0.00    +0.000 A 
ATOM     10  C   UNL     1       6.070   4.546  18.303  0.00  0.00    +0.000 A 
ATOM     11  C   UNL     1       5.023   5.123  17.547  0.00  0.00    +0.000 A 
ATOM     12  C   UNL     1       5.212   6.397  16.985  0.00  0.00    +0.000 A 
ATOM     13  C   UNL     1       6.420   7.079  17.170  0.00  0.00    +0.000 A 
ENDBRANCH   7  11
ENDBRANCH   1   7
BRANCH   6  14
ATOM     14  O   UNL     1       2.890   6.510  19.548  0.00  0.00    +0.000 OA
BRANCH  14  15
ATOM     15  C   UNL     1       2.105   7.650  19.546  0.00  0.00    +0.000 C 
BRANCH  15  16
ATOM     16  C   UNL     1       2.220   8.328  18.173  0.00  0.00    +0.000 C 
BRANCH  16  17
ATOM     17  C   UNL     1       1.195   9.459  18.030  0.00  0.00    +0.000 C 
BRANCH  17  18
ATOM     18  C   UNL     1       0.534   9.862  19.363  0.00  0.00    +0.000 C 
BRANCH  18  19
ATOM     19  N   UNL     1       0.107  11.280  19.306  0.00  0.00    +0.000 NA
ATOM     20  C   UNL     1       1.197  12.283  19.262  0.00  0.00    +0.000 C 
ATOM     21  C   UNL     1       1.720  12.627  20.666  0.00  0.00    +0.000 C 
ATOM     22  O   UNL     1       0.664  13.070  21.494  0.00  0.00    +0.000 OA
ATOM     23  C   UNL     1      -0.259  12.013  21.663  0.00  0.00    +0.000 C 
ATOM     24  C   UNL     1      -0.906  11.648  20.318  0.00  0.00    +0.000 C 
ENDBRANCH  18  19
ENDBRANCH  17  18
ENDBRANCH  16  17
ENDBRANCH  15  16
ENDBRANCH  14  15
ENDBRANCH   6  14
TORSDOF 8
ENDMDL
MODEL 9
REMARK VINA RESULT:      -6.9      1.717      2.321
REMARK  Name = 
REMARK  8 active torsions:
REMARK  status: ('A' for Active; 'I' for Inactive)
REMARK    1  A    between atoms: C_4  and  C_5
REMARK    2  A    between atoms: C_5  and  C_6
REMARK    3  A    between atoms: C_11  and  O_12
REMARK    4  A    between atoms: O_12  and  C_13
REMARK    5  A    between atoms: C_13  and  C_14
REMARK    6  A    between atoms: C_14  and  C_15
REMARK    7  A    between atoms: C_15  and  C_16
REMARK    8  A    between atoms: C_16  and  N_17
REMARK                            x       y       z     vdW  Elec       q    Type
REMARK                         _______ _______ _______ _____ _____    ______ ____
ROOT
ATOM      1  C   UNL     1       2.443   4.798  18.427  0.00  0.00    +0.000 A 
ATOM      2  C   UNL     1       2.030   3.526  17.980  0.00  0.00    +0.000 A 
ATOM      3  C   UNL     1       1.257   2.694  18.784  0.00  0.00    +0.000 A 
ATOM      4  C   UNL     1       0.899   3.100  20.063  0.00  0.00    +0.000 A 
ATOM      5  C   UNL     1       1.292   4.352  20.531  0.00  0.00    +0.000 A 
ATOM      6  C   UNL     1       2.040   5.236  19.734  0.00  0.00    +0.000 A 
ENDROOT
BRANCH   1   7
ATOM      7  C   UNL     1       3.268   5.610  17.450  0.00  0.00    +0.000 C 
BRANCH   7  11
ATOM      8  C   UNL     1       7.493   4.702  17.720  0.00  0.00    +0.000 A 
ATOM      9  C   UNL     1       6.836   4.527  16.503  0.00  0.00    +0.000 A 
ATOM     10  C   UNL     1       5.476   4.813  16.390  0.00  0.00    +0.000 A 
ATOM     11  C   UNL     1       4.752   5.290  17.508  0.00  0.00    +0.000 A 
ATOM     12  C   UNL     1       5.423   5.463  18.730  0.00  0.00    +0.000 A 
ATOM     13  C   UNL     1       6.788   5.170  18.835  0.00  0.00    +0.000 A 
ENDBRANCH   7  11
ENDBRANCH   1   7
BRANCH   6  14
ATOM     14  O   UNL     1       2.277   6.446  20.317  0.00  0.00    +0.000 OA
BRANCH  14  15
ATOM     15  C   UNL     1       1.827   7.732  20.069  0.00  0.00    +0.000 C 
BRANCH  15  16
ATOM     16  C   UNL     1       1.198   8.292  21.353  0.00  0.00    +0.000 C 
BRANCH  16  17
ATOM     17  C   UNL     1       0.084   9.294  21.028  0.00  0.00    +0.000 C 
BRANCH  17  18
ATOM     18  C   UNL     1       0.602  10.718  20.741  0.00  0.00    +0.000 C 
BRANCH  18  19
ATOM     19  N   UNL     1       0.723  10.925  19.279  0.00  0.00    +0.000 NA
ATOM     20  C   UNL     1       1.172  12.271  18.850  0.00  0.00    +0.000 C 
ATOM     21  C   UNL     1       0.006  13.269  18.770  0.00  0.00    +0.000 C 
ATOM     22  O   UNL     1      -1.006  12.782  17.912  0.00  0.00    +0.000 OA
ATOM     23  C   UNL     1      -1.539  11.594  18.462  0.00  0.00    +0.000 C 
ATOM     24  C   UNL     1      -0.464  10.497  18.507  0.00  0.00    +0.000 C 
ENDBRANCH  18  19
ENDBRANCH  17  18
ENDBRANCH  16  17
ENDBRANCH  15  16
ENDBRANCH  14  15
ENDBRANCH   6  14
TORSDOF 8
ENDMDL
