MODEL 1
REMARK VINA RESULT:      -7.7      0.000      0.000
REMARK  Name = 
REMARK  9 active torsions:
REMARK  status: ('A' for Active; 'I' for Inactive)
REMARK    1  A    between atoms: C_1  and  O_2
REMARK    2  A    between atoms: O_2  and  C_3
REMARK    3  A    between atoms: C_6  and  C_7
REMARK    4  A    between atoms: C_8  and  C_9
REMARK    5  A    between atoms: C_8  and  C_10
REMARK    6  A    between atoms: N_12  and  C_13
REMARK    7  A    between atoms: C_14  and  O_15
REMARK    8  A    between atoms: C_16  and  O_17
REMARK    9  A    between atoms: C_23  and  O_24
REMARK                            x       y       z     vdW  Elec       q    Type
REMARK                         _______ _______ _______ _____ _____    ______ ____
ROOT
ATOM      1  C   UNL     1       2.372   7.451  18.836  0.00  0.00    +0.000 C 
ATOM      2  O   UNL     1       3.259   7.480  17.995  0.00  0.00    +0.000 OA
ATOM      3  N   UNL     1       2.037   6.286  19.483  0.00  0.00    +0.000 N 
ATOM      4  H   UNL     1       1.231   6.283  20.095  0.00  0.00    +0.000 HD
ENDROOT
BRANCH   3   5
ATOM      5  C   UNL     1       2.655   4.960  19.235  0.00  0.00    +0.000 C 
ATOM      6  C   UNL     1       2.523   4.458  17.766  0.00  0.00    +0.000 C 
ATOM      7  C   UNL     1       3.326   3.162  17.580  0.00  0.00    +0.000 C 
ATOM      8  C   UNL     1       2.828   2.076  18.569  0.00  0.00    +0.000 C 
ATOM      9  O   UNL     1       3.731   0.953  18.562  0.00  0.00    +0.000 OA
ATOM     10  C   UNL     1       4.629   1.189  19.651  0.00  0.00    +0.000 C 
ATOM     11  O   UNL     1       4.283   2.442  20.280  0.00  0.00    +0.000 OA
ATOM     12  C   UNL     1       2.873   2.522  20.017  0.00  0.00    +0.000 C 
ATOM     13  C   UNL     1       2.245   3.892  20.282  0.00  0.00    +0.000 C 
BRANCH   6  14
ATOM     14  O   UNL     1       1.185   4.176  17.370  0.00  0.00    +0.000 OA
ATOM     15  H   UNL     1       0.580   4.476  18.081  0.00  0.00    +0.000 HD
ENDBRANCH   6  14
BRANCH   7  16
ATOM     16  O   UNL     1       4.725   3.468  17.699  0.00  0.00    +0.000 OA
ATOM     17  H   UNL     1       5.236   2.684  17.427  0.00  0.00    +0.000 HD
ENDBRANCH   7  16
BRANCH  13  18
ATOM     18  O   UNL     1       0.831   3.692  20.380  0.00  0.00    +0.000 OA
ATOM     19  H   UNL     1       0.460   3.545  19.484  0.00  0.00    +0.000 HD
ENDBRANCH  13  18
ENDBRANCH   3   5
BRANCH   1  21
ATOM     20  C   UNL     1       1.428   8.794  20.581  0.00  0.00    +0.000 C 
ATOM     21  C   UNL     1       1.624   8.674  19.253  0.00  0.00    +0.000 C 
ATOM     22  C   UNL     1       1.066   9.562  18.180  0.00  0.00    +0.000 C 
BRANCH  20  26
ATOM     23  C   UNL     1      -0.963  11.665  22.705  0.00  0.00    +0.000 A 
ATOM     24  C   UNL     1      -0.955  10.320  23.073  0.00  0.00    +0.000 A 
ATOM     25  C   UNL     1      -0.155   9.400  22.386  0.00  0.00    +0.000 A 
ATOM     26  C   UNL     1       0.644   9.810  21.311  0.00  0.00    +0.000 A 
ATOM     27  C   UNL     1       0.679  11.173  20.996  0.00  0.00    +0.000 A 
ATOM     28  C   UNL     1      -0.139  12.087  21.665  0.00  0.00    +0.000 A 
BRANCH  23  30
ATOM     29  C   UNL     1      -1.488  13.844  23.465  0.00  0.00    +0.000 C 
ATOM     30  O   UNL     1      -1.815  12.460  23.417  0.00  0.00    +0.000 OA
ENDBRANCH  23  30
ENDBRANCH  20  26
ENDBRANCH   1  21
TORSDOF 7
ENDMDL
MODEL 2
REMARK VINA RESULT:      -7.5      0.339      1.000
REMARK  Name = 
REMARK  9 active torsions:
REMARK  status: ('A' for Active; 'I' for Inactive)
REMARK    1  A    between atoms: C_1  and  O_2
REMARK    2  A    between atoms: O_2  and  C_3
REMARK    3  A    between atoms: C_6  and  C_7
REMARK    4  A    between atoms: C_8  and  C_9
REMARK    5  A    between atoms: C_8  and  C_10
REMARK    6  A    between atoms: N_12  and  C_13
REMARK    7  A    between atoms: C_14  and  O_15
REMARK    8  A    between atoms: C_16  and  O_17
REMARK    9  A    between atoms: C_23  and  O_24
REMARK                            x       y       z     vdW  Elec       q    Type
REMARK                         _______ _______ _______ _____ _____    ______ ____
ROOT
ATOM      1  C   UNL     1       2.354   7.495  18.885  0.00  0.00    +0.000 C 
ATOM      2  O   UNL     1       3.297   7.550  18.108  0.00  0.00    +0.000 OA
ATOM      3  N   UNL     1       1.979   6.311  19.472  0.00  0.00    +0.000 N 
ATOM      4  H   UNL     1       1.134   6.289  20.028  0.00  0.00    +0.000 HD
ENDROOT
BRANCH   3   5
ATOM      5  C   UNL     1       2.616   4.993  19.227  0.00  0.00    +0.000 C 
ATOM      6  C   UNL     1       2.481   4.482  17.761  0.00  0.00    +0.000 C 
ATOM      7  C   UNL     1       3.302   3.197  17.576  0.00  0.00    +0.000 C 
ATOM      8  C   UNL     1       2.829   2.108  18.575  0.00  0.00    +0.000 C 
ATOM      9  O   UNL     1       3.748   0.999  18.568  0.00  0.00    +0.000 OA
ATOM     10  C   UNL     1       4.651   1.256  19.649  0.00  0.00    +0.000 C 
ATOM     11  O   UNL     1       4.290   2.507  20.273  0.00  0.00    +0.000 OA
ATOM     12  C   UNL     1       2.877   2.563  20.021  0.00  0.00    +0.000 C 
ATOM     13  C   UNL     1       2.230   3.925  20.283  0.00  0.00    +0.000 C 
BRANCH   6  14
ATOM     14  O   UNL     1       1.144   4.177  17.377  0.00  0.00    +0.000 OA
ATOM     15  H   UNL     1       0.539   4.491  18.081  0.00  0.00    +0.000 HD
ENDBRANCH   6  14
BRANCH   7  16
ATOM     16  O   UNL     1       4.697   3.525  17.684  0.00  0.00    +0.000 OA
ATOM     17  H   UNL     1       4.798   4.486  17.554  0.00  0.00    +0.000 HD
ENDBRANCH   7  16
BRANCH  13  18
ATOM     18  O   UNL     1       0.820   3.703  20.392  0.00  0.00    +0.000 OA
ATOM     19  H   UNL     1       0.599   2.823  20.024  0.00  0.00    +0.000 HD
ENDBRANCH  13  18
ENDBRANCH   3   5
BRANCH   1  21
ATOM     20  C   UNL     1       1.363   8.827  20.612  0.00  0.00    +0.000 C 
ATOM     21  C   UNL     1       1.577   8.705  19.287  0.00  0.00    +0.000 C 
ATOM     22  C   UNL     1       1.014   9.577  18.204  0.00  0.00    +0.000 C 
BRANCH  20  26
ATOM     23  C   UNL     1      -0.890  11.832  22.702  0.00  0.00    +0.000 A 
ATOM     24  C   UNL     1      -0.061  12.166  21.632  0.00  0.00    +0.000 A 
ATOM     25  C   UNL     1       0.650  11.175  20.947  0.00  0.00    +0.000 A 
ATOM     26  C   UNL     1       0.550   9.830  21.328  0.00  0.00    +0.000 A 
ATOM     27  C   UNL     1      -0.337   9.500  22.359  0.00  0.00    +0.000 A 
ATOM     28  C   UNL     1      -1.027  10.492  23.060  0.00  0.00    +0.000 A 
BRANCH  23  30
ATOM     29  C   UNL     1      -2.805  13.213  22.868  0.00  0.00    +0.000 C 
ATOM     30  O   UNL     1      -1.497  12.886  23.322  0.00  0.00    +0.000 OA
ENDBRANCH  23  30
ENDBRANCH  20  26
ENDBRANCH   1  21
TORSDOF 7
ENDMDL
MODEL 3
REMARK VINA RESULT:      -7.4      7.102      8.382
REMARK  Name = 
REMARK  9 active torsions:
REMARK  status: ('A' for Active; 'I' for Inactive)
REMARK    1  A    between atoms: C_1  and  O_2
REMARK    2  A    between atoms: O_2  and  C_3
REMARK    3  A    between atoms: C_6  and  C_7
REMARK    4  A    between atoms: C_8  and  C_9
REMARK    5  A    between atoms: C_8  and  C_10
REMARK    6  A    between atoms: N_12  and  C_13
REMARK    7  A    between atoms: C_14  and  O_15
REMARK    8  A    between atoms: C_16  and  O_17
REMARK    9  A    between atoms: C_23  and  O_24
REMARK                            x       y       z     vdW  Elec       q    Type
REMARK                         _______ _______ _______ _____ _____    ______ ____
ROOT
ATOM      1  C   UNL     1       8.196   8.497  18.243  0.00  0.00    +0.000 C 
ATOM      2  O   UNL     1       8.665   7.728  19.071  0.00  0.00    +0.000 OA
ATOM      3  N   UNL     1       7.151   8.125  17.432  0.00  0.00    +0.000 N 
ATOM      4  H   UNL     1       6.860   8.752  16.694  0.00  0.00    +0.000 HD
ENDROOT
BRANCH   3   5
ATOM      5  C   UNL     1       6.502   6.791  17.429  0.00  0.00    +0.000 C 
ATOM      6  C   UNL     1       7.392   5.650  16.851  0.00  0.00    +0.000 C 
ATOM      7  C   UNL     1       6.693   4.294  17.036  0.00  0.00    +0.000 C 
ATOM      8  C   UNL     1       5.307   4.305  16.339  0.00  0.00    +0.000 C 
ATOM      9  O   UNL     1       4.558   3.133  16.713  0.00  0.00    +0.000 OA
ATOM     10  C   UNL     1       3.739   3.549  17.811  0.00  0.00    +0.000 C 
ATOM     11  O   UNL     1       4.014   4.937  18.101  0.00  0.00    +0.000 OA
ATOM     12  C   UNL     1       4.410   5.432  16.812  0.00  0.00    +0.000 C 
ATOM     13  C   UNL     1       5.073   6.811  16.828  0.00  0.00    +0.000 C 
BRANCH   6  14
ATOM     14  O   UNL     1       7.673   5.784  15.461  0.00  0.00    +0.000 OA
ATOM     15  H   UNL     1       7.453   6.698  15.186  0.00  0.00    +0.000 HD
ENDBRANCH   6  14
BRANCH   7  16
ATOM     16  O   UNL     1       6.641   3.993  18.440  0.00  0.00    +0.000 OA
ATOM     17  H   UNL     1       7.540   3.765  18.739  0.00  0.00    +0.000 HD
ENDBRANCH   7  16
BRANCH  13  18
ATOM     18  O   UNL     1       5.015   7.317  15.490  0.00  0.00    +0.000 OA
ATOM     19  H   UNL     1       4.282   6.881  15.007  0.00  0.00    +0.000 HD
ENDBRANCH  13  18
ENDBRANCH   3   5
BRANCH   1  21
ATOM     20  C   UNL     1       9.851  10.165  18.709  0.00  0.00    +0.000 C 
ATOM     21  C   UNL     1       8.688   9.898  18.084  0.00  0.00    +0.000 C 
ATOM     22  C   UNL     1       7.804  10.881  17.376  0.00  0.00    +0.000 C 
BRANCH  20  26
ATOM     23  C   UNL     1      11.775  13.980  19.169  0.00  0.00    +0.000 A 
ATOM     24  C   UNL     1      11.071  13.397  20.221  0.00  0.00    +0.000 A 
ATOM     25  C   UNL     1      10.468  12.144  20.064  0.00  0.00    +0.000 A 
ATOM     26  C   UNL     1      10.551  11.457  18.845  0.00  0.00    +0.000 A 
ATOM     27  C   UNL     1      11.317  12.023  17.820  0.00  0.00    +0.000 A 
ATOM     28  C   UNL     1      11.898  13.285  17.967  0.00  0.00    +0.000 A 
BRANCH  23  30
ATOM     29  C   UNL     1      11.796  16.278  18.600  0.00  0.00    +0.000 C 
ATOM     30  O   UNL     1      12.282  15.223  19.423  0.00  0.00    +0.000 OA
ENDBRANCH  23  30
ENDBRANCH  20  26
ENDBRANCH   1  21
TORSDOF 7
ENDMDL
MODEL 4
REMARK VINA RESULT:      -7.4      3.055      9.376
REMARK  Name = 
REMARK  9 active torsions:
REMARK  status: ('A' for Active; 'I' for Inactive)
REMARK    1  A    between atoms: C_1  and  O_2
REMARK    2  A    between atoms: O_2  and  C_3
REMARK    3  A    between atoms: C_6  and  C_7
REMARK    4  A    between atoms: C_8  and  C_9
REMARK    5  A    between atoms: C_8  and  C_10
REMARK    6  A    between atoms: N_12  and  C_13
REMARK    7  A    between atoms: C_14  and  O_15
REMARK    8  A    between atoms: C_16  and  O_17
REMARK    9  A    between atoms: C_23  and  O_24
REMARK                            x       y       z     vdW  Elec       q    Type
REMARK                         _______ _______ _______ _____ _____    ______ ____
ROOT
ATOM      1  C   UNL     1       1.504   8.152  20.167  0.00  0.00    +0.000 C 
ATOM      2  O   UNL     1       1.020   8.222  21.288  0.00  0.00    +0.000 OA
ATOM      3  N   UNL     1       1.408   9.198  19.281  0.00  0.00    +0.000 N 
ATOM      4  H   UNL     1       1.731   9.064  18.331  0.00  0.00    +0.000 HD
ENDROOT
BRANCH   3   5
ATOM      5  C   UNL     1       0.710  10.481  19.541  0.00  0.00    +0.000 C 
ATOM      6  C   UNL     1      -0.743  10.542  18.979  0.00  0.00    +0.000 C 
ATOM      7  C   UNL     1      -1.427  11.840  19.435  0.00  0.00    +0.000 C 
ATOM      8  C   UNL     1      -0.612  13.072  18.962  0.00  0.00    +0.000 C 
ATOM      9  O   UNL     1      -1.117  14.267  19.589  0.00  0.00    +0.000 OA
ATOM     10  C   UNL     1      -0.289  14.463  20.740  0.00  0.00    +0.000 C 
ATOM     11  O   UNL     1       0.677  13.391  20.810  0.00  0.00    +0.000 OA
ATOM     12  C   UNL     1       0.832  13.045  19.425  0.00  0.00    +0.000 C 
ATOM     13  C   UNL     1       1.560  11.723  19.168  0.00  0.00    +0.000 C 
BRANCH   6  14
ATOM     14  O   UNL     1      -0.813  10.515  17.557  0.00  0.00    +0.000 OA
ATOM     15  H   UNL     1       0.023  10.137  17.211  0.00  0.00    +0.000 HD
ENDBRANCH   6  14
BRANCH   7  16
ATOM     16  O   UNL     1      -1.627  11.778  20.856  0.00  0.00    +0.000 OA
ATOM     17  H   UNL     1      -1.888  10.869  21.091  0.00  0.00    +0.000 HD
ENDBRANCH   7  16
BRANCH  13  18
ATOM     18  O   UNL     1       1.990  11.742  17.803  0.00  0.00    +0.000 OA
ATOM     19  H   UNL     1       1.374  11.207  17.260  0.00  0.00    +0.000 HD
ENDBRANCH  13  18
ENDBRANCH   3   5
BRANCH   1  21
ATOM     20  C   UNL     1       2.932   7.130  18.538  0.00  0.00    +0.000 C 
ATOM     21  C   UNL     1       2.265   6.958  19.696  0.00  0.00    +0.000 C 
ATOM     22  C   UNL     1       2.118   5.677  20.463  0.00  0.00    +0.000 C 
BRANCH  20  26
ATOM     23  C   UNL     1       5.129   4.328  16.132  0.00  0.00    +0.000 A 
ATOM     24  C   UNL     1       5.533   5.657  16.239  0.00  0.00    +0.000 A 
ATOM     25  C   UNL     1       4.821   6.554  17.043  0.00  0.00    +0.000 A 
ATOM     26  C   UNL     1       3.684   6.135  17.748  0.00  0.00    +0.000 A 
ATOM     27  C   UNL     1       3.329   4.783  17.685  0.00  0.00    +0.000 A 
ATOM     28  C   UNL     1       4.025   3.894  16.862  0.00  0.00    +0.000 A 
BRANCH  23  30
ATOM     29  C   UNL     1       6.493   4.239  14.200  0.00  0.00    +0.000 C 
ATOM     30  O   UNL     1       5.873   3.557  15.284  0.00  0.00    +0.000 OA
ENDBRANCH  23  30
ENDBRANCH  20  26
ENDBRANCH   1  21
TORSDOF 7
ENDMDL
MODEL 5
REMARK VINA RESULT:      -7.3      1.988      2.591
REMARK  Name = 
REMARK  9 active torsions:
REMARK  status: ('A' for Active; 'I' for Inactive)
REMARK    1  A    between atoms: C_1  and  O_2
REMARK    2  A    between atoms: O_2  and  C_3
REMARK    3  A    between atoms: C_6  and  C_7
REMARK    4  A    between atoms: C_8  and  C_9
REMARK    5  A    between atoms: C_8  and  C_10
REMARK    6  A    between atoms: N_12  and  C_13
REMARK    7  A    between atoms: C_14  and  O_15
REMARK    8  A    between atoms: C_16  and  O_17
REMARK    9  A    between atoms: C_23  and  O_24
REMARK                            x       y       z     vdW  Elec       q    Type
REMARK                         _______ _______ _______ _____ _____    ______ ____
ROOT
ATOM      1  C   UNL     1       2.382   7.458  18.906  0.00  0.00    +0.000 C 
ATOM      2  O   UNL     1       3.316   7.510  18.119  0.00  0.00    +0.000 OA
ATOM      3  N   UNL     1       2.008   6.275  19.496  0.00  0.00    +0.000 N 
ATOM      4  H   UNL     1       1.169   6.256  20.062  0.00  0.00    +0.000 HD
ENDROOT
BRANCH   3   5
ATOM      5  C   UNL     1       2.636   4.955  19.243  0.00  0.00    +0.000 C 
ATOM      6  C   UNL     1       2.502   4.456  17.773  0.00  0.00    +0.000 C 
ATOM      7  C   UNL     1       3.315   3.167  17.581  0.00  0.00    +0.000 C 
ATOM      8  C   UNL     1       2.831   2.074  18.570  0.00  0.00    +0.000 C 
ATOM      9  O   UNL     1       3.742   0.959  18.556  0.00  0.00    +0.000 OA
ATOM     10  C   UNL     1       4.644   1.200  19.642  0.00  0.00    +0.000 C 
ATOM     11  O   UNL     1       4.290   2.449  20.275  0.00  0.00    +0.000 OA
ATOM     12  C   UNL     1       2.878   2.517  20.019  0.00  0.00    +0.000 C 
ATOM     13  C   UNL     1       2.239   3.882  20.289  0.00  0.00    +0.000 C 
BRANCH   6  14
ATOM     14  O   UNL     1       1.164   4.163  17.382  0.00  0.00    +0.000 OA
ATOM     15  H   UNL     1       1.138   3.253  17.020  0.00  0.00    +0.000 HD
ENDBRANCH   6  14
BRANCH   7  16
ATOM     16  O   UNL     1       4.712   3.484  17.695  0.00  0.00    +0.000 OA
ATOM     17  H   UNL     1       4.803   4.453  17.758  0.00  0.00    +0.000 HD
ENDBRANCH   7  16
BRANCH  13  18
ATOM     18  O   UNL     1       0.828   3.669  20.393  0.00  0.00    +0.000 OA
ATOM     19  H   UNL     1       0.470   3.422  19.514  0.00  0.00    +0.000 HD
ENDBRANCH  13  18
ENDBRANCH   3   5
BRANCH   1  21
ATOM     20  C   UNL     1       1.513   9.626  18.373  0.00  0.00    +0.000 C 
ATOM     21  C   UNL     1       1.615   8.671  19.318  0.00  0.00    +0.000 C 
ATOM     22  C   UNL     1       1.154   8.767  20.743  0.00  0.00    +0.000 C 
BRANCH  20  26
ATOM     23  C   UNL     1      -0.103  13.586  18.792  0.00  0.00    +0.000 A 
ATOM     24  C   UNL     1       1.273  13.373  18.720  0.00  0.00    +0.000 A 
ATOM     25  C   UNL     1       1.784  12.080  18.562  0.00  0.00    +0.000 A 
ATOM     26  C   UNL     1       0.925  10.976  18.483  0.00  0.00    +0.000 A 
ATOM     27  C   UNL     1      -0.454  11.211  18.488  0.00  0.00    +0.000 A 
ATOM     28  C   UNL     1      -0.964  12.498  18.672  0.00  0.00    +0.000 A 
BRANCH  23  30
ATOM     29  C   UNL     1       0.545  15.861  18.893  0.00  0.00    +0.000 C 
ATOM     30  O   UNL     1      -0.484  14.883  18.992  0.00  0.00    +0.000 OA
ENDBRANCH  23  30
ENDBRANCH  20  26
ENDBRANCH   1  21
TORSDOF 7
ENDMDL
MODEL 6
REMARK VINA RESULT:      -7.2      3.131      9.431
REMARK  Name = 
REMARK  9 active torsions:
REMARK  status: ('A' for Active; 'I' for Inactive)
REMARK    1  A    between atoms: C_1  and  O_2
REMARK    2  A    between atoms: O_2  and  C_3
REMARK    3  A    between atoms: C_6  and  C_7
REMARK    4  A    between atoms: C_8  and  C_9
REMARK    5  A    between atoms: C_8  and  C_10
REMARK    6  A    between atoms: N_12  and  C_13
REMARK    7  A    between atoms: C_14  and  O_15
REMARK    8  A    between atoms: C_16  and  O_17
REMARK    9  A    between atoms: C_23  and  O_24
REMARK                            x       y       z     vdW  Elec       q    Type
REMARK                         _______ _______ _______ _____ _____    ______ ____
ROOT
ATOM      1  C   UNL     1       2.072   7.470  19.241  0.00  0.00    +0.000 C 
ATOM      2  O   UNL     1       1.909   7.392  20.450  0.00  0.00    +0.000 OA
ATOM      3  N   UNL     1       1.766   8.617  18.550  0.00  0.00    +0.000 N 
ATOM      4  H   UNL     1       1.820   8.607  17.540  0.00  0.00    +0.000 HD
ENDROOT
BRANCH   3   5
ATOM      5  C   UNL     1       1.191   9.849  19.146  0.00  0.00    +0.000 C 
ATOM      6  C   UNL     1      -0.326  10.052  18.851  0.00  0.00    +0.000 C 
ATOM      7  C   UNL     1      -0.855  11.261  19.637  0.00  0.00    +0.000 C 
ATOM      8  C   UNL     1      -0.056  12.537  19.262  0.00  0.00    +0.000 C 
ATOM      9  O   UNL     1      -0.387  13.609  20.165  0.00  0.00    +0.000 OA
ATOM     10  C   UNL     1       0.622  13.567  21.180  0.00  0.00    +0.000 C 
ATOM     11  O   UNL     1       1.524  12.475  20.898  0.00  0.00    +0.000 OA
ATOM     12  C   UNL     1       1.439  12.386  19.467  0.00  0.00    +0.000 C 
ATOM     13  C   UNL     1       2.041  11.115  18.864  0.00  0.00    +0.000 C 
BRANCH   6  14
ATOM     14  O   UNL     1      -0.621  10.289  17.478  0.00  0.00    +0.000 OA
ATOM     15  H   UNL     1      -1.549  10.022  17.309  0.00  0.00    +0.000 HD
ENDBRANCH   6  14
BRANCH   7  16
ATOM     16  O   UNL     1      -0.831  10.944  21.038  0.00  0.00    +0.000 OA
ATOM     17  H   UNL     1      -1.746  10.785  21.334  0.00  0.00    +0.000 HD
ENDBRANCH   7  16
BRANCH  13  18
ATOM     18  O   UNL     1       2.250  11.373  17.472  0.00  0.00    +0.000 OA
ATOM     19  H   UNL     1       1.873  10.638  16.944  0.00  0.00    +0.000 HD
ENDBRANCH  13  18
ENDBRANCH   3   5
BRANCH   1  21
ATOM     20  C   UNL     1       3.814   6.645  17.818  0.00  0.00    +0.000 C 
ATOM     21  C   UNL     1       2.654   6.353  18.439  0.00  0.00    +0.000 C 
ATOM     22  C   UNL     1       1.853   5.093  18.296  0.00  0.00    +0.000 C 
BRANCH  20  26
ATOM     23  C   UNL     1       5.999   4.299  14.956  0.00  0.00    +0.000 A 
ATOM     24  C   UNL     1       5.800   5.665  14.766  0.00  0.00    +0.000 A 
ATOM     25  C   UNL     1       5.105   6.421  15.717  0.00  0.00    +0.000 A 
ATOM     26  C   UNL     1       4.589   5.818  16.871  0.00  0.00    +0.000 A 
ATOM     27  C   UNL     1       4.854   4.461  17.082  0.00  0.00    +0.000 A 
ATOM     28  C   UNL     1       5.525   3.700  16.121  0.00  0.00    +0.000 A 
BRANCH  23  30
ATOM     29  C   UNL     1       5.933   3.527  12.719  0.00  0.00    +0.000 C 
ATOM     30  O   UNL     1       6.650   3.656  13.941  0.00  0.00    +0.000 OA
ENDBRANCH  23  30
ENDBRANCH  20  26
ENDBRANCH   1  21
TORSDOF 7
ENDMDL
MODEL 7
REMARK VINA RESULT:      -7.1      1.945      2.451
REMARK  Name = 
REMARK  9 active torsions:
REMARK  status: ('A' for Active; 'I' for Inactive)
REMARK    1  A    between atoms: C_1  and  O_2
REMARK    2  A    between atoms: O_2  and  C_3
REMARK    3  A    between atoms: C_6  and  C_7
REMARK    4  A    between atoms: C_8  and  C_9
REMARK    5  A    between atoms: C_8  and  C_10
REMARK    6  A    between atoms: N_12  and  C_13
REMARK    7  A    between atoms: C_14  and  O_15
REMARK    8  A    between atoms: C_16  and  O_17
REMARK    9  A    between atoms: C_23  and  O_24
REMARK                            x       y       z     vdW  Elec       q    Type
REMARK                         _______ _______ _______ _____ _____    ______ ____
ROOT
ATOM      1  C   UNL     1       2.379   7.485  18.751  0.00  0.00    +0.000 C 
ATOM      2  O   UNL     1       3.169   7.473  17.818  0.00  0.00    +0.000 OA
ATOM      3  N   UNL     1       2.117   6.351  19.481  0.00  0.00    +0.000 N 
ATOM      4  H   UNL     1       1.383   6.379  20.178  0.00  0.00    +0.000 HD
ENDROOT
BRANCH   3   5
ATOM      5  C   UNL     1       2.705   5.013  19.226  0.00  0.00    +0.000 C 
ATOM      6  C   UNL     1       2.549   4.517  17.757  0.00  0.00    +0.000 C 
ATOM      7  C   UNL     1       3.322   3.204  17.562  0.00  0.00    +0.000 C 
ATOM      8  C   UNL     1       2.810   2.127  18.553  0.00  0.00    +0.000 C 
ATOM      9  O   UNL     1       3.687   0.985  18.537  0.00  0.00    +0.000 OA
ATOM     10  C   UNL     1       4.600   1.199  19.619  0.00  0.00    +0.000 C 
ATOM     11  O   UNL     1       4.286   2.459  20.253  0.00  0.00    +0.000 OA
ATOM     12  C   UNL     1       2.876   2.569  20.002  0.00  0.00    +0.000 C 
ATOM     13  C   UNL     1       2.280   3.952  20.275  0.00  0.00    +0.000 C 
BRANCH   6  14
ATOM     14  O   UNL     1       1.201   4.265  17.372  0.00  0.00    +0.000 OA
ATOM     15  H   UNL     1       0.666   5.060  17.575  0.00  0.00    +0.000 HD
ENDBRANCH   6  14
BRANCH   7  16
ATOM     16  O   UNL     1       4.728   3.480  17.670  0.00  0.00    +0.000 OA
ATOM     17  H   UNL     1       5.111   3.482  16.773  0.00  0.00    +0.000 HD
ENDBRANCH   7  16
BRANCH  13  18
ATOM     18  O   UNL     1       0.863   3.782  20.384  0.00  0.00    +0.000 OA
ATOM     19  H   UNL     1       0.441   3.998  19.526  0.00  0.00    +0.000 HD
ENDBRANCH  13  18
ENDBRANCH   3   5
BRANCH   1  21
ATOM     20  C   UNL     1       1.701   9.738  18.300  0.00  0.00    +0.000 C 
ATOM     21  C   UNL     1       1.682   8.730  19.193  0.00  0.00    +0.000 C 
ATOM     22  C   UNL     1       1.155   8.785  20.597  0.00  0.00    +0.000 C 
BRANCH  20  26
ATOM     23  C   UNL     1       0.167  13.736  18.664  0.00  0.00    +0.000 A 
ATOM     24  C   UNL     1      -0.686  12.634  18.672  0.00  0.00    +0.000 A 
ATOM     25  C   UNL     1      -0.171  11.336  18.575  0.00  0.00    +0.000 A 
ATOM     26  C   UNL     1       1.208  11.121  18.457  0.00  0.00    +0.000 A 
ATOM     27  C   UNL     1       2.058  12.231  18.518  0.00  0.00    +0.000 A 
ATOM     28  C   UNL     1       1.543  13.528  18.589  0.00  0.00    +0.000 A 
BRANCH  23  30
ATOM     29  C   UNL     1      -0.963  15.340  19.988  0.00  0.00    +0.000 C 
ATOM     30  O   UNL     1      -0.450  14.953  18.718  0.00  0.00    +0.000 OA
ENDBRANCH  23  30
ENDBRANCH  20  26
ENDBRANCH   1  21
TORSDOF 7
ENDMDL
MODEL 8
REMARK VINA RESULT:      -7.0      6.566      7.680
REMARK  Name = 
REMARK  9 active torsions:
REMARK  status: ('A' for Active; 'I' for Inactive)
REMARK    1  A    between atoms: C_1  and  O_2
REMARK    2  A    between atoms: O_2  and  C_3
REMARK    3  A    between atoms: C_6  and  C_7
REMARK    4  A    between atoms: C_8  and  C_9
REMARK    5  A    between atoms: C_8  and  C_10
REMARK    6  A    between atoms: N_12  and  C_13
REMARK    7  A    between atoms: C_14  and  O_15
REMARK    8  A    between atoms: C_16  and  O_17
REMARK    9  A    between atoms: C_23  and  O_24
REMARK                            x       y       z     vdW  Elec       q    Type
REMARK                         _______ _______ _______ _____ _____    ______ ____
ROOT
ATOM      1  C   UNL     1       7.917   8.067  18.200  0.00  0.00    +0.000 C 
ATOM      2  O   UNL     1       8.452   7.200  18.877  0.00  0.00    +0.000 OA
ATOM      3  N   UNL     1       6.781   7.806  17.472  0.00  0.00    +0.000 N 
ATOM      4  H   UNL     1       6.428   8.519  16.848  0.00  0.00    +0.000 HD
ENDROOT
BRANCH   3   5
ATOM      5  C   UNL     1       6.102   6.489  17.386  0.00  0.00    +0.000 C 
ATOM      6  C   UNL     1       6.007   5.914  15.940  0.00  0.00    +0.000 C 
ATOM      7  C   UNL     1       5.433   4.490  15.979  0.00  0.00    +0.000 C 
ATOM      8  C   UNL     1       4.036   4.492  16.654  0.00  0.00    +0.000 C 
ATOM      9  O   UNL     1       3.609   3.140  16.906  0.00  0.00    +0.000 OA
ATOM     10  C   UNL     1       3.994   2.872  18.259  0.00  0.00    +0.000 C 
ATOM     11  O   UNL     1       4.660   4.037  18.794  0.00  0.00    +0.000 OA
ATOM     12  C   UNL     1       4.046   5.096  18.044  0.00  0.00    +0.000 C 
ATOM     13  C   UNL     1       4.751   6.451  18.146  0.00  0.00    +0.000 C 
BRANCH   6  14
ATOM     14  O   UNL     1       5.172   6.673  15.071  0.00  0.00    +0.000 OA
ATOM     15  H   UNL     1       4.382   6.135  14.851  0.00  0.00    +0.000 HD
ENDBRANCH   6  14
BRANCH   7  16
ATOM     16  O   UNL     1       6.391   3.627  16.615  0.00  0.00    +0.000 OA
ATOM     17  H   UNL     1       6.267   2.724  16.271  0.00  0.00    +0.000 HD
ENDBRANCH   7  16
BRANCH  13  18
ATOM     18  O   UNL     1       3.815   7.443  17.713  0.00  0.00    +0.000 OA
ATOM     19  H   UNL     1       4.300   8.240  17.415  0.00  0.00    +0.000 HD
ENDBRANCH  13  18
ENDBRANCH   3   5
BRANCH   1  21
ATOM     20  C   UNL     1       9.425   9.742  19.010  0.00  0.00    +0.000 C 
ATOM     21  C   UNL     1       8.423   9.471  18.151  0.00  0.00    +0.000 C 
ATOM     22  C   UNL     1       7.705  10.451  17.272  0.00  0.00    +0.000 C 
BRANCH  20  26
ATOM     23  C   UNL     1      11.187  13.564  19.880  0.00  0.00    +0.000 A 
ATOM     24  C   UNL     1      10.325  12.946  20.784  0.00  0.00    +0.000 A 
ATOM     25  C   UNL     1       9.776  11.691  20.498  0.00  0.00    +0.000 A 
ATOM     26  C   UNL     1      10.073  11.038  19.294  0.00  0.00    +0.000 A 
ATOM     27  C   UNL     1      10.992  11.639  18.426  0.00  0.00    +0.000 A 
ATOM     28  C   UNL     1      11.520  12.903  18.700  0.00  0.00    +0.000 A 
BRANCH  23  30
ATOM     29  C   UNL     1      10.738  15.886  19.981  0.00  0.00    +0.000 C 
ATOM     30  O   UNL     1      11.625  14.806  20.246  0.00  0.00    +0.000 OA
ENDBRANCH  23  30
ENDBRANCH  20  26
ENDBRANCH   1  21
TORSDOF 7
ENDMDL
MODEL 9
REMARK VINA RESULT:      -7.0      1.725      1.977
REMARK  Name = 
REMARK  9 active torsions:
REMARK  status: ('A' for Active; 'I' for Inactive)
REMARK    1  A    between atoms: C_1  and  O_2
REMARK    2  A    between atoms: O_2  and  C_3
REMARK    3  A    between atoms: C_6  and  C_7
REMARK    4  A    between atoms: C_8  and  C_9
REMARK    5  A    between atoms: C_8  and  C_10
REMARK    6  A    between atoms: N_12  and  C_13
REMARK    7  A    between atoms: C_14  and  O_15
REMARK    8  A    between atoms: C_16  and  O_17
REMARK    9  A    between atoms: C_23  and  O_24
REMARK                            x       y       z     vdW  Elec       q    Type
REMARK                         _______ _______ _______ _____ _____    ______ ____
ROOT
ATOM      1  C   UNL     1       2.634   7.800  18.180  0.00  0.00    +0.000 C 
ATOM      2  O   UNL     1       3.611   7.691  17.452  0.00  0.00    +0.000 OA
ATOM      3  N   UNL     1       2.161   6.733  18.905  0.00  0.00    +0.000 N 
ATOM      4  H   UNL     1       1.293   6.837  19.415  0.00  0.00    +0.000 HD
ENDROOT
BRANCH   3   5
ATOM      5  C   UNL     1       2.724   5.361  18.878  0.00  0.00    +0.000 C 
ATOM      6  C   UNL     1       2.463   4.591  17.548  0.00  0.00    +0.000 C 
ATOM      7  C   UNL     1       3.215   3.251  17.562  0.00  0.00    +0.000 C 
ATOM      8  C   UNL     1       2.769   2.397  18.778  0.00  0.00    +0.000 C 
ATOM      9  O   UNL     1       3.639   1.258  18.925  0.00  0.00    +0.000 OA
ATOM     10  C   UNL     1       4.626   1.664  19.879  0.00  0.00    +0.000 C 
ATOM     11  O   UNL     1       4.363   3.028  20.274  0.00  0.00    +0.000 OA
ATOM     12  C   UNL     1       2.939   3.113  20.103  0.00  0.00    +0.000 C 
ATOM     13  C   UNL     1       2.369   4.533  20.140  0.00  0.00    +0.000 C 
BRANCH   6  14
ATOM     14  O   UNL     1       1.091   4.292  17.313  0.00  0.00    +0.000 OA
ATOM     15  H   UNL     1       0.605   4.372  18.161  0.00  0.00    +0.000 HD
ENDBRANCH   6  14
BRANCH   7  16
ATOM     16  O   UNL     1       4.626   3.518  17.518  0.00  0.00    +0.000 OA
ATOM     17  H   UNL     1       4.789   4.386  17.929  0.00  0.00    +0.000 HD
ENDBRANCH   7  16
BRANCH  13  18
ATOM     18  O   UNL     1       0.963   4.412  20.377  0.00  0.00    +0.000 OA
ATOM     19  H   UNL     1       0.541   5.292  20.291  0.00  0.00    +0.000 HD
ENDBRANCH  13  18
ENDBRANCH   3   5
BRANCH   1  21
ATOM     20  C   UNL     1       0.718   8.998  18.974  0.00  0.00    +0.000 C 
ATOM     21  C   UNL     1       1.919   9.096  18.371  0.00  0.00    +0.000 C 
ATOM     22  C   UNL     1       2.525  10.333  17.776  0.00  0.00    +0.000 C 
BRANCH  20  26
ATOM     23  C   UNL     1      -2.215  12.027  19.805  0.00  0.00    +0.000 A 
ATOM     24  C   UNL     1      -1.179  11.763  20.699  0.00  0.00    +0.000 A 
ATOM     25  C   UNL     1      -0.218  10.789  20.405  0.00  0.00    +0.000 A 
ATOM     26  C   UNL     1      -0.285  10.054  19.214  0.00  0.00    +0.000 A 
ATOM     27  C   UNL     1      -1.290  10.376  18.295  0.00  0.00    +0.000 A 
ATOM     28  C   UNL     1      -2.265  11.330  18.600  0.00  0.00    +0.000 A 
BRANCH  23  30
ATOM     29  C   UNL     1      -4.488  12.666  19.976  0.00  0.00    +0.000 C 
ATOM     30  O   UNL     1      -3.118  12.965  20.218  0.00  0.00    +0.000 OA
ENDBRANCH  23  30
ENDBRANCH  20  26
ENDBRANCH   1  21
TORSDOF 7
ENDMDL
