MODEL 1
REMARK VINA RESULT:      -8.5      0.000      0.000
REMARK  Name = 
REMARK  3 active torsions:
REMARK  status: ('A' for Active; 'I' for Inactive)
REMARK    1  A    between atoms: C_2  and  O_3
REMARK    2  A    between atoms: C_2  and  C_4
REMARK    3  A    between atoms: C_9  and  N_10
REMARK                            x       y       z     vdW  Elec       q    Type
REMARK                         _______ _______ _______ _____ _____    ______ ____
ROOT
ATOM      1  N   UNL     1       7.166   5.667  15.462  0.00  0.00    +0.000 N 
ATOM      2  C   UNL     1       6.849   5.479  16.838  0.00  0.00    +0.000 A 
ATOM      3  C   UNL     1       7.648   6.067  17.788  0.00  0.00    +0.000 A 
ATOM      4  C   UNL     1       7.337   5.777  19.094  0.00  0.00    +0.000 A 
ATOM      5  N   UNL     1       6.285   5.020  19.458  0.00  0.00    +0.000 NA
ATOM      6  C   UNL     1       5.533   4.498  18.480  0.00  0.00    +0.000 A 
ATOM      7  N   UNL     1       4.403   3.765  18.781  0.00  0.00    +0.000 N 
ATOM      8  C   UNL     1       3.867   2.858  17.777  0.00  0.00    +0.000 C 
ATOM      9  C   UNL     1       2.598   3.443  17.156  0.00  0.00    +0.000 C 
ATOM     10  C   UNL     1       1.384   3.443  18.086  0.00  0.00    +0.000 C 
ATOM     11  C   UNL     1       1.605   4.093  19.454  0.00  0.00    +0.000 C 
ATOM     12  C   UNL     1       2.546   3.286  20.356  0.00  0.00    +0.000 C 
ATOM     13  C   UNL     1       4.032   3.613  20.174  0.00  0.00    +0.000 C 
ATOM     14  N   UNL     1       5.821   4.700  17.190  0.00  0.00    +0.000 NA
ATOM     15  H   UNL     1       7.004   6.656  15.251  0.00  0.00    +0.000 HD
ENDROOT
BRANCH   1  21
ATOM     16  C   UNL     1       7.310   4.989  13.094  0.00  0.00    +0.000 A 
ATOM     17  C   UNL     1       6.875   4.182  12.026  0.00  0.00    +0.000 A 
ATOM     18  C   UNL     1       5.848   3.258  12.201  0.00  0.00    +0.000 A 
ATOM     19  C   UNL     1       5.211   3.173  13.430  0.00  0.00    +0.000 A 
ATOM     20  C   UNL     1       5.610   3.999  14.480  0.00  0.00    +0.000 A 
ATOM     21  C   UNL     1       6.701   4.877  14.365  0.00  0.00    +0.000 A 
BRANCH  16  23
ATOM     22  O   UNL     1       9.410   6.025  13.543  0.00  0.00    +0.000 OA
ATOM     23  C   UNL     1       8.443   5.910  12.802  0.00  0.00    +0.000 C 
BRANCH  23  24
ATOM     24  O   UNL     1       8.307   6.635  11.671  0.00  0.00    +0.000 OA
ATOM     25  H   UNL     1       9.049   6.476  11.048  0.00  0.00    +0.000 HD
ENDBRANCH  23  24
ENDBRANCH  16  23
ENDBRANCH   1  21
TORSDOF 3
ENDMDL
MODEL 2
REMARK VINA RESULT:      -7.7      2.675      3.491
REMARK  Name = 
REMARK  3 active torsions:
REMARK  status: ('A' for Active; 'I' for Inactive)
REMARK    1  A    between atoms: C_2  and  O_3
REMARK    2  A    between atoms: C_2  and  C_4
REMARK    3  A    between atoms: C_9  and  N_10
REMARK                            x       y       z     vdW  Elec       q    Type
REMARK                         _______ _______ _______ _____ _____    ______ ____
ROOT
ATOM      1  N   UNL     1       4.446   7.100  16.231  0.00  0.00    +0.000 N 
ATOM      2  C   UNL     1       3.646   7.021  17.406  0.00  0.00    +0.000 A 
ATOM      3  C   UNL     1       3.097   8.175  17.911  0.00  0.00    +0.000 A 
ATOM      4  C   UNL     1       2.407   8.042  19.092  0.00  0.00    +0.000 A 
ATOM      5  N   UNL     1       2.209   6.863  19.709  0.00  0.00    +0.000 NA
ATOM      6  C   UNL     1       2.751   5.774  19.149  0.00  0.00    +0.000 A 
ATOM      7  N   UNL     1       2.535   4.524  19.692  0.00  0.00    +0.000 N 
ATOM      8  C   UNL     1       3.456   3.446  19.362  0.00  0.00    +0.000 C 
ATOM      9  C   UNL     1       2.806   2.476  18.376  0.00  0.00    +0.000 C 
ATOM     10  C   UNL     1       1.701   1.609  18.983  0.00  0.00    +0.000 C 
ATOM     11  C   UNL     1       0.597   2.372  19.720  0.00  0.00    +0.000 C 
ATOM     12  C   UNL     1       1.083   3.016  21.024  0.00  0.00    +0.000 C 
ATOM     13  C   UNL     1       1.675   4.419  20.854  0.00  0.00    +0.000 C 
ATOM     14  N   UNL     1       3.480   5.851  18.030  0.00  0.00    +0.000 NA
ATOM     15  H   UNL     1       3.822   7.357  15.461  0.00  0.00    +0.000 HD
ENDROOT
BRANCH   1  21
ATOM     16  C   UNL     1       6.646   5.990  16.372  0.00  0.00    +0.000 A 
ATOM     17  C   UNL     1       7.542   4.996  15.938  0.00  0.00    +0.000 A 
ATOM     18  C   UNL     1       7.195   4.119  14.914  0.00  0.00    +0.000 A 
ATOM     19  C   UNL     1       5.970   4.264  14.278  0.00  0.00    +0.000 A 
ATOM     20  C   UNL     1       5.094   5.274  14.677  0.00  0.00    +0.000 A 
ATOM     21  C   UNL     1       5.375   6.117  15.766  0.00  0.00    +0.000 A 
BRANCH  16  23
ATOM     22  O   UNL     1       7.297   6.402  18.629  0.00  0.00    +0.000 OA
ATOM     23  C   UNL     1       7.107   6.843  17.502  0.00  0.00    +0.000 C 
BRANCH  23  24
ATOM     24  O   UNL     1       7.271   8.148  17.197  0.00  0.00    +0.000 OA
ATOM     25  H   UNL     1       8.079   8.295  16.659  0.00  0.00    +0.000 HD
ENDBRANCH  23  24
ENDBRANCH  16  23
ENDBRANCH   1  21
TORSDOF 3
ENDMDL
MODEL 3
REMARK VINA RESULT:      -7.1      5.234      7.826
REMARK  Name = 
REMARK  3 active torsions:
REMARK  status: ('A' for Active; 'I' for Inactive)
REMARK    1  A    between atoms: C_2  and  O_3
REMARK    2  A    between atoms: C_2  and  C_4
REMARK    3  A    between atoms: C_9  and  N_10
REMARK                            x       y       z     vdW  Elec       q    Type
REMARK                         _______ _______ _______ _____ _____    ______ ____
ROOT
ATOM      1  N   UNL     1       1.337   6.856  20.165  0.00  0.00    +0.000 N 
ATOM      2  C   UNL     1       2.345   5.861  20.006  0.00  0.00    +0.000 A 
ATOM      3  C   UNL     1       2.315   4.754  20.817  0.00  0.00    +0.000 A 
ATOM      4  C   UNL     1       3.361   3.876  20.670  0.00  0.00    +0.000 A 
ATOM      5  N   UNL     1       4.337   4.028  19.756  0.00  0.00    +0.000 NA
ATOM      6  C   UNL     1       4.291   5.119  18.980  0.00  0.00    +0.000 A 
ATOM      7  N   UNL     1       5.222   5.307  17.979  0.00  0.00    +0.000 N 
ATOM      8  C   UNL     1       5.433   6.651  17.460  0.00  0.00    +0.000 C 
ATOM      9  C   UNL     1       4.797   6.792  16.078  0.00  0.00    +0.000 C 
ATOM     10  C   UNL     1       5.529   6.038  14.967  0.00  0.00    +0.000 C 
ATOM     11  C   UNL     1       5.785   4.553  15.240  0.00  0.00    +0.000 C 
ATOM     12  C   UNL     1       6.813   4.317  16.352  0.00  0.00    +0.000 C 
ATOM     13  C   UNL     1       6.219   4.277  17.764  0.00  0.00    +0.000 C 
ATOM     14  N   UNL     1       3.327   6.036  19.117  0.00  0.00    +0.000 NA
ATOM     15  H   UNL     1       0.453   6.435  19.868  0.00  0.00    +0.000 HD
ENDROOT
BRANCH   1  21
ATOM     16  C   UNL     1       0.929   9.266  20.507  0.00  0.00    +0.000 A 
ATOM     17  C   UNL     1       1.019  10.595  20.056  0.00  0.00    +0.000 A 
ATOM     18  C   UNL     1       1.565  10.892  18.811  0.00  0.00    +0.000 A 
ATOM     19  C   UNL     1       1.977   9.857  17.983  0.00  0.00    +0.000 A 
ATOM     20  C   UNL     1       1.853   8.534  18.409  0.00  0.00    +0.000 A 
ATOM     21  C   UNL     1       1.390   8.205  19.694  0.00  0.00    +0.000 A 
BRANCH  16  23
ATOM     22  O   UNL     1       0.851   9.593  22.868  0.00  0.00    +0.000 OA
ATOM     23  C   UNL     1       0.366   9.071  21.872  0.00  0.00    +0.000 C 
BRANCH  23  24
ATOM     24  O   UNL     1      -0.702   8.249  21.933  0.00  0.00    +0.000 OA
ATOM     25  H   UNL     1      -1.380   8.487  21.263  0.00  0.00    +0.000 HD
ENDBRANCH  23  24
ENDBRANCH  16  23
ENDBRANCH   1  21
TORSDOF 3
ENDMDL
MODEL 4
REMARK VINA RESULT:      -7.1      9.540     10.879
REMARK  Name = 
REMARK  3 active torsions:
REMARK  status: ('A' for Active; 'I' for Inactive)
REMARK    1  A    between atoms: C_2  and  O_3
REMARK    2  A    between atoms: C_2  and  C_4
REMARK    3  A    between atoms: C_9  and  N_10
REMARK                            x       y       z     vdW  Elec       q    Type
REMARK                         _______ _______ _______ _____ _____    ______ ____
ROOT
ATOM      1  N   UNL     1       8.135  14.189  17.675  0.00  0.00    +0.000 N 
ATOM      2  C   UNL     1       7.457  14.749  18.796  0.00  0.00    +0.000 A 
ATOM      3  C   UNL     1       6.562  15.769  18.585  0.00  0.00    +0.000 A 
ATOM      4  C   UNL     1       6.007  16.320  19.715  0.00  0.00    +0.000 A 
ATOM      5  N   UNL     1       6.254  15.873  20.960  0.00  0.00    +0.000 NA
ATOM      6  C   UNL     1       7.119  14.859  21.091  0.00  0.00    +0.000 A 
ATOM      7  N   UNL     1       7.370  14.308  22.331  0.00  0.00    +0.000 N 
ATOM      8  C   UNL     1       8.595  13.545  22.524  0.00  0.00    +0.000 C 
ATOM      9  C   UNL     1       8.285  12.049  22.582  0.00  0.00    +0.000 C 
ATOM     10  C   UNL     1       7.573  11.603  23.861  0.00  0.00    +0.000 C 
ATOM     11  C   UNL     1       6.303  12.382  24.212  0.00  0.00    +0.000 C 
ATOM     12  C   UNL     1       6.584  13.829  24.635  0.00  0.00    +0.000 C 
ATOM     13  C   UNL     1       6.646  14.826  23.473  0.00  0.00    +0.000 C 
ATOM     14  N   UNL     1       7.732  14.320  20.032  0.00  0.00    +0.000 NA
ATOM     15  H   UNL     1       7.431  13.701  17.114  0.00  0.00    +0.000 HD
ENDROOT
BRANCH   1  21
ATOM     16  C   UNL     1      10.588  14.002  17.483  0.00  0.00    +0.000 A 
ATOM     17  C   UNL     1      11.763  13.233  17.555  0.00  0.00    +0.000 A 
ATOM     18  C   UNL     1      11.710  11.874  17.853  0.00  0.00    +0.000 A 
ATOM     19  C   UNL     1      10.477  11.262  18.029  0.00  0.00    +0.000 A 
ATOM     20  C   UNL     1       9.307  12.013  17.919  0.00  0.00    +0.000 A 
ATOM     21  C   UNL     1       9.328  13.401  17.708  0.00  0.00    +0.000 A 
BRANCH  16  23
ATOM     22  O   UNL     1      10.743  16.307  18.074  0.00  0.00    +0.000 OA
ATOM     23  C   UNL     1      10.769  15.453  17.198  0.00  0.00    +0.000 C 
BRANCH  23  24
ATOM     24  O   UNL     1      10.933  15.758  15.893  0.00  0.00    +0.000 OA
ATOM     25  H   UNL     1      11.520  16.536  15.775  0.00  0.00    +0.000 HD
ENDBRANCH  23  24
ENDBRANCH  16  23
ENDBRANCH   1  21
TORSDOF 3
ENDMDL
MODEL 5
REMARK VINA RESULT:      -7.0      2.999      6.347
REMARK  Name = 
REMARK  3 active torsions:
REMARK  status: ('A' for Active; 'I' for Inactive)
REMARK    1  A    between atoms: C_2  and  O_3
REMARK    2  A    between atoms: C_2  and  C_4
REMARK    3  A    between atoms: C_9  and  N_10
REMARK                            x       y       z     vdW  Elec       q    Type
REMARK                         _______ _______ _______ _____ _____    ______ ____
ROOT
ATOM      1  N   UNL     1       5.048   4.481  19.122  0.00  0.00    +0.000 N 
ATOM      2  C   UNL     1       5.991   5.074  18.234  0.00  0.00    +0.000 A 
ATOM      3  C   UNL     1       7.038   5.790  18.762  0.00  0.00    +0.000 A 
ATOM      4  C   UNL     1       7.861   6.405  17.851  0.00  0.00    +0.000 A 
ATOM      5  N   UNL     1       7.718   6.285  16.518  0.00  0.00    +0.000 NA
ATOM      6  C   UNL     1       6.691   5.551  16.072  0.00  0.00    +0.000 A 
ATOM      7  N   UNL     1       6.521   5.331  14.720  0.00  0.00    +0.000 N 
ATOM      8  C   UNL     1       5.208   4.934  14.233  0.00  0.00    +0.000 C 
ATOM      9  C   UNL     1       5.203   3.449  13.869  0.00  0.00    +0.000 C 
ATOM     10  C   UNL     1       5.992   3.109  12.603  0.00  0.00    +0.000 C 
ATOM     11  C   UNL     1       7.435   3.617  12.572  0.00  0.00    +0.000 C 
ATOM     12  C   UNL     1       7.531   5.143  12.461  0.00  0.00    +0.000 C 
ATOM     13  C   UNL     1       7.503   5.878  13.806  0.00  0.00    +0.000 C 
ATOM     14  N   UNL     1       5.824   4.975  16.911  0.00  0.00    +0.000 NA
ATOM     15  H   UNL     1       5.541   3.740  19.628  0.00  0.00    +0.000 HD
ENDROOT
BRANCH   1  21
ATOM     16  C   UNL     1       3.394   2.658  18.943  0.00  0.00    +0.000 A 
ATOM     17  C   UNL     1       2.091   2.217  18.650  0.00  0.00    +0.000 A 
ATOM     18  C   UNL     1       1.117   3.108  18.211  0.00  0.00    +0.000 A 
ATOM     19  C   UNL     1       1.452   4.440  18.009  0.00  0.00    +0.000 A 
ATOM     20  C   UNL     1       2.753   4.875  18.259  0.00  0.00    +0.000 A 
ATOM     21  C   UNL     1       3.736   4.022  18.788  0.00  0.00    +0.000 A 
BRANCH  16  23
ATOM     22  O   UNL     1       5.002   1.771  20.465  0.00  0.00    +0.000 OA
ATOM     23  C   UNL     1       4.341   1.624  19.444  0.00  0.00    +0.000 C 
BRANCH  23  24
ATOM     24  O   UNL     1       4.440   0.523  18.670  0.00  0.00    +0.000 OA
ATOM     25  H   UNL     1       5.174   0.601  18.022  0.00  0.00    +0.000 HD
ENDBRANCH  23  24
ENDBRANCH  16  23
ENDBRANCH   1  21
TORSDOF 3
ENDMDL
MODEL 6
REMARK VINA RESULT:      -7.0      7.271      9.181
REMARK  Name = 
REMARK  3 active torsions:
REMARK  status: ('A' for Active; 'I' for Inactive)
REMARK    1  A    between atoms: C_2  and  O_3
REMARK    2  A    between atoms: C_2  and  C_4
REMARK    3  A    between atoms: C_9  and  N_10
REMARK                            x       y       z     vdW  Elec       q    Type
REMARK                         _______ _______ _______ _____ _____    ______ ____
ROOT
ATOM      1  N   UNL     1       1.480   7.509  21.305  0.00  0.00    +0.000 N 
ATOM      2  C   UNL     1       0.791   8.733  21.541  0.00  0.00    +0.000 A 
ATOM      3  C   UNL     1       0.047   8.863  22.688  0.00  0.00    +0.000 A 
ATOM      4  C   UNL     1      -0.660  10.034  22.813  0.00  0.00    +0.000 A 
ATOM      5  N   UNL     1      -0.601  11.038  21.919  0.00  0.00    +0.000 NA
ATOM      6  C   UNL     1       0.165  10.855  20.835  0.00  0.00    +0.000 A 
ATOM      7  N   UNL     1       0.323  11.866  19.909  0.00  0.00    +0.000 N 
ATOM      8  C   UNL     1       0.766  11.524  18.565  0.00  0.00    +0.000 C 
ATOM      9  C   UNL     1       2.228  11.926  18.370  0.00  0.00    +0.000 C 
ATOM     10  C   UNL     1       2.458  13.435  18.273  0.00  0.00    +0.000 C 
ATOM     11  C   UNL     1       1.870  14.264  19.417  0.00  0.00    +0.000 C 
ATOM     12  C   UNL     1       0.337  14.296  19.408  0.00  0.00    +0.000 C 
ATOM     13  C   UNL     1      -0.324  13.138  20.162  0.00  0.00    +0.000 C 
ATOM     14  N   UNL     1       0.830   9.713  20.632  0.00  0.00    +0.000 NA
ATOM     15  H   UNL     1       2.219   7.442  22.011  0.00  0.00    +0.000 HD
ENDROOT
BRANCH   1  21
ATOM     16  C   UNL     1       2.081   5.663  19.781  0.00  0.00    +0.000 A 
ATOM     17  C   UNL     1       2.550   5.214  18.533  0.00  0.00    +0.000 A 
ATOM     18  C   UNL     1       2.927   6.118  17.544  0.00  0.00    +0.000 A 
ATOM     19  C   UNL     1       2.891   7.478  17.815  0.00  0.00    +0.000 A 
ATOM     20  C   UNL     1       2.466   7.928  19.064  0.00  0.00    +0.000 A 
ATOM     21  C   UNL     1       1.993   7.048  20.052  0.00  0.00    +0.000 A 
BRANCH  16  23
ATOM     22  O   UNL     1       2.301   4.353  21.761  0.00  0.00    +0.000 OA
ATOM     23  C   UNL     1       1.666   4.608  20.746  0.00  0.00    +0.000 C 
BRANCH  23  24
ATOM     24  O   UNL     1       0.552   3.930  20.400  0.00  0.00    +0.000 OA
ATOM     25  H   UNL     1      -0.208   4.534  20.253  0.00  0.00    +0.000 HD
ENDBRANCH  23  24
ENDBRANCH  16  23
ENDBRANCH   1  21
TORSDOF 3
ENDMDL
MODEL 7
REMARK VINA RESULT:      -6.8      8.643     10.457
REMARK  Name = 
REMARK  3 active torsions:
REMARK  status: ('A' for Active; 'I' for Inactive)
REMARK    1  A    between atoms: C_2  and  O_3
REMARK    2  A    between atoms: C_2  and  C_4
REMARK    3  A    between atoms: C_9  and  N_10
REMARK                            x       y       z     vdW  Elec       q    Type
REMARK                         _______ _______ _______ _____ _____    ______ ____
ROOT
ATOM      1  N   UNL     1       1.113  11.278  20.072  0.00  0.00    +0.000 N 
ATOM      2  C   UNL     1      -0.205  11.816  20.026  0.00  0.00    +0.000 A 
ATOM      3  C   UNL     1      -0.512  12.884  20.833  0.00  0.00    +0.000 A 
ATOM      4  C   UNL     1      -1.820  13.300  20.802  0.00  0.00    +0.000 A 
ATOM      5  N   UNL     1      -2.755  12.759  19.999  0.00  0.00    +0.000 NA
ATOM      6  C   UNL     1      -2.381  11.736  19.219  0.00  0.00    +0.000 A 
ATOM      7  N   UNL     1      -3.269  11.176  18.324  0.00  0.00    +0.000 N 
ATOM      8  C   UNL     1      -3.011   9.832  17.827  0.00  0.00    +0.000 C 
ATOM      9  C   UNL     1      -2.512   9.887  16.384  0.00  0.00    +0.000 C 
ATOM     10  C   UNL     1      -3.584  10.270  15.361  0.00  0.00    +0.000 C 
ATOM     11  C   UNL     1      -4.350  11.560  15.665  0.00  0.00    +0.000 C 
ATOM     12  C   UNL     1      -5.272  11.436  16.883  0.00  0.00    +0.000 C 
ATOM     13  C   UNL     1      -4.596  11.748  18.222  0.00  0.00    +0.000 C 
ATOM     14  N   UNL     1      -1.135  11.252  19.248  0.00  0.00    +0.000 NA
ATOM     15  H   UNL     1       1.739  11.988  19.681  0.00  0.00    +0.000 HD
ENDROOT
BRANCH   1  21
ATOM     16  C   UNL     1       1.526   8.879  20.479  0.00  0.00    +0.000 A 
ATOM     17  C   UNL     1       1.893   7.606  20.006  0.00  0.00    +0.000 A 
ATOM     18  C   UNL     1       2.253   7.414  18.675  0.00  0.00    +0.000 A 
ATOM     19  C   UNL     1       2.302   8.505  17.819  0.00  0.00    +0.000 A 
ATOM     20  C   UNL     1       1.978   9.776  18.292  0.00  0.00    +0.000 A 
ATOM     21  C   UNL     1       1.524   9.990  19.604  0.00  0.00    +0.000 A 
BRANCH  16  23
ATOM     22  O   UNL     1      -0.049   8.894  22.269  0.00  0.00    +0.000 OA
ATOM     23  C   UNL     1       1.120   8.957  21.909  0.00  0.00    +0.000 C 
BRANCH  23  24
ATOM     24  O   UNL     1       2.137   9.133  22.779  0.00  0.00    +0.000 OA
ATOM     25  H   UNL     1       1.874   8.899  23.696  0.00  0.00    +0.000 HD
ENDBRANCH  23  24
ENDBRANCH  16  23
ENDBRANCH   1  21
TORSDOF 3
ENDMDL
MODEL 8
REMARK VINA RESULT:      -6.7     11.366     14.091
REMARK  Name = 
REMARK  3 active torsions:
REMARK  status: ('A' for Active; 'I' for Inactive)
REMARK    1  A    between atoms: C_2  and  O_3
REMARK    2  A    between atoms: C_2  and  C_4
REMARK    3  A    between atoms: C_9  and  N_10
REMARK                            x       y       z     vdW  Elec       q    Type
REMARK                         _______ _______ _______ _____ _____    ______ ____
ROOT
ATOM      1  N   UNL     1      -5.416  11.213  18.384  0.00  0.00    +0.000 N 
ATOM      2  C   UNL     1      -4.015  11.046  18.187  0.00  0.00    +0.000 A 
ATOM      3  C   UNL     1      -3.581  10.094  17.297  0.00  0.00    +0.000 A 
ATOM      4  C   UNL     1      -2.220   9.927  17.217  0.00  0.00    +0.000 A 
ATOM      5  N   UNL     1      -1.337  10.674  17.905  0.00  0.00    +0.000 NA
ATOM      6  C   UNL     1      -1.829  11.602  18.736  0.00  0.00    +0.000 A 
ATOM      7  N   UNL     1      -0.982  12.447  19.424  0.00  0.00    +0.000 N 
ATOM      8  C   UNL     1      -1.477  13.119  20.617  0.00  0.00    +0.000 C 
ATOM      9  C   UNL     1      -1.744  14.595  20.323  0.00  0.00    +0.000 C 
ATOM     10  C   UNL     1      -0.482  15.438  20.134  0.00  0.00    +0.000 C 
ATOM     11  C   UNL     1       0.516  14.904  19.104  0.00  0.00    +0.000 C 
ATOM     12  C   UNL     1       1.206  13.611  19.551  0.00  0.00    +0.000 C 
ATOM     13  C   UNL     1       0.444  12.331  19.191  0.00  0.00    +0.000 C 
ATOM     14  N   UNL     1      -3.145  11.771  18.897  0.00  0.00    +0.000 NA
ATOM     15  H   UNL     1      -5.797  11.589  17.512  0.00  0.00    +0.000 HD
ENDROOT
BRANCH   1  21
ATOM     16  C   UNL     1      -6.949  11.159  20.317  0.00  0.00    +0.000 A 
ATOM     17  C   UNL     1      -7.540  11.793  21.424  0.00  0.00    +0.000 A 
ATOM     18  C   UNL     1      -7.248  13.120  21.727  0.00  0.00    +0.000 A 
ATOM     19  C   UNL     1      -6.404  13.840  20.893  0.00  0.00    +0.000 A 
ATOM     20  C   UNL     1      -5.847  13.227  19.771  0.00  0.00    +0.000 A 
ATOM     21  C   UNL     1      -6.049  11.866  19.487  0.00  0.00    +0.000 A 
BRANCH  16  23
ATOM     22  O   UNL     1      -7.382   8.927  21.039  0.00  0.00    +0.000 OA
ATOM     23  C   UNL     1      -7.303   9.726  20.115  0.00  0.00    +0.000 C 
BRANCH  23  24
ATOM     24  O   UNL     1      -7.500   9.367  18.828  0.00  0.00    +0.000 OA
ATOM     25  H   UNL     1      -8.452   9.228  18.633  0.00  0.00    +0.000 HD
ENDBRANCH  23  24
ENDBRANCH  16  23
ENDBRANCH   1  21
TORSDOF 3
ENDMDL
MODEL 9
REMARK VINA RESULT:      -6.7      2.928      6.335
REMARK  Name = 
REMARK  3 active torsions:
REMARK  status: ('A' for Active; 'I' for Inactive)
REMARK    1  A    between atoms: C_2  and  O_3
REMARK    2  A    between atoms: C_2  and  C_4
REMARK    3  A    between atoms: C_9  and  N_10
REMARK                            x       y       z     vdW  Elec       q    Type
REMARK                         _______ _______ _______ _____ _____    ______ ____
ROOT
ATOM      1  N   UNL     1       5.167   4.078  19.288  0.00  0.00    +0.000 N 
ATOM      2  C   UNL     1       6.063   4.762  18.416  0.00  0.00    +0.000 A 
ATOM      3  C   UNL     1       7.097   5.482  18.963  0.00  0.00    +0.000 A 
ATOM      4  C   UNL     1       7.872   6.184  18.073  0.00  0.00    +0.000 A 
ATOM      5  N   UNL     1       7.698   6.143  16.739  0.00  0.00    +0.000 NA
ATOM      6  C   UNL     1       6.685   5.400  16.272  0.00  0.00    +0.000 A 
ATOM      7  N   UNL     1       6.487   5.261  14.914  0.00  0.00    +0.000 N 
ATOM      8  C   UNL     1       5.176   4.846  14.435  0.00  0.00    +0.000 C 
ATOM      9  C   UNL     1       5.215   3.388  13.977  0.00  0.00    +0.000 C 
ATOM     10  C   UNL     1       5.981   3.159  12.673  0.00  0.00    +0.000 C 
ATOM     11  C   UNL     1       7.404   3.722  12.638  0.00  0.00    +0.000 C 
ATOM     12  C   UNL     1       7.441   5.255  12.623  0.00  0.00    +0.000 C 
ATOM     13  C   UNL     1       7.424   5.901  14.012  0.00  0.00    +0.000 C 
ATOM     14  N   UNL     1       5.863   4.740  17.094  0.00  0.00    +0.000 NA
ATOM     15  H   UNL     1       5.700   3.325  19.732  0.00  0.00    +0.000 HD
ENDROOT
BRANCH   1  21
ATOM     16  C   UNL     1       2.724   4.402  19.167  0.00  0.00    +0.000 A 
ATOM     17  C   UNL     1       1.447   3.936  18.805  0.00  0.00    +0.000 A 
ATOM     18  C   UNL     1       1.281   2.678  18.231  0.00  0.00    +0.000 A 
ATOM     19  C   UNL     1       2.386   1.854  18.065  0.00  0.00    +0.000 A 
ATOM     20  C   UNL     1       3.648   2.296  18.460  0.00  0.00    +0.000 A 
ATOM     21  C   UNL     1       3.863   3.592  18.957  0.00  0.00    +0.000 A 
BRANCH  16  23
ATOM     22  O   UNL     1       3.254   6.727  19.116  0.00  0.00    +0.000 OA
ATOM     23  C   UNL     1       2.785   5.778  19.732  0.00  0.00    +0.000 C 
BRANCH  23  24
ATOM     24  O   UNL     1       2.311   5.895  20.991  0.00  0.00    +0.000 OA
ATOM     25  H   UNL     1       2.533   6.769  21.381  0.00  0.00    +0.000 HD
ENDBRANCH  23  24
ENDBRANCH  16  23
ENDBRANCH   1  21
TORSDOF 3
ENDMDL
