MODEL 1
REMARK VINA RESULT:      -8.3      0.000      0.000
REMARK  Name = 
REMARK  6 active torsions:
REMARK  status: ('A' for Active; 'I' for Inactive)
REMARK    1  A    between atoms: C_1  and  C_2
REMARK    2  A    between atoms: C_5  and  C_6
REMARK    3  A    between atoms: C_6  and  N_7
REMARK    4  A    between atoms: N_10  and  C_11
REMARK    5  A    between atoms: C_11  and  C_12
REMARK    6  A    between atoms: C_12  and  C_13
REMARK                            x       y       z     vdW  Elec       q    Type
REMARK                         _______ _______ _______ _____ _____    ______ ____
ROOT
ATOM      1  N   UNL     1       6.501   3.761  18.240  0.00  0.00    +0.000 N 
ATOM      2  C   UNL     1       5.469   4.062  19.093  0.00  0.00    +0.000 C 
ATOM      3  O   UNL     1       5.075   5.212  19.271  0.00  0.00    +0.000 OA
ATOM      4  N   UNL     1       4.923   2.957  19.723  0.00  0.00    +0.000 N 
ATOM      5  H   UNL     1       7.046   2.933  18.450  0.00  0.00    +0.000 HD
ATOM      6  H   UNL     1       4.896   2.106  19.173  0.00  0.00    +0.000 HD
ENDROOT
BRANCH   1   7
ATOM      7  C   UNL     1       7.166   4.877  17.568  0.00  0.00    +0.000 C 
BRANCH   7  12
ATOM      8  C   UNL     1       6.189   3.683  12.865  0.00  0.00    +0.000 C 
ATOM      9  C   UNL     1       6.719   4.359  14.065  0.00  0.00    +0.000 A 
ATOM     10  N   UNL     1       7.464   5.465  14.011  0.00  0.00    +0.000 NA
ATOM     11  O   UNL     1       7.713   5.754  15.359  0.00  0.00    +0.000 OA
ATOM     12  C   UNL     1       7.063   4.787  16.087  0.00  0.00    +0.000 A 
ATOM     13  N   UNL     1       6.462   3.897  15.339  0.00  0.00    +0.000 NA
ENDBRANCH   7  12
ENDBRANCH   1   7
BRANCH   4  14
ATOM     14  C   UNL     1       3.804   3.221  20.617  0.00  0.00    +0.000 C 
BRANCH  14  15
ATOM     15  C   UNL     1       2.378   3.497  20.034  0.00  0.00    +0.000 C 
ATOM     16  C   UNL     1       1.406   3.235  21.226  0.00  0.00    +0.000 C 
ATOM     17  C   UNL     1       1.964   2.470  18.944  0.00  0.00    +0.000 C 
ATOM     18  C   UNL     1       2.349   2.880  17.532  0.00  0.00    +0.000 C 
ATOM     19  C   UNL     1       1.674   4.195  17.170  0.00  0.00    +0.000 C 
ATOM     20  C   UNL     1       1.880   5.259  18.217  0.00  0.00    +0.000 A 
ATOM     21  C   UNL     1       1.666   6.597  17.837  0.00  0.00    +0.000 A 
ATOM     22  C   UNL     1       1.811   7.634  18.753  0.00  0.00    +0.000 A 
ATOM     23  C   UNL     1       2.165   7.344  20.062  0.00  0.00    +0.000 A 
ATOM     24  C   UNL     1       2.363   6.019  20.458  0.00  0.00    +0.000 A 
ATOM     25  C   UNL     1       2.212   4.949  19.553  0.00  0.00    +0.000 A 
ENDBRANCH  14  15
ENDBRANCH   4  14
TORSDOF 4
ENDMDL
MODEL 2
REMARK VINA RESULT:      -8.2      4.292      5.903
REMARK  Name = 
REMARK  6 active torsions:
REMARK  status: ('A' for Active; 'I' for Inactive)
REMARK    1  A    between atoms: C_1  and  C_2
REMARK    2  A    between atoms: C_5  and  C_6
REMARK    3  A    between atoms: C_6  and  N_7
REMARK    4  A    between atoms: N_10  and  C_11
REMARK    5  A    between atoms: C_11  and  C_12
REMARK    6  A    between atoms: C_12  and  C_13
REMARK                            x       y       z     vdW  Elec       q    Type
REMARK                         _______ _______ _______ _____ _____    ______ ____
ROOT
ATOM      1  N   UNL     1       7.945   8.051  18.383  0.00  0.00    +0.000 N 
ATOM      2  C   UNL     1       7.461   6.991  17.659  0.00  0.00    +0.000 C 
ATOM      3  O   UNL     1       7.639   6.883  16.449  0.00  0.00    +0.000 OA
ATOM      4  N   UNL     1       6.762   6.067  18.417  0.00  0.00    +0.000 N 
ATOM      5  H   UNL     1       7.433   8.312  19.217  0.00  0.00    +0.000 HD
ATOM      6  H   UNL     1       7.104   5.925  19.361  0.00  0.00    +0.000 HD
ENDROOT
BRANCH   1   7
ATOM      7  C   UNL     1       8.657   9.098  17.650  0.00  0.00    +0.000 C 
BRANCH   7  12
ATOM      8  C   UNL     1       9.957  12.220  21.265  0.00  0.00    +0.000 C 
ATOM      9  C   UNL     1       9.494  11.675  19.973  0.00  0.00    +0.000 A 
ATOM     10  N   UNL     1       9.196  12.441  18.922  0.00  0.00    +0.000 NA
ATOM     11  O   UNL     1       8.833  11.513  17.937  0.00  0.00    +0.000 OA
ATOM     12  C   UNL     1       8.975  10.271  18.507  0.00  0.00    +0.000 A 
ATOM     13  N   UNL     1       9.353  10.319  19.759  0.00  0.00    +0.000 NA
ENDBRANCH   7  12
ENDBRANCH   1   7
BRANCH   4  14
ATOM     14  C   UNL     1       6.252   4.907  17.699  0.00  0.00    +0.000 C 
BRANCH  14  15
ATOM     15  C   UNL     1       4.881   4.986  16.949  0.00  0.00    +0.000 C 
ATOM     16  C   UNL     1       5.195   4.496  15.501  0.00  0.00    +0.000 C 
ATOM     17  C   UNL     1       4.372   6.444  16.778  0.00  0.00    +0.000 C 
ATOM     18  C   UNL     1       3.491   6.927  17.919  0.00  0.00    +0.000 C 
ATOM     19  C   UNL     1       2.257   6.045  18.035  0.00  0.00    +0.000 C 
ATOM     20  C   UNL     1       2.597   4.577  18.074  0.00  0.00    +0.000 A 
ATOM     21  C   UNL     1       1.619   3.696  18.573  0.00  0.00    +0.000 A 
ATOM     22  C   UNL     1       1.847   2.324  18.618  0.00  0.00    +0.000 A 
ATOM     23  C   UNL     1       3.054   1.817  18.158  0.00  0.00    +0.000 A 
ATOM     24  C   UNL     1       4.026   2.678  17.644  0.00  0.00    +0.000 A 
ATOM     25  C   UNL     1       3.816   4.070  17.576  0.00  0.00    +0.000 A 
ENDBRANCH  14  15
ENDBRANCH   4  14
TORSDOF 4
ENDMDL
MODEL 3
REMARK VINA RESULT:      -8.2      3.919      7.563
REMARK  Name = 
REMARK  6 active torsions:
REMARK  status: ('A' for Active; 'I' for Inactive)
REMARK    1  A    between atoms: C_1  and  C_2
REMARK    2  A    between atoms: C_5  and  C_6
REMARK    3  A    between atoms: C_6  and  N_7
REMARK    4  A    between atoms: N_10  and  C_11
REMARK    5  A    between atoms: C_11  and  C_12
REMARK    6  A    between atoms: C_12  and  C_13
REMARK                            x       y       z     vdW  Elec       q    Type
REMARK                         _______ _______ _______ _____ _____    ______ ____
ROOT
ATOM      1  N   UNL     1       1.869   7.624  20.022  0.00  0.00    +0.000 N 
ATOM      2  C   UNL     1       2.307   7.023  18.870  0.00  0.00    +0.000 C 
ATOM      3  O   UNL     1       2.519   7.651  17.837  0.00  0.00    +0.000 OA
ATOM      4  N   UNL     1       2.487   5.654  18.987  0.00  0.00    +0.000 N 
ATOM      5  H   UNL     1       1.319   7.059  20.658  0.00  0.00    +0.000 HD
ATOM      6  H   UNL     1       2.818   5.330  19.889  0.00  0.00    +0.000 HD
ENDROOT
BRANCH   1   7
ATOM      7  C   UNL     1       1.609   9.063  19.973  0.00  0.00    +0.000 C 
BRANCH   7  12
ATOM      8  C   UNL     1      -1.539  11.151  23.171  0.00  0.00    +0.000 C 
ATOM      9  C   UNL     1      -0.409  10.394  22.599  0.00  0.00    +0.000 A 
ATOM     10  N   UNL     1       0.462   9.709  23.343  0.00  0.00    +0.000 NA
ATOM     11  O   UNL     1       1.326   9.146  22.394  0.00  0.00    +0.000 OA
ATOM     12  C   UNL     1       0.860   9.544  21.164  0.00  0.00    +0.000 A 
ATOM     13  N   UNL     1      -0.184  10.329  21.239  0.00  0.00    +0.000 NA
ENDBRANCH   7  12
ENDBRANCH   1   7
BRANCH   4  14
ATOM     14  C   UNL     1       2.980   4.972  17.798  0.00  0.00    +0.000 C 
BRANCH  14  15
ATOM     15  C   UNL     1       4.278   4.101  17.872  0.00  0.00    +0.000 C 
ATOM     16  C   UNL     1       3.768   2.627  17.818  0.00  0.00    +0.000 C 
ATOM     17  C   UNL     1       5.008   4.224  19.238  0.00  0.00    +0.000 C 
ATOM     18  C   UNL     1       6.049   5.332  19.284  0.00  0.00    +0.000 C 
ATOM     19  C   UNL     1       7.123   5.080  18.237  0.00  0.00    +0.000 C 
ATOM     20  C   UNL     1       6.548   4.808  16.871  0.00  0.00    +0.000 A 
ATOM     21  C   UNL     1       7.402   4.957  15.762  0.00  0.00    +0.000 A 
ATOM     22  C   UNL     1       6.953   4.700  14.472  0.00  0.00    +0.000 A 
ATOM     23  C   UNL     1       5.644   4.282  14.274  0.00  0.00    +0.000 A 
ATOM     24  C   UNL     1       4.791   4.112  15.367  0.00  0.00    +0.000 A 
ATOM     25  C   UNL     1       5.224   4.355  16.686  0.00  0.00    +0.000 A 
ENDBRANCH  14  15
ENDBRANCH   4  14
TORSDOF 4
ENDMDL
MODEL 4
REMARK VINA RESULT:      -8.1      1.535      2.524
REMARK  Name = 
REMARK  6 active torsions:
REMARK  status: ('A' for Active; 'I' for Inactive)
REMARK    1  A    between atoms: C_1  and  C_2
REMARK    2  A    between atoms: C_5  and  C_6
REMARK    3  A    between atoms: C_6  and  N_7
REMARK    4  A    between atoms: N_10  and  C_11
REMARK    5  A    between atoms: C_11  and  C_12
REMARK    6  A    between atoms: C_12  and  C_13
REMARK                            x       y       z     vdW  Elec       q    Type
REMARK                         _______ _______ _______ _____ _____    ______ ____
ROOT
ATOM      1  N   UNL     1       6.272   4.099  18.143  0.00  0.00    +0.000 N 
ATOM      2  C   UNL     1       5.573   5.139  18.701  0.00  0.00    +0.000 C 
ATOM      3  O   UNL     1       5.874   6.314  18.510  0.00  0.00    +0.000 OA
ATOM      4  N   UNL     1       4.507   4.738  19.489  0.00  0.00    +0.000 N 
ATOM      5  H   UNL     1       6.273   3.220  18.647  0.00  0.00    +0.000 HD
ATOM      6  H   UNL     1       4.019   3.905  19.178  0.00  0.00    +0.000 HD
ENDROOT
BRANCH   1   7
ATOM      7  C   UNL     1       7.443   4.434  17.332  0.00  0.00    +0.000 C 
BRANCH   7  12
ATOM      8  C   UNL     1       5.783   3.613  12.742  0.00  0.00    +0.000 C 
ATOM      9  C   UNL     1       6.502   4.182  13.899  0.00  0.00    +0.000 A 
ATOM     10  N   UNL     1       7.285   5.259  13.814  0.00  0.00    +0.000 NA
ATOM     11  O   UNL     1       7.728   5.442  15.130  0.00  0.00    +0.000 OA
ATOM     12  C   UNL     1       7.137   4.452  15.877  0.00  0.00    +0.000 A 
ATOM     13  N   UNL     1       6.398   3.641  15.164  0.00  0.00    +0.000 NA
ENDBRANCH   7  12
ENDBRANCH   1   7
BRANCH   4  14
ATOM     14  C   UNL     1       3.714   5.807  20.082  0.00  0.00    +0.000 C 
BRANCH  14  15
ATOM     15  C   UNL     1       2.362   6.241  19.424  0.00  0.00    +0.000 C 
ATOM     16  C   UNL     1       1.373   5.080  19.751  0.00  0.00    +0.000 C 
ATOM     17  C   UNL     1       2.434   6.282  17.872  0.00  0.00    +0.000 C 
ATOM     18  C   UNL     1       2.853   7.631  17.309  0.00  0.00    +0.000 C 
ATOM     19  C   UNL     1       1.858   8.702  17.728  0.00  0.00    +0.000 C 
ATOM     20  C   UNL     1       1.584   8.691  19.210  0.00  0.00    +0.000 A 
ATOM     21  C   UNL     1       1.017   9.848  19.776  0.00  0.00    +0.000 A 
ATOM     22  C   UNL     1       0.712   9.906  21.132  0.00  0.00    +0.000 A 
ATOM     23  C   UNL     1       0.965   8.804  21.937  0.00  0.00    +0.000 A 
ATOM     24  C   UNL     1       1.511   7.643  21.385  0.00  0.00    +0.000 A 
ATOM     25  C   UNL     1       1.818   7.554  20.013  0.00  0.00    +0.000 A 
ENDBRANCH  14  15
ENDBRANCH   4  14
TORSDOF 4
ENDMDL
MODEL 5
REMARK VINA RESULT:      -8.0      6.261      8.530
REMARK  Name = 
REMARK  6 active torsions:
REMARK  status: ('A' for Active; 'I' for Inactive)
REMARK    1  A    between atoms: C_1  and  C_2
REMARK    2  A    between atoms: C_5  and  C_6
REMARK    3  A    between atoms: C_6  and  N_7
REMARK    4  A    between atoms: N_10  and  C_11
REMARK    5  A    between atoms: C_11  and  C_12
REMARK    6  A    between atoms: C_12  and  C_13
REMARK                            x       y       z     vdW  Elec       q    Type
REMARK                         _______ _______ _______ _____ _____    ______ ____
ROOT
ATOM      1  N   UNL     1       8.145   6.758  18.897  0.00  0.00    +0.000 N 
ATOM      2  C   UNL     1       8.181   7.932  18.188  0.00  0.00    +0.000 C 
ATOM      3  O   UNL     1       7.756   8.023  17.040  0.00  0.00    +0.000 OA
ATOM      4  N   UNL     1       8.735   8.991  18.888  0.00  0.00    +0.000 N 
ATOM      5  H   UNL     1       8.855   6.625  19.606  0.00  0.00    +0.000 HD
ATOM      6  H   UNL     1       8.551   9.003  19.885  0.00  0.00    +0.000 HD
ENDROOT
BRANCH   1   7
ATOM      7  C   UNL     1       7.616   5.577  18.215  0.00  0.00    +0.000 C 
BRANCH   7  12
ATOM      8  C   UNL     1       2.670   5.704  18.367  0.00  0.00    +0.000 C 
ATOM      9  C   UNL     1       4.079   5.349  18.631  0.00  0.00    +0.000 A 
ATOM     10  N   UNL     1       4.442   4.368  19.460  0.00  0.00    +0.000 NA
ATOM     11  O   UNL     1       5.841   4.380  19.382  0.00  0.00    +0.000 OA
ATOM     12  C   UNL     1       6.169   5.368  18.485  0.00  0.00    +0.000 A 
ATOM     13  N   UNL     1       5.127   6.006  18.018  0.00  0.00    +0.000 NA
ENDBRANCH   7  12
ENDBRANCH   1   7
BRANCH   4  14
ATOM     14  C   UNL     1       8.770  10.269  18.189  0.00  0.00    +0.000 C 
BRANCH  14  15
ATOM     15  C   UNL     1       9.627  11.451  18.752  0.00  0.00    +0.000 C 
ATOM     16  C   UNL     1      10.785  11.625  17.722  0.00  0.00    +0.000 C 
ATOM     17  C   UNL     1      10.331  11.099  20.092  0.00  0.00    +0.000 C 
ATOM     18  C   UNL     1       9.510  11.435  21.327  0.00  0.00    +0.000 C 
ATOM     19  C   UNL     1       9.217  12.927  21.368  0.00  0.00    +0.000 C 
ATOM     20  C   UNL     1       8.648  13.441  20.070  0.00  0.00    +0.000 A 
ATOM     21  C   UNL     1       7.973  14.675  20.099  0.00  0.00    +0.000 A 
ATOM     22  C   UNL     1       7.443  15.229  18.938  0.00  0.00    +0.000 A 
ATOM     23  C   UNL     1       7.587  14.556  17.733  0.00  0.00    +0.000 A 
ATOM     24  C   UNL     1       8.271  13.339  17.687  0.00  0.00    +0.000 A 
ATOM     25  C   UNL     1       8.828  12.762  18.846  0.00  0.00    +0.000 A 
ENDBRANCH  14  15
ENDBRANCH   4  14
TORSDOF 4
ENDMDL
MODEL 6
REMARK VINA RESULT:      -8.0      4.924      6.300
REMARK  Name = 
REMARK  6 active torsions:
REMARK  status: ('A' for Active; 'I' for Inactive)
REMARK    1  A    between atoms: C_1  and  C_2
REMARK    2  A    between atoms: C_5  and  C_6
REMARK    3  A    between atoms: C_6  and  N_7
REMARK    4  A    between atoms: N_10  and  C_11
REMARK    5  A    between atoms: C_11  and  C_12
REMARK    6  A    between atoms: C_12  and  C_13
REMARK                            x       y       z     vdW  Elec       q    Type
REMARK                         _______ _______ _______ _____ _____    ______ ____
ROOT
ATOM      1  N   UNL     1       8.342   9.322  17.908  0.00  0.00    +0.000 N 
ATOM      2  C   UNL     1       7.998   8.002  18.051  0.00  0.00    +0.000 C 
ATOM      3  O   UNL     1       8.445   7.297  18.951  0.00  0.00    +0.000 OA
ATOM      4  N   UNL     1       7.106   7.549  17.092  0.00  0.00    +0.000 N 
ATOM      5  H   UNL     1       8.311   9.709  16.972  0.00  0.00    +0.000 HD
ATOM      6  H   UNL     1       6.417   8.224  16.780  0.00  0.00    +0.000 HD
ENDROOT
BRANCH   1   7
ATOM      7  C   UNL     1       9.316   9.869  18.853  0.00  0.00    +0.000 C 
BRANCH   7  12
ATOM      8  C   UNL     1      12.315  13.621  17.657  0.00  0.00    +0.000 C 
ATOM      9  C   UNL     1      11.120  12.770  17.817  0.00  0.00    +0.000 A 
ATOM     10  N   UNL     1       9.923  13.090  17.321  0.00  0.00    +0.000 NA
ATOM     11  O   UNL     1       9.119  12.004  17.690  0.00  0.00    +0.000 OA
ATOM     12  C   UNL     1       9.937  11.127  18.359  0.00  0.00    +0.000 A 
ATOM     13  N   UNL     1      11.165  11.563  18.485  0.00  0.00    +0.000 NA
ENDBRANCH   7  12
ENDBRANCH   1   7
BRANCH   4  14
ATOM     14  C   UNL     1       6.686   6.160  17.218  0.00  0.00    +0.000 C 
BRANCH  14  15
ATOM     15  C   UNL     1       5.218   5.747  16.869  0.00  0.00    +0.000 C 
ATOM     16  C   UNL     1       5.356   4.807  15.630  0.00  0.00    +0.000 C 
ATOM     17  C   UNL     1       4.358   6.943  16.372  0.00  0.00    +0.000 C 
ATOM     18  C   UNL     1       3.623   7.677  17.481  0.00  0.00    +0.000 C 
ATOM     19  C   UNL     1       2.675   6.725  18.195  0.00  0.00    +0.000 C 
ATOM     20  C   UNL     1       3.349   5.447  18.621  0.00  0.00    +0.000 A 
ATOM     21  C   UNL     1       2.718   4.677  19.616  0.00  0.00    +0.000 A 
ATOM     22  C   UNL     1       3.265   3.472  20.044  0.00  0.00    +0.000 A 
ATOM     23  C   UNL     1       4.447   3.018  19.476  0.00  0.00    +0.000 A 
ATOM     24  C   UNL     1       5.074   3.762  18.474  0.00  0.00    +0.000 A 
ATOM     25  C   UNL     1       4.536   4.981  18.014  0.00  0.00    +0.000 A 
ENDBRANCH  14  15
ENDBRANCH   4  14
TORSDOF 4
ENDMDL
MODEL 7
REMARK VINA RESULT:      -7.9      4.221      5.662
REMARK  Name = 
REMARK  6 active torsions:
REMARK  status: ('A' for Active; 'I' for Inactive)
REMARK    1  A    between atoms: C_1  and  C_2
REMARK    2  A    between atoms: C_5  and  C_6
REMARK    3  A    between atoms: C_6  and  N_7
REMARK    4  A    between atoms: N_10  and  C_11
REMARK    5  A    between atoms: C_11  and  C_12
REMARK    6  A    between atoms: C_12  and  C_13
REMARK                            x       y       z     vdW  Elec       q    Type
REMARK                         _______ _______ _______ _____ _____    ______ ____
ROOT
ATOM      1  N   UNL     1       7.966   7.936  18.454  0.00  0.00    +0.000 N 
ATOM      2  C   UNL     1       7.441   6.860  17.784  0.00  0.00    +0.000 C 
ATOM      3  O   UNL     1       7.481   6.761  16.561  0.00  0.00    +0.000 OA
ATOM      4  N   UNL     1       6.869   5.909  18.613  0.00  0.00    +0.000 N 
ATOM      5  H   UNL     1       7.544   8.176  19.343  0.00  0.00    +0.000 HD
ATOM      6  H   UNL     1       7.323   5.778  19.510  0.00  0.00    +0.000 HD
ENDROOT
BRANCH   1   7
ATOM      7  C   UNL     1       8.548   9.010  17.650  0.00  0.00    +0.000 C 
BRANCH   7  12
ATOM      8  C   UNL     1      10.061  12.159  21.157  0.00  0.00    +0.000 C 
ATOM      9  C   UNL     1       9.537  11.604  19.893  0.00  0.00    +0.000 A 
ATOM     10  N   UNL     1       9.223  12.360  18.839  0.00  0.00    +0.000 NA
ATOM     11  O   UNL     1       8.800  11.424  17.885  0.00  0.00    +0.000 OA
ATOM     12  C   UNL     1       8.929  10.189  18.473  0.00  0.00    +0.000 A 
ATOM     13  N   UNL     1       9.352  10.249  19.709  0.00  0.00    +0.000 NA
ENDBRANCH   7  12
ENDBRANCH   1   7
BRANCH   4  14
ATOM     14  C   UNL     1       6.323   4.732  17.951  0.00  0.00    +0.000 C 
BRANCH  14  15
ATOM     15  C   UNL     1       4.792   4.643  17.640  0.00  0.00    +0.000 C 
ATOM     16  C   UNL     1       4.670   3.504  16.580  0.00  0.00    +0.000 C 
ATOM     17  C   UNL     1       4.247   5.913  16.930  0.00  0.00    +0.000 C 
ATOM     18  C   UNL     1       3.737   6.982  17.883  0.00  0.00    +0.000 C 
ATOM     19  C   UNL     1       2.596   6.429  18.723  0.00  0.00    +0.000 C 
ATOM     20  C   UNL     1       2.939   5.113  19.372  0.00  0.00    +0.000 A 
ATOM     21  C   UNL     1       2.155   4.703  20.467  0.00  0.00    +0.000 A 
ATOM     22  C   UNL     1       2.394   3.489  21.103  0.00  0.00    +0.000 A 
ATOM     23  C   UNL     1       3.415   2.668  20.648  0.00  0.00    +0.000 A 
ATOM     24  C   UNL     1       4.189   3.054  19.551  0.00  0.00    +0.000 A 
ATOM     25  C   UNL     1       3.962   4.273  18.881  0.00  0.00    +0.000 A 
ENDBRANCH  14  15
ENDBRANCH   4  14
TORSDOF 4
ENDMDL
MODEL 8
REMARK VINA RESULT:      -7.9      3.939      7.295
REMARK  Name = 
REMARK  6 active torsions:
REMARK  status: ('A' for Active; 'I' for Inactive)
REMARK    1  A    between atoms: C_1  and  C_2
REMARK    2  A    between atoms: C_5  and  C_6
REMARK    3  A    between atoms: C_6  and  N_7
REMARK    4  A    between atoms: N_10  and  C_11
REMARK    5  A    between atoms: C_11  and  C_12
REMARK    6  A    between atoms: C_12  and  C_13
REMARK                            x       y       z     vdW  Elec       q    Type
REMARK                         _______ _______ _______ _____ _____    ______ ____
ROOT
ATOM      1  N   UNL     1       2.122   7.665  19.852  0.00  0.00    +0.000 N 
ATOM      2  C   UNL     1       2.180   6.353  19.457  0.00  0.00    +0.000 C 
ATOM      3  O   UNL     1       1.657   5.446  20.099  0.00  0.00    +0.000 OA
ATOM      4  N   UNL     1       2.877   6.154  18.276  0.00  0.00    +0.000 N 
ATOM      5  H   UNL     1       2.884   8.268  19.567  0.00  0.00    +0.000 HD
ATOM      6  H   UNL     1       2.789   6.892  17.586  0.00  0.00    +0.000 HD
ENDROOT
BRANCH   1   7
ATOM      7  C   UNL     1       1.443   7.957  21.115  0.00  0.00    +0.000 C 
BRANCH   7  12
ATOM      8  C   UNL     1      -1.461  11.883  20.301  0.00  0.00    +0.000 C 
ATOM      9  C   UNL     1      -0.396  11.002  20.820  0.00  0.00    +0.000 A 
ATOM     10  N   UNL     1       0.466  11.379  21.767  0.00  0.00    +0.000 NA
ATOM     11  O   UNL     1       1.260  10.240  21.953  0.00  0.00    +0.000 OA
ATOM     12  C   UNL     1       0.768   9.283  21.101  0.00  0.00    +0.000 A 
ATOM     13  N   UNL     1      -0.229   9.709  20.368  0.00  0.00    +0.000 NA
ENDBRANCH   7  12
ENDBRANCH   1   7
BRANCH   4  14
ATOM     14  C   UNL     1       2.943   4.780  17.798  0.00  0.00    +0.000 C 
BRANCH  14  15
ATOM     15  C   UNL     1       4.290   3.986  17.868  0.00  0.00    +0.000 C 
ATOM     16  C   UNL     1       3.867   2.486  17.801  0.00  0.00    +0.000 C 
ATOM     17  C   UNL     1       5.009   4.141  19.237  0.00  0.00    +0.000 C 
ATOM     18  C   UNL     1       5.983   5.307  19.295  0.00  0.00    +0.000 C 
ATOM     19  C   UNL     1       7.072   5.127  18.248  0.00  0.00    +0.000 C 
ATOM     20  C   UNL     1       6.516   4.833  16.878  0.00  0.00    +0.000 A 
ATOM     21  C   UNL     1       7.363   5.041  15.773  0.00  0.00    +0.000 A 
ATOM     22  C   UNL     1       6.932   4.768  14.479  0.00  0.00    +0.000 A 
ATOM     23  C   UNL     1       5.650   4.277  14.275  0.00  0.00    +0.000 A 
ATOM     24  C   UNL     1       4.806   4.048  15.364  0.00  0.00    +0.000 A 
ATOM     25  C   UNL     1       5.221   4.305  16.686  0.00  0.00    +0.000 A 
ENDBRANCH  14  15
ENDBRANCH   4  14
TORSDOF 4
ENDMDL
MODEL 9
REMARK VINA RESULT:      -7.7      6.637      8.965
REMARK  Name = 
REMARK  6 active torsions:
REMARK  status: ('A' for Active; 'I' for Inactive)
REMARK    1  A    between atoms: C_1  and  C_2
REMARK    2  A    between atoms: C_5  and  C_6
REMARK    3  A    between atoms: C_6  and  N_7
REMARK    4  A    between atoms: N_10  and  C_11
REMARK    5  A    between atoms: C_11  and  C_12
REMARK    6  A    between atoms: C_12  and  C_13
REMARK                            x       y       z     vdW  Elec       q    Type
REMARK                         _______ _______ _______ _____ _____    ______ ____
ROOT
ATOM      1  N   UNL     1       7.216   7.707  17.056  0.00  0.00    +0.000 N 
ATOM      2  C   UNL     1       8.028   8.309  17.983  0.00  0.00    +0.000 C 
ATOM      3  O   UNL     1       8.630   7.674  18.845  0.00  0.00    +0.000 OA
ATOM      4  N   UNL     1       8.103   9.686  17.852  0.00  0.00    +0.000 N 
ATOM      5  H   UNL     1       6.450   8.257  16.687  0.00  0.00    +0.000 HD
ATOM      6  H   UNL     1       8.064  10.039  16.902  0.00  0.00    +0.000 HD
ENDROOT
BRANCH   1   7
ATOM      7  C   UNL     1       7.045   6.257  17.153  0.00  0.00    +0.000 C 
BRANCH   7  12
ATOM      8  C   UNL     1       2.288   5.269  18.099  0.00  0.00    +0.000 C 
ATOM      9  C   UNL     1       3.746   5.445  18.247  0.00  0.00    +0.000 A 
ATOM     10  N   UNL     1       4.408   5.147  19.367  0.00  0.00    +0.000 NA
ATOM     11  O   UNL     1       5.738   5.448  19.046  0.00  0.00    +0.000 OA
ATOM     12  C   UNL     1       5.732   5.880  17.743  0.00  0.00    +0.000 A 
ATOM     13  N   UNL     1       4.534   5.921  17.219  0.00  0.00    +0.000 NA
ENDBRANCH   7  12
ENDBRANCH   1   7
BRANCH   4  14
ATOM     14  C   UNL     1       8.976  10.370  18.796  0.00  0.00    +0.000 C 
BRANCH  14  15
ATOM     15  C   UNL     1       9.509  11.807  18.476  0.00  0.00    +0.000 C 
ATOM     16  C   UNL     1       8.509  12.372  17.419  0.00  0.00    +0.000 C 
ATOM     17  C   UNL     1      10.887  11.792  17.759  0.00  0.00    +0.000 C 
ATOM     18  C   UNL     1      12.076  11.833  18.705  0.00  0.00    +0.000 C 
ATOM     19  C   UNL     1      12.033  13.104  19.540  0.00  0.00    +0.000 C 
ATOM     20  C   UNL     1      10.693  13.321  20.196  0.00  0.00    +0.000 A 
ATOM     21  C   UNL     1      10.638  14.209  21.286  0.00  0.00    +0.000 A 
ATOM     22  C   UNL     1       9.435  14.481  21.928  0.00  0.00    +0.000 A 
ATOM     23  C   UNL     1       8.269  13.874  21.482  0.00  0.00    +0.000 A 
ATOM     24  C   UNL     1       8.307  13.005  20.389  0.00  0.00    +0.000 A 
ATOM     25  C   UNL     1       9.510  12.720  19.713  0.00  0.00    +0.000 A 
ENDBRANCH  14  15
ENDBRANCH   4  14
TORSDOF 4
ENDMDL
