MODEL 1
REMARK VINA RESULT:      -8.2      0.000      0.000
REMARK  Name = 
REMARK  4 active torsions:
REMARK  status: ('A' for Active; 'I' for Inactive)
REMARK    1  A    between atoms: C_1  and  O_2
REMARK    2  A    between atoms: O_2  and  C_3
REMARK    3  A    between atoms: C_6  and  C_7
REMARK    4  A    between atoms: C_21  and  C_22
REMARK                            x       y       z     vdW  Elec       q    Type
REMARK                         _______ _______ _______ _____ _____    ______ ____
ROOT
ATOM      1  C   UNL     1       5.410   6.430  17.274  0.00  0.00    +0.000 C 
ATOM      2  C   UNL     1       4.010   6.107  17.768  0.00  0.00    +0.000 C 
ATOM      3  C   UNL     1       3.328   7.022  18.786  0.00  0.00    +0.000 C 
ATOM      4  O   UNL     1       2.105   6.416  19.304  0.00  0.00    +0.000 OA
ATOM      5  C   UNL     1       2.126   5.051  19.483  0.00  0.00    +0.000 A 
ATOM      6  C   UNL     1       0.963   4.436  19.935  0.00  0.00    +0.000 A 
ATOM      7  C   UNL     1       0.898   3.038  19.989  0.00  0.00    +0.000 A 
ATOM      8  C   UNL     1       1.997   2.268  19.600  0.00  0.00    +0.000 A 
ATOM      9  F   UNL     1       1.890   0.933  19.585  0.00  0.00    +0.000 F 
ATOM     10  C   UNL     1       3.187   2.859  19.204  0.00  0.00    +0.000 A 
ATOM     11  C   UNL     1       3.228   4.246  19.169  0.00  0.00    +0.000 A 
ATOM     12  C   UNL     1       4.362   4.976  18.673  0.00  0.00    +0.000 C 
ATOM     13  N   UNL     1       5.598   4.914  19.080  0.00  0.00    +0.000 NA
ATOM     14  N   UNL     1       6.229   5.934  18.388  0.00  0.00    +0.000 N 
ATOM     15  C   UNL     1       7.529   6.341  18.602  0.00  0.00    +0.000 C 
ATOM     16  C   UNL     1       8.305   5.535  19.606  0.00  0.00    +0.000 C 
ATOM     17  O   UNL     1       8.045   7.280  17.996  0.00  0.00    +0.000 OA
ENDROOT
BRANCH   1  21
ATOM     18  C   UNL     1       6.349   4.108  13.678  0.00  0.00    +0.000 A 
ATOM     19  C   UNL     1       5.082   4.044  14.260  0.00  0.00    +0.000 A 
ATOM     20  C   UNL     1       4.764   4.800  15.403  0.00  0.00    +0.000 A 
ATOM     21  C   UNL     1       5.726   5.627  15.992  0.00  0.00    +0.000 A 
ATOM     22  C   UNL     1       7.008   5.655  15.401  0.00  0.00    +0.000 A 
ATOM     23  C   UNL     1       7.320   4.910  14.265  0.00  0.00    +0.000 A 
BRANCH  18  25
ATOM     24  C   UNL     1       5.366   2.926  11.883  0.00  0.00    +0.000 C 
ATOM     25  O   UNL     1       6.547   3.332  12.570  0.00  0.00    +0.000 OA
ENDBRANCH  18  25
ENDBRANCH   1  21
TORSDOF 2
ENDMDL
MODEL 2
REMARK VINA RESULT:      -7.6      6.117      8.542
REMARK  Name = 
REMARK  4 active torsions:
REMARK  status: ('A' for Active; 'I' for Inactive)
REMARK    1  A    between atoms: C_1  and  O_2
REMARK    2  A    between atoms: O_2  and  C_3
REMARK    3  A    between atoms: C_6  and  C_7
REMARK    4  A    between atoms: C_21  and  C_22
REMARK                            x       y       z     vdW  Elec       q    Type
REMARK                         _______ _______ _______ _____ _____    ______ ____
ROOT
ATOM      1  C   UNL     1      -1.086  10.983  19.728  0.00  0.00    +0.000 C 
ATOM      2  C   UNL     1      -0.440   9.660  20.103  0.00  0.00    +0.000 C 
ATOM      3  C   UNL     1       0.138   9.461  21.505  0.00  0.00    +0.000 C 
ATOM      4  O   UNL     1       0.914   8.227  21.585  0.00  0.00    +0.000 OA
ATOM      5  C   UNL     1       1.640   7.886  20.465  0.00  0.00    +0.000 A 
ATOM      6  C   UNL     1       2.357   6.694  20.493  0.00  0.00    +0.000 A 
ATOM      7  C   UNL     1       2.986   6.240  19.327  0.00  0.00    +0.000 A 
ATOM      8  C   UNL     1       2.902   6.984  18.148  0.00  0.00    +0.000 A 
ATOM      9  F   UNL     1       3.444   6.498  17.025  0.00  0.00    +0.000 F 
ATOM     10  C   UNL     1       2.245   8.205  18.111  0.00  0.00    +0.000 A 
ATOM     11  C   UNL     1       1.637   8.636  19.283  0.00  0.00    +0.000 A 
ATOM     12  C   UNL     1       0.834   9.826  19.348  0.00  0.00    +0.000 C 
ATOM     13  N   UNL     1       1.175  11.043  19.034  0.00  0.00    +0.000 NA
ATOM     14  N   UNL     1       0.096  11.808  19.444  0.00  0.00    +0.000 N 
ATOM     15  C   UNL     1       0.065  13.187  19.441  0.00  0.00    +0.000 C 
ATOM     16  C   UNL     1       1.276  13.863  18.863  0.00  0.00    +0.000 C 
ATOM     17  O   UNL     1      -0.897  13.836  19.852  0.00  0.00    +0.000 OA
ENDROOT
BRANCH   1  21
ATOM     18  C   UNL     1      -3.472  10.596  16.072  0.00  0.00    +0.000 A 
ATOM     19  C   UNL     1      -2.293   9.866  16.238  0.00  0.00    +0.000 A 
ATOM     20  C   UNL     1      -1.531   9.968  17.415  0.00  0.00    +0.000 A 
ATOM     21  C   UNL     1      -1.934  10.823  18.445  0.00  0.00    +0.000 A 
ATOM     22  C   UNL     1      -3.114  11.571  18.244  0.00  0.00    +0.000 A 
ATOM     23  C   UNL     1      -3.873  11.465  17.080  0.00  0.00    +0.000 A 
BRANCH  18  25
ATOM     24  C   UNL     1      -3.329   9.989  13.792  0.00  0.00    +0.000 C 
ATOM     25  O   UNL     1      -4.133  10.419  14.889  0.00  0.00    +0.000 OA
ENDBRANCH  18  25
ENDBRANCH   1  21
TORSDOF 2
ENDMDL
MODEL 3
REMARK VINA RESULT:      -7.4      3.048      6.879
REMARK  Name = 
REMARK  4 active torsions:
REMARK  status: ('A' for Active; 'I' for Inactive)
REMARK    1  A    between atoms: C_1  and  O_2
REMARK    2  A    between atoms: O_2  and  C_3
REMARK    3  A    between atoms: C_6  and  C_7
REMARK    4  A    between atoms: C_21  and  C_22
REMARK                            x       y       z     vdW  Elec       q    Type
REMARK                         _______ _______ _______ _____ _____    ______ ____
ROOT
ATOM      1  C   UNL     1       1.950   5.010  18.639  0.00  0.00    +0.000 C 
ATOM      2  C   UNL     1       3.211   4.992  17.792  0.00  0.00    +0.000 C 
ATOM      3  C   UNL     1       3.482   3.819  16.848  0.00  0.00    +0.000 C 
ATOM      4  O   UNL     1       4.839   3.875  16.312  0.00  0.00    +0.000 OA
ATOM      5  C   UNL     1       5.817   4.337  17.167  0.00  0.00    +0.000 A 
ATOM      6  C   UNL     1       7.113   4.443  16.674  0.00  0.00    +0.000 A 
ATOM      7  C   UNL     1       8.102   5.044  17.462  0.00  0.00    +0.000 A 
ATOM      8  C   UNL     1       7.791   5.525  18.736  0.00  0.00    +0.000 A 
ATOM      9  F   UNL     1       8.730   6.166  19.444  0.00  0.00    +0.000 F 
ATOM     10  C   UNL     1       6.521   5.375  19.272  0.00  0.00    +0.000 A 
ATOM     11  C   UNL     1       5.561   4.768  18.474  0.00  0.00    +0.000 A 
ATOM     12  C   UNL     1       4.184   4.652  18.869  0.00  0.00    +0.000 C 
ATOM     13  N   UNL     1       3.699   4.092  19.940  0.00  0.00    +0.000 NA
ATOM     14  N   UNL     1       2.330   4.111  19.736  0.00  0.00    +0.000 N 
ATOM     15  C   UNL     1       1.406   3.493  20.554  0.00  0.00    +0.000 C 
ATOM     16  C   UNL     1       1.964   2.839  21.786  0.00  0.00    +0.000 C 
ATOM     17  O   UNL     1       0.198   3.496  20.319  0.00  0.00    +0.000 OA
ENDROOT
BRANCH   1  21
ATOM     18  C   UNL     1       1.284   9.036  20.237  0.00  0.00    +0.000 A 
ATOM     19  C   UNL     1       1.611   8.845  18.893  0.00  0.00    +0.000 A 
ATOM     20  C   UNL     1       1.808   7.556  18.366  0.00  0.00    +0.000 A 
ATOM     21  C   UNL     1       1.693   6.432  19.189  0.00  0.00    +0.000 A 
ATOM     22  C   UNL     1       1.387   6.651  20.550  0.00  0.00    +0.000 A 
ATOM     23  C   UNL     1       1.187   7.928  21.070  0.00  0.00    +0.000 A 
BRANCH  18  25
ATOM     24  C   UNL     1       0.898  11.279  19.598  0.00  0.00    +0.000 C 
ATOM     25  O   UNL     1       1.115  10.331  20.641  0.00  0.00    +0.000 OA
ENDBRANCH  18  25
ENDBRANCH   1  21
TORSDOF 2
ENDMDL
MODEL 4
REMARK VINA RESULT:      -7.3      8.226     10.429
REMARK  Name = 
REMARK  4 active torsions:
REMARK  status: ('A' for Active; 'I' for Inactive)
REMARK    1  A    between atoms: C_1  and  O_2
REMARK    2  A    between atoms: O_2  and  C_3
REMARK    3  A    between atoms: C_6  and  C_7
REMARK    4  A    between atoms: C_21  and  C_22
REMARK                            x       y       z     vdW  Elec       q    Type
REMARK                         _______ _______ _______ _____ _____    ______ ____
ROOT
ATOM      1  C   UNL     1      -0.046  11.524  19.891  0.00  0.00    +0.000 C 
ATOM      2  C   UNL     1      -0.473  12.638  20.831  0.00  0.00    +0.000 C 
ATOM      3  C   UNL     1       0.572  13.377  21.668  0.00  0.00    +0.000 C 
ATOM      4  O   UNL     1      -0.060  14.233  22.667  0.00  0.00    +0.000 OA
ATOM      5  C   UNL     1      -1.216  13.753  23.242  0.00  0.00    +0.000 A 
ATOM      6  C   UNL     1      -1.867  14.563  24.166  0.00  0.00    +0.000 A 
ATOM      7  C   UNL     1      -3.119  14.177  24.661  0.00  0.00    +0.000 A 
ATOM      8  C   UNL     1      -3.704  12.982  24.236  0.00  0.00    +0.000 A 
ATOM      9  F   UNL     1      -4.934  12.666  24.660  0.00  0.00    +0.000 F 
ATOM     10  C   UNL     1      -3.047  12.129  23.362  0.00  0.00    +0.000 A 
ATOM     11  C   UNL     1      -1.804  12.531  22.894  0.00  0.00    +0.000 A 
ATOM     12  C   UNL     1      -1.072  11.792  21.902  0.00  0.00    +0.000 C 
ATOM     13  N   UNL     1      -0.692  10.547  21.946  0.00  0.00    +0.000 NA
ATOM     14  N   UNL     1       0.112  10.404  20.827  0.00  0.00    +0.000 N 
ATOM     15  C   UNL     1       0.856   9.280  20.535  0.00  0.00    +0.000 C 
ATOM     16  C   UNL     1       0.684   8.123  21.478  0.00  0.00    +0.000 C 
ATOM     17  O   UNL     1       1.593   9.203  19.551  0.00  0.00    +0.000 OA
ENDROOT
BRANCH   1  21
ATOM     18  C   UNL     1      -3.235  10.701  17.000  0.00  0.00    +0.000 A 
ATOM     19  C   UNL     1      -2.009  10.036  16.921  0.00  0.00    +0.000 A 
ATOM     20  C   UNL     1      -0.986  10.279  17.856  0.00  0.00    +0.000 A 
ATOM     21  C   UNL     1      -1.174  11.210  18.882  0.00  0.00    +0.000 A 
ATOM     22  C   UNL     1      -2.411  11.888  18.925  0.00  0.00    +0.000 A 
ATOM     23  C   UNL     1      -3.426  11.643  18.003  0.00  0.00    +0.000 A 
BRANCH  18  25
ATOM     24  C   UNL     1      -3.633  10.165  14.732  0.00  0.00    +0.000 C 
ATOM     25  O   UNL     1      -4.156  10.387  16.040  0.00  0.00    +0.000 OA
ENDBRANCH  18  25
ENDBRANCH   1  21
TORSDOF 2
ENDMDL
MODEL 5
REMARK VINA RESULT:      -7.3      3.068      6.967
REMARK  Name = 
REMARK  4 active torsions:
REMARK  status: ('A' for Active; 'I' for Inactive)
REMARK    1  A    between atoms: C_1  and  O_2
REMARK    2  A    between atoms: O_2  and  C_3
REMARK    3  A    between atoms: C_6  and  C_7
REMARK    4  A    between atoms: C_21  and  C_22
REMARK                            x       y       z     vdW  Elec       q    Type
REMARK                         _______ _______ _______ _____ _____    ______ ____
ROOT
ATOM      1  C   UNL     1       1.957   5.130  18.635  0.00  0.00    +0.000 C 
ATOM      2  C   UNL     1       3.219   5.087  17.791  0.00  0.00    +0.000 C 
ATOM      3  C   UNL     1       3.458   3.922  16.830  0.00  0.00    +0.000 C 
ATOM      4  O   UNL     1       4.818   3.945  16.300  0.00  0.00    +0.000 OA
ATOM      5  C   UNL     1       5.806   4.362  17.164  0.00  0.00    +0.000 A 
ATOM      6  C   UNL     1       7.107   4.436  16.678  0.00  0.00    +0.000 A 
ATOM      7  C   UNL     1       8.111   4.994  17.479  0.00  0.00    +0.000 A 
ATOM      8  C   UNL     1       7.810   5.464  18.759  0.00  0.00    +0.000 A 
ATOM      9  F   UNL     1       8.765   6.064  19.481  0.00  0.00    +0.000 F 
ATOM     10  C   UNL     1       6.534   5.345  19.289  0.00  0.00    +0.000 A 
ATOM     11  C   UNL     1       5.559   4.780  18.478  0.00  0.00    +0.000 A 
ATOM     12  C   UNL     1       4.177   4.700  18.866  0.00  0.00    +0.000 C 
ATOM     13  N   UNL     1       3.671   4.138  19.927  0.00  0.00    +0.000 NA
ATOM     14  N   UNL     1       2.304   4.203  19.719  0.00  0.00    +0.000 N 
ATOM     15  C   UNL     1       1.359   3.600  20.523  0.00  0.00    +0.000 C 
ATOM     16  C   UNL     1       1.891   2.910  21.747  0.00  0.00    +0.000 C 
ATOM     17  O   UNL     1       0.152   3.644  20.284  0.00  0.00    +0.000 OA
ENDROOT
BRANCH   1  21
ATOM     18  C   UNL     1       1.282   9.160  20.219  0.00  0.00    +0.000 A 
ATOM     19  C   UNL     1       1.198   8.041  21.051  0.00  0.00    +0.000 A 
ATOM     20  C   UNL     1       1.432   6.745  20.556  0.00  0.00    +0.000 A 
ATOM     21  C   UNL     1       1.741   6.550  19.207  0.00  0.00    +0.000 A 
ATOM     22  C   UNL     1       1.794   7.693  18.380  0.00  0.00    +0.000 A 
ATOM     23  C   UNL     1       1.569   8.977  18.872  0.00  0.00    +0.000 A 
BRANCH  18  25
ATOM     24  C   UNL     1      -0.049  10.397  21.731  0.00  0.00    +0.000 C 
ATOM     25  O   UNL     1       1.036  10.370  20.806  0.00  0.00    +0.000 OA
ENDBRANCH  18  25
ENDBRANCH   1  21
TORSDOF 2
ENDMDL
MODEL 6
REMARK VINA RESULT:      -7.2      8.345     10.019
REMARK  Name = 
REMARK  4 active torsions:
REMARK  status: ('A' for Active; 'I' for Inactive)
REMARK    1  A    between atoms: C_1  and  O_2
REMARK    2  A    between atoms: O_2  and  C_3
REMARK    3  A    between atoms: C_6  and  C_7
REMARK    4  A    between atoms: C_21  and  C_22
REMARK                            x       y       z     vdW  Elec       q    Type
REMARK                         _______ _______ _______ _____ _____    ______ ____
ROOT
ATOM      1  C   UNL     1      -0.722  12.226  20.635  0.00  0.00    +0.000 C 
ATOM      2  C   UNL     1      -1.864  12.374  19.645  0.00  0.00    +0.000 C 
ATOM      3  C   UNL     1      -3.312  12.249  20.122  0.00  0.00    +0.000 C 
ATOM      4  O   UNL     1      -4.236  12.185  18.993  0.00  0.00    +0.000 OA
ATOM      5  C   UNL     1      -3.796  11.504  17.879  0.00  0.00    +0.000 A 
ATOM      6  C   UNL     1      -4.635  11.461  16.771  0.00  0.00    +0.000 A 
ATOM      7  C   UNL     1      -4.167  10.908  15.572  0.00  0.00    +0.000 A 
ATOM      8  C   UNL     1      -2.870  10.395  15.495  0.00  0.00    +0.000 A 
ATOM      9  F   UNL     1      -2.412   9.941  14.321  0.00  0.00    +0.000 F 
ATOM     10  C   UNL     1      -2.037  10.372  16.603  0.00  0.00    +0.000 A 
ATOM     11  C   UNL     1      -2.529  10.918  17.781  0.00  0.00    +0.000 A 
ATOM     12  C   UNL     1      -1.728  11.054  18.966  0.00  0.00    +0.000 C 
ATOM     13  N   UNL     1      -1.096  10.122  19.621  0.00  0.00    +0.000 NA
ATOM     14  N   UNL     1      -0.638  10.765  20.759  0.00  0.00    +0.000 N 
ATOM     15  C   UNL     1      -0.027  10.135  21.823  0.00  0.00    +0.000 C 
ATOM     16  C   UNL     1       0.215   8.662  21.656  0.00  0.00    +0.000 C 
ATOM     17  O   UNL     1       0.331  10.734  22.838  0.00  0.00    +0.000 OA
ENDROOT
BRANCH   1  21
ATOM     18  C   UNL     1       2.958  13.849  18.895  0.00  0.00    +0.000 A 
ATOM     19  C   UNL     1       2.782  13.803  20.279  0.00  0.00    +0.000 A 
ATOM     20  C   UNL     1       1.612  13.266  20.848  0.00  0.00    +0.000 A 
ATOM     21  C   UNL     1       0.589  12.778  20.030  0.00  0.00    +0.000 A 
ATOM     22  C   UNL     1       0.779  12.859  18.633  0.00  0.00    +0.000 A 
ATOM     23  C   UNL     1       1.940  13.386  18.071  0.00  0.00    +0.000 A 
BRANCH  18  25
ATOM     24  C   UNL     1       4.008  15.397  17.449  0.00  0.00    +0.000 C 
ATOM     25  O   UNL     1       4.132  14.392  18.452  0.00  0.00    +0.000 OA
ENDBRANCH  18  25
ENDBRANCH   1  21
TORSDOF 2
ENDMDL
MODEL 7
REMARK VINA RESULT:      -6.9      9.164     11.552
REMARK  Name = 
REMARK  4 active torsions:
REMARK  status: ('A' for Active; 'I' for Inactive)
REMARK    1  A    between atoms: C_1  and  O_2
REMARK    2  A    between atoms: O_2  and  C_3
REMARK    3  A    between atoms: C_6  and  C_7
REMARK    4  A    between atoms: C_21  and  C_22
REMARK                            x       y       z     vdW  Elec       q    Type
REMARK                         _______ _______ _______ _____ _____    ______ ____
ROOT
ATOM      1  C   UNL     1       0.543  12.249  20.158  0.00  0.00    +0.000 C 
ATOM      2  C   UNL     1       1.254  13.352  19.392  0.00  0.00    +0.000 C 
ATOM      3  C   UNL     1       2.573  13.920  19.918  0.00  0.00    +0.000 C 
ATOM      4  O   UNL     1       2.964  15.117  19.178  0.00  0.00    +0.000 OA
ATOM      5  C   UNL     1       1.943  15.951  18.779  0.00  0.00    +0.000 A 
ATOM      6  C   UNL     1       2.278  17.078  18.036  0.00  0.00    +0.000 A 
ATOM      7  C   UNL     1       1.261  17.869  17.487  0.00  0.00    +0.000 A 
ATOM      8  C   UNL     1      -0.079  17.534  17.693  0.00  0.00    +0.000 A 
ATOM      9  F   UNL     1      -1.036  18.256  17.097  0.00  0.00    +0.000 F 
ATOM     10  C   UNL     1      -0.438  16.451  18.481  0.00  0.00    +0.000 A 
ATOM     11  C   UNL     1       0.590  15.688  19.020  0.00  0.00    +0.000 A 
ATOM     12  C   UNL     1       0.352  14.480  19.762  0.00  0.00    +0.000 C 
ATOM     13  N   UNL     1      -0.374  14.323  20.831  0.00  0.00    +0.000 NA
ATOM     14  N   UNL     1      -0.120  13.018  21.219  0.00  0.00    +0.000 N 
ATOM     15  C   UNL     1      -0.566  12.447  22.393  0.00  0.00    +0.000 C 
ATOM     16  C   UNL     1      -1.460  13.311  23.237  0.00  0.00    +0.000 C 
ATOM     17  O   UNL     1      -0.286  11.296  22.725  0.00  0.00    +0.000 OA
ENDROOT
BRANCH   1  21
ATOM     18  C   UNL     1      -2.465  10.385  17.573  0.00  0.00    +0.000 A 
ATOM     19  C   UNL     1      -1.150   9.916  17.593  0.00  0.00    +0.000 A 
ATOM     20  C   UNL     1      -0.182  10.495  18.433  0.00  0.00    +0.000 A 
ATOM     21  C   UNL     1      -0.518  11.571  19.261  0.00  0.00    +0.000 A 
ATOM     22  C   UNL     1      -1.847  12.044  19.204  0.00  0.00    +0.000 A 
ATOM     23  C   UNL     1      -2.807  11.467  18.375  0.00  0.00    +0.000 A 
BRANCH  18  25
ATOM     24  C   UNL     1      -3.047   9.919  15.330  0.00  0.00    +0.000 C 
ATOM     25  O   UNL     1      -3.322   9.749  16.718  0.00  0.00    +0.000 OA
ENDBRANCH  18  25
ENDBRANCH   1  21
TORSDOF 2
ENDMDL
MODEL 8
REMARK VINA RESULT:      -6.8      9.422     11.529
REMARK  Name = 
REMARK  4 active torsions:
REMARK  status: ('A' for Active; 'I' for Inactive)
REMARK    1  A    between atoms: C_1  and  O_2
REMARK    2  A    between atoms: O_2  and  C_3
REMARK    3  A    between atoms: C_6  and  C_7
REMARK    4  A    between atoms: C_21  and  C_22
REMARK                            x       y       z     vdW  Elec       q    Type
REMARK                         _______ _______ _______ _____ _____    ______ ____
ROOT
ATOM      1  C   UNL     1      -0.978  12.481  20.733  0.00  0.00    +0.000 C 
ATOM      2  C   UNL     1      -1.911  13.593  21.182  0.00  0.00    +0.000 C 
ATOM      3  C   UNL     1      -1.392  14.705  22.095  0.00  0.00    +0.000 C 
ATOM      4  O   UNL     1      -2.487  15.529  22.598  0.00  0.00    +0.000 OA
ATOM      5  C   UNL     1      -3.666  14.876  22.879  0.00  0.00    +0.000 A 
ATOM      6  C   UNL     1      -4.743  15.638  23.320  0.00  0.00    +0.000 A 
ATOM      7  C   UNL     1      -5.998  15.035  23.474  0.00  0.00    +0.000 A 
ATOM      8  C   UNL     1      -6.163  13.676  23.197  0.00  0.00    +0.000 A 
ATOM      9  F   UNL     1      -7.385  13.134  23.276  0.00  0.00    +0.000 F 
ATOM     10  C   UNL     1      -5.092  12.883  22.816  0.00  0.00    +0.000 A 
ATOM     11  C   UNL     1      -3.858  13.503  22.679  0.00  0.00    +0.000 A 
ATOM     12  C   UNL     1      -2.695  12.817  22.185  0.00  0.00    +0.000 C 
ATOM     13  N   UNL     1      -2.140  11.737  22.653  0.00  0.00    +0.000 NA
ATOM     14  N   UNL     1      -0.973  11.615  21.918  0.00  0.00    +0.000 N 
ATOM     15  C   UNL     1       0.015  10.684  22.164  0.00  0.00    +0.000 C 
ATOM     16  C   UNL     1      -0.276   9.700  23.260  0.00  0.00    +0.000 C 
ATOM     17  O   UNL     1       1.060  10.631  21.514  0.00  0.00    +0.000 OA
ENDROOT
BRANCH   1  21
ATOM     18  C   UNL     1      -2.699  10.394  17.285  0.00  0.00    +0.000 A 
ATOM     19  C   UNL     1      -1.399  10.117  17.713  0.00  0.00    +0.000 A 
ATOM     20  C   UNL     1      -0.845  10.767  18.830  0.00  0.00    +0.000 A 
ATOM     21  C   UNL     1      -1.586  11.723  19.531  0.00  0.00    +0.000 A 
ATOM     22  C   UNL     1      -2.888  12.006  19.063  0.00  0.00    +0.000 A 
ATOM     23  C   UNL     1      -3.439  11.357  17.960  0.00  0.00    +0.000 A 
BRANCH  18  25
ATOM     24  C   UNL     1      -3.166  10.440  14.968  0.00  0.00    +0.000 C 
ATOM     25  O   UNL     1      -3.136   9.704  16.189  0.00  0.00    +0.000 OA
ENDBRANCH  18  25
ENDBRANCH   1  21
TORSDOF 2
ENDMDL
MODEL 9
REMARK VINA RESULT:      -6.8      8.983     11.488
REMARK  Name = 
REMARK  4 active torsions:
REMARK  status: ('A' for Active; 'I' for Inactive)
REMARK    1  A    between atoms: C_1  and  O_2
REMARK    2  A    between atoms: O_2  and  C_3
REMARK    3  A    between atoms: C_6  and  C_7
REMARK    4  A    between atoms: C_21  and  C_22
REMARK                            x       y       z     vdW  Elec       q    Type
REMARK                         _______ _______ _______ _____ _____    ______ ____
ROOT
ATOM      1  C   UNL     1       0.752  12.330  19.798  0.00  0.00    +0.000 C 
ATOM      2  C   UNL     1       1.384  13.525  19.105  0.00  0.00    +0.000 C 
ATOM      3  C   UNL     1       2.657  14.154  19.675  0.00  0.00    +0.000 C 
ATOM      4  O   UNL     1       2.964  15.418  19.011  0.00  0.00    +0.000 OA
ATOM      5  C   UNL     1       1.887  16.199  18.653  0.00  0.00    +0.000 A 
ATOM      6  C   UNL     1       2.143  17.390  17.980  0.00  0.00    +0.000 A 
ATOM      7  C   UNL     1       1.073  18.136  17.470  0.00  0.00    +0.000 A 
ATOM      8  C   UNL     1      -0.240  17.694  17.644  0.00  0.00    +0.000 A 
ATOM      9  F   UNL     1      -1.244  18.380  17.084  0.00  0.00    +0.000 F 
ATOM     10  C   UNL     1      -0.523  16.543  18.364  0.00  0.00    +0.000 A 
ATOM     11  C   UNL     1       0.555  15.825  18.866  0.00  0.00    +0.000 A 
ATOM     12  C   UNL     1       0.402  14.561  19.532  0.00  0.00    +0.000 C 
ATOM     13  N   UNL     1      -0.316  14.288  20.584  0.00  0.00    +0.000 NA
ATOM     14  N   UNL     1       0.031  12.985  20.897  0.00  0.00    +0.000 N 
ATOM     15  C   UNL     1      -0.379  12.314  22.030  0.00  0.00    +0.000 C 
ATOM     16  C   UNL     1      -1.337  13.059  22.916  0.00  0.00    +0.000 C 
ATOM     17  O   UNL     1      -0.017  11.168  22.297  0.00  0.00    +0.000 OA
ENDROOT
BRANCH   1  21
ATOM     18  C   UNL     1      -2.118  10.307  17.175  0.00  0.00    +0.000 A 
ATOM     19  C   UNL     1      -2.324  11.628  17.576  0.00  0.00    +0.000 A 
ATOM     20  C   UNL     1      -1.399  12.293  18.402  0.00  0.00    +0.000 A 
ATOM     21  C   UNL     1      -0.253  11.632  18.853  0.00  0.00    +0.000 A 
ATOM     22  C   UNL     1      -0.079  10.288  18.456  0.00  0.00    +0.000 A 
ATOM     23  C   UNL     1      -0.993   9.632  17.633  0.00  0.00    +0.000 A 
BRANCH  18  25
ATOM     24  C   UNL     1      -3.197  10.333  15.073  0.00  0.00    +0.000 C 
ATOM     25  O   UNL     1      -3.080   9.760  16.373  0.00  0.00    +0.000 OA
ENDBRANCH  18  25
ENDBRANCH   1  21
TORSDOF 2
ENDMDL
