MODEL 1
REMARK VINA RESULT:      -8.0      0.000      0.000
REMARK  Name = 
REMARK  7 active torsions:
REMARK  status: ('A' for Active; 'I' for Inactive)
REMARK    1  A    between atoms: C_1  and  C_2
REMARK    2  A    between atoms: C_2  and  C_3
REMARK    3  A    between atoms: N_6  and  C_7
REMARK    4  A    between atoms: C_7  and  C_8
REMARK    5  A    between atoms: C_8  and  C_9
REMARK    6  A    between atoms: C_9  and  C_10
REMARK    7  A    between atoms: C_18  and  C_19
REMARK                            x       y       z     vdW  Elec       q    Type
REMARK                         _______ _______ _______ _____ _____    ______ ____
ROOT
ATOM      1  C   UNL     1       7.245   6.025  17.683  0.00  0.00    +0.000 A 
ATOM      2  N   UNL     1       6.401   5.121  18.221  0.00  0.00    +0.000 NA
ATOM      3  C   UNL     1       5.773   4.229  17.424  0.00  0.00    +0.000 A 
ATOM      4  N   UNL     1       4.940   3.270  17.974  0.00  0.00    +0.000 N 
ATOM      5  C   UNL     1       6.037   4.273  16.040  0.00  0.00    +0.000 A 
ATOM      6  C   UNL     1       5.596   3.480  14.924  0.00  0.00    +0.000 A 
ATOM      7  C   UNL     1       6.175   3.861  13.729  0.00  0.00    +0.000 A 
ATOM      8  C   UNL     1       6.006   3.264  12.375  0.00  0.00    +0.000 C 
ATOM      9  S   UNL     1       7.216   5.200  13.940  0.00  0.00    +0.000 S 
ATOM     10  C   UNL     1       6.926   5.247  15.618  0.00  0.00    +0.000 A 
ATOM     11  N   UNL     1       7.551   6.148  16.387  0.00  0.00    +0.000 NA
ATOM     12  H   UNL     1       4.279   2.844  17.339  0.00  0.00    +0.000 HD
ENDROOT
BRANCH   1  14
ATOM     13  C   UNL     1       8.164   8.309  18.038  0.00  0.00    +0.000 C 
ATOM     14  C   UNL     1       7.984   6.923  18.638  0.00  0.00    +0.000 C 
ENDBRANCH   1  14
BRANCH   4  15
ATOM     15  C   UNL     1       4.592   3.313  19.383  0.00  0.00    +0.000 C 
BRANCH  15  16
ATOM     16  C   UNL     1       3.211   2.722  19.671  0.00  0.00    +0.000 C 
BRANCH  16  17
ATOM     17  C   UNL     1       2.099   3.430  18.891  0.00  0.00    +0.000 C 
BRANCH  17  18
ATOM     18  C   UNL     1       2.091   4.921  19.114  0.00  0.00    +0.000 A 
ATOM     19  C   UNL     1       1.799   5.454  20.377  0.00  0.00    +0.000 A 
ATOM     20  C   UNL     1       1.820   6.832  20.587  0.00  0.00    +0.000 A 
ATOM     21  C   UNL     1       2.118   7.695  19.536  0.00  0.00    +0.000 A 
ATOM     22  C   UNL     1       2.395   7.181  18.271  0.00  0.00    +0.000 A 
ATOM     23  C   UNL     1       2.380   5.800  18.060  0.00  0.00    +0.000 A 
ENDBRANCH  17  18
ENDBRANCH  16  17
ENDBRANCH  15  16
ENDBRANCH   4  15
TORSDOF 5
ENDMDL
MODEL 2
REMARK VINA RESULT:      -7.6      1.304      1.920
REMARK  Name = 
REMARK  7 active torsions:
REMARK  status: ('A' for Active; 'I' for Inactive)
REMARK    1  A    between atoms: C_1  and  C_2
REMARK    2  A    between atoms: C_2  and  C_3
REMARK    3  A    between atoms: N_6  and  C_7
REMARK    4  A    between atoms: C_7  and  C_8
REMARK    5  A    between atoms: C_8  and  C_9
REMARK    6  A    between atoms: C_9  and  C_10
REMARK    7  A    between atoms: C_18  and  C_19
REMARK                            x       y       z     vdW  Elec       q    Type
REMARK                         _______ _______ _______ _____ _____    ______ ____
ROOT
ATOM      1  C   UNL     1       6.969   5.986  17.121  0.00  0.00    +0.000 A 
ATOM      2  N   UNL     1       5.819   5.389  17.495  0.00  0.00    +0.000 NA
ATOM      3  C   UNL     1       5.151   4.606  16.620  0.00  0.00    +0.000 A 
ATOM      4  N   UNL     1       3.994   3.954  17.012  0.00  0.00    +0.000 N 
ATOM      5  C   UNL     1       5.696   4.434  15.332  0.00  0.00    +0.000 A 
ATOM      6  C   UNL     1       5.297   3.664  14.184  0.00  0.00    +0.000 A 
ATOM      7  C   UNL     1       6.190   3.757  13.135  0.00  0.00    +0.000 A 
ATOM      8  C   UNL     1       6.148   3.080  11.808  0.00  0.00    +0.000 C 
ATOM      9  S   UNL     1       7.489   4.801  13.513  0.00  0.00    +0.000 S 
ATOM     10  C   UNL     1       6.883   5.099  15.077  0.00  0.00    +0.000 A 
ATOM     11  N   UNL     1       7.557   5.888  15.924  0.00  0.00    +0.000 NA
ATOM     12  H   UNL     1       3.388   3.646  16.264  0.00  0.00    +0.000 HD
ENDROOT
BRANCH   1  14
ATOM     13  C   UNL     1       7.906   8.206  17.736  0.00  0.00    +0.000 C 
ATOM     14  C   UNL     1       7.711   6.762  18.175  0.00  0.00    +0.000 C 
ENDBRANCH   1  14
BRANCH   4  15
ATOM     15  C   UNL     1       3.388   4.235  18.301  0.00  0.00    +0.000 C 
BRANCH  15  16
ATOM     16  C   UNL     1       2.474   5.461  18.272  0.00  0.00    +0.000 C 
BRANCH  16  17
ATOM     17  C   UNL     1       3.079   6.658  19.011  0.00  0.00    +0.000 C 
BRANCH  17  18
ATOM     18  C   UNL     1       2.127   7.822  19.113  0.00  0.00    +0.000 A 
ATOM     19  C   UNL     1       1.559   8.175  20.344  0.00  0.00    +0.000 A 
ATOM     20  C   UNL     1       0.701   9.270  20.440  0.00  0.00    +0.000 A 
ATOM     21  C   UNL     1       0.388  10.016  19.306  0.00  0.00    +0.000 A 
ATOM     22  C   UNL     1       0.934   9.666  18.072  0.00  0.00    +0.000 A 
ATOM     23  C   UNL     1       1.798   8.573  17.975  0.00  0.00    +0.000 A 
ENDBRANCH  17  18
ENDBRANCH  16  17
ENDBRANCH  15  16
ENDBRANCH   4  15
TORSDOF 5
ENDMDL
MODEL 3
REMARK VINA RESULT:      -7.6      3.012      7.252
REMARK  Name = 
REMARK  7 active torsions:
REMARK  status: ('A' for Active; 'I' for Inactive)
REMARK    1  A    between atoms: C_1  and  C_2
REMARK    2  A    between atoms: C_2  and  C_3
REMARK    3  A    between atoms: N_6  and  C_7
REMARK    4  A    between atoms: C_7  and  C_8
REMARK    5  A    between atoms: C_8  and  C_9
REMARK    6  A    between atoms: C_9  and  C_10
REMARK    7  A    between atoms: C_18  and  C_19
REMARK                            x       y       z     vdW  Elec       q    Type
REMARK                         _______ _______ _______ _____ _____    ______ ____
ROOT
ATOM      1  C   UNL     1       6.280   5.003  15.266  0.00  0.00    +0.000 A 
ATOM      2  N   UNL     1       6.877   5.969  15.992  0.00  0.00    +0.000 NA
ATOM      3  C   UNL     1       6.432   6.248  17.237  0.00  0.00    +0.000 A 
ATOM      4  N   UNL     1       7.068   7.209  18.005  0.00  0.00    +0.000 N 
ATOM      5  C   UNL     1       5.349   5.498  17.740  0.00  0.00    +0.000 A 
ATOM      6  C   UNL     1       4.654   5.488  18.999  0.00  0.00    +0.000 A 
ATOM      7  C   UNL     1       3.671   4.520  19.065  0.00  0.00    +0.000 A 
ATOM      8  C   UNL     1       2.774   4.173  20.202  0.00  0.00    +0.000 C 
ATOM      9  S   UNL     1       3.555   3.650  17.598  0.00  0.00    +0.000 S 
ATOM     10  C   UNL     1       4.830   4.533  16.894  0.00  0.00    +0.000 A 
ATOM     11  N   UNL     1       5.246   4.247  15.654  0.00  0.00    +0.000 NA
ATOM     12  H   UNL     1       6.530   7.586  18.774  0.00  0.00    +0.000 HD
ENDROOT
BRANCH   1  14
ATOM     13  C   UNL     1       6.020   3.681  13.176  0.00  0.00    +0.000 C 
ATOM     14  C   UNL     1       6.888   4.678  13.929  0.00  0.00    +0.000 C 
ENDBRANCH   1  14
BRANCH   4  15
ATOM     15  C   UNL     1       8.104   8.048  17.430  0.00  0.00    +0.000 C 
BRANCH  15  16
ATOM     16  C   UNL     1       8.081   9.476  17.976  0.00  0.00    +0.000 C 
BRANCH  16  17
ATOM     17  C   UNL     1       9.004   9.654  19.186  0.00  0.00    +0.000 C 
BRANCH  17  18
ATOM     18  C   UNL     1       9.885  10.872  19.072  0.00  0.00    +0.000 A 
ATOM     19  C   UNL     1      10.238  11.384  17.817  0.00  0.00    +0.000 A 
ATOM     20  C   UNL     1      11.029  12.528  17.716  0.00  0.00    +0.000 A 
ATOM     21  C   UNL     1      11.489  13.165  18.866  0.00  0.00    +0.000 A 
ATOM     22  C   UNL     1      11.158  12.657  20.121  0.00  0.00    +0.000 A 
ATOM     23  C   UNL     1      10.361  11.515  20.224  0.00  0.00    +0.000 A 
ENDBRANCH  17  18
ENDBRANCH  16  17
ENDBRANCH  15  16
ENDBRANCH   4  15
TORSDOF 5
ENDMDL
MODEL 4
REMARK VINA RESULT:      -7.5      0.564      1.137
REMARK  Name = 
REMARK  7 active torsions:
REMARK  status: ('A' for Active; 'I' for Inactive)
REMARK    1  A    between atoms: C_1  and  C_2
REMARK    2  A    between atoms: C_2  and  C_3
REMARK    3  A    between atoms: N_6  and  C_7
REMARK    4  A    between atoms: C_7  and  C_8
REMARK    5  A    between atoms: C_8  and  C_9
REMARK    6  A    between atoms: C_9  and  C_10
REMARK    7  A    between atoms: C_18  and  C_19
REMARK                            x       y       z     vdW  Elec       q    Type
REMARK                         _______ _______ _______ _____ _____    ______ ____
ROOT
ATOM      1  C   UNL     1       7.062   5.840  17.360  0.00  0.00    +0.000 A 
ATOM      2  N   UNL     1       6.146   4.954  17.800  0.00  0.00    +0.000 NA
ATOM      3  C   UNL     1       5.563   4.100  16.931  0.00  0.00    +0.000 A 
ATOM      4  N   UNL     1       4.655   3.158  17.383  0.00  0.00    +0.000 N 
ATOM      5  C   UNL     1       5.949   4.164  15.577  0.00  0.00    +0.000 A 
ATOM      6  C   UNL     1       5.584   3.409  14.408  0.00  0.00    +0.000 A 
ATOM      7  C   UNL     1       6.277   3.796  13.278  0.00  0.00    +0.000 A 
ATOM      8  C   UNL     1       6.209   3.232  11.901  0.00  0.00    +0.000 C 
ATOM      9  S   UNL     1       7.337   5.094  13.611  0.00  0.00    +0.000 S 
ATOM     10  C   UNL     1       6.902   5.116  15.257  0.00  0.00    +0.000 A 
ATOM     11  N   UNL     1       7.484   5.980  16.099  0.00  0.00    +0.000 NA
ATOM     12  H   UNL     1       4.039   2.768  16.683  0.00  0.00    +0.000 HD
ENDROOT
BRANCH   1  14
ATOM     13  C   UNL     1       7.962   8.102  17.869  0.00  0.00    +0.000 C 
ATOM     14  C   UNL     1       7.741   6.693  18.397  0.00  0.00    +0.000 C 
ENDBRANCH   1  14
BRANCH   4  15
ATOM     15  C   UNL     1       4.185   3.184  18.757  0.00  0.00    +0.000 C 
BRANCH  15  16
ATOM     16  C   UNL     1       2.765   2.636  18.908  0.00  0.00    +0.000 C 
BRANCH  16  17
ATOM     17  C   UNL     1       1.888   3.524  19.795  0.00  0.00    +0.000 C 
BRANCH  17  18
ATOM     18  C   UNL     1       2.028   4.990  19.472  0.00  0.00    +0.000 A 
ATOM     19  C   UNL     1       2.191   5.417  18.148  0.00  0.00    +0.000 A 
ATOM     20  C   UNL     1       2.292   6.775  17.849  0.00  0.00    +0.000 A 
ATOM     21  C   UNL     1       2.245   7.722  18.870  0.00  0.00    +0.000 A 
ATOM     22  C   UNL     1       2.099   7.310  20.194  0.00  0.00    +0.000 A 
ATOM     23  C   UNL     1       1.993   5.950  20.494  0.00  0.00    +0.000 A 
ENDBRANCH  17  18
ENDBRANCH  16  17
ENDBRANCH  15  16
ENDBRANCH   4  15
TORSDOF 5
ENDMDL
MODEL 5
REMARK VINA RESULT:      -7.5      3.033      7.183
REMARK  Name = 
REMARK  7 active torsions:
REMARK  status: ('A' for Active; 'I' for Inactive)
REMARK    1  A    between atoms: C_1  and  C_2
REMARK    2  A    between atoms: C_2  and  C_3
REMARK    3  A    between atoms: N_6  and  C_7
REMARK    4  A    between atoms: C_7  and  C_8
REMARK    5  A    between atoms: C_8  and  C_9
REMARK    6  A    between atoms: C_9  and  C_10
REMARK    7  A    between atoms: C_18  and  C_19
REMARK                            x       y       z     vdW  Elec       q    Type
REMARK                         _______ _______ _______ _____ _____    ______ ____
ROOT
ATOM      1  C   UNL     1       6.307   5.048  15.310  0.00  0.00    +0.000 A 
ATOM      2  N   UNL     1       6.934   5.947  16.095  0.00  0.00    +0.000 NA
ATOM      3  C   UNL     1       6.483   6.177  17.348  0.00  0.00    +0.000 A 
ATOM      4  N   UNL     1       7.149   7.066  18.175  0.00  0.00    +0.000 N 
ATOM      5  C   UNL     1       5.363   5.448  17.795  0.00  0.00    +0.000 A 
ATOM      6  C   UNL     1       4.650   5.399  19.044  0.00  0.00    +0.000 A 
ATOM      7  C   UNL     1       3.627   4.472  19.044  0.00  0.00    +0.000 A 
ATOM      8  C   UNL     1       2.700   4.102  20.150  0.00  0.00    +0.000 C 
ATOM      9  S   UNL     1       3.495   3.688  17.531  0.00  0.00    +0.000 S 
ATOM     10  C   UNL     1       4.816   4.553  16.892  0.00  0.00    +0.000 A 
ATOM     11  N   UNL     1       5.237   4.317  15.643  0.00  0.00    +0.000 NA
ATOM     12  H   UNL     1       6.617   7.423  18.957  0.00  0.00    +0.000 HD
ENDROOT
BRANCH   1  14
ATOM     13  C   UNL     1       6.130   3.700  13.228  0.00  0.00    +0.000 C 
ATOM     14  C   UNL     1       6.920   4.771  13.964  0.00  0.00    +0.000 C 
ENDBRANCH   1  14
BRANCH   4  15
ATOM     15  C   UNL     1       8.228   7.890  17.659  0.00  0.00    +0.000 C 
BRANCH  15  16
ATOM     16  C   UNL     1       8.019   9.380  17.936  0.00  0.00    +0.000 C 
BRANCH  16  17
ATOM     17  C   UNL     1       9.112   9.964  18.837  0.00  0.00    +0.000 C 
BRANCH  17  18
ATOM     18  C   UNL     1       9.660  11.268  18.316  0.00  0.00    +0.000 A 
ATOM     19  C   UNL     1       8.836  12.396  18.202  0.00  0.00    +0.000 A 
ATOM     20  C   UNL     1       9.354  13.607  17.746  0.00  0.00    +0.000 A 
ATOM     21  C   UNL     1      10.696  13.705  17.386  0.00  0.00    +0.000 A 
ATOM     22  C   UNL     1      11.523  12.587  17.479  0.00  0.00    +0.000 A 
ATOM     23  C   UNL     1      11.008  11.373  17.940  0.00  0.00    +0.000 A 
ENDBRANCH  17  18
ENDBRANCH  16  17
ENDBRANCH  15  16
ENDBRANCH   4  15
TORSDOF 5
ENDMDL
MODEL 6
REMARK VINA RESULT:      -7.4      1.361      2.344
REMARK  Name = 
REMARK  7 active torsions:
REMARK  status: ('A' for Active; 'I' for Inactive)
REMARK    1  A    between atoms: C_1  and  C_2
REMARK    2  A    between atoms: C_2  and  C_3
REMARK    3  A    between atoms: N_6  and  C_7
REMARK    4  A    between atoms: C_7  and  C_8
REMARK    5  A    between atoms: C_8  and  C_9
REMARK    6  A    between atoms: C_9  and  C_10
REMARK    7  A    between atoms: C_18  and  C_19
REMARK                            x       y       z     vdW  Elec       q    Type
REMARK                         _______ _______ _______ _____ _____    ______ ____
ROOT
ATOM      1  C   UNL     1       7.000   6.067  17.007  0.00  0.00    +0.000 A 
ATOM      2  N   UNL     1       5.823   5.547  17.408  0.00  0.00    +0.000 NA
ATOM      3  C   UNL     1       5.111   4.765  16.567  0.00  0.00    +0.000 A 
ATOM      4  N   UNL     1       3.923   4.191  16.987  0.00  0.00    +0.000 N 
ATOM      5  C   UNL     1       5.642   4.512  15.286  0.00  0.00    +0.000 A 
ATOM      6  C   UNL     1       5.198   3.717  14.172  0.00  0.00    +0.000 A 
ATOM      7  C   UNL     1       6.091   3.720  13.118  0.00  0.00    +0.000 A 
ATOM      8  C   UNL     1       6.009   2.993  11.821  0.00  0.00    +0.000 C 
ATOM      9  S   UNL     1       7.445   4.709  13.451  0.00  0.00    +0.000 S 
ATOM     10  C   UNL     1       6.861   5.102  15.002  0.00  0.00    +0.000 A 
ATOM     11  N   UNL     1       7.578   5.890  15.814  0.00  0.00    +0.000 NA
ATOM     12  H   UNL     1       3.299   3.884  16.254  0.00  0.00    +0.000 HD
ENDROOT
BRANCH   1  14
ATOM     13  C   UNL     1       7.998   6.018  19.285  0.00  0.00    +0.000 C 
ATOM     14  C   UNL     1       7.786   6.847  18.027  0.00  0.00    +0.000 C 
ENDBRANCH   1  14
BRANCH   4  15
ATOM     15  C   UNL     1       3.338   4.556  18.265  0.00  0.00    +0.000 C 
BRANCH  15  16
ATOM     16  C   UNL     1       2.285   5.658  18.141  0.00  0.00    +0.000 C 
BRANCH  16  17
ATOM     17  C   UNL     1       2.904   7.059  18.146  0.00  0.00    +0.000 C 
BRANCH  17  18
ATOM     18  C   UNL     1       2.047   8.072  18.863  0.00  0.00    +0.000 A 
ATOM     19  C   UNL     1       1.520   9.175  18.178  0.00  0.00    +0.000 A 
ATOM     20  C   UNL     1       0.705  10.094  18.837  0.00  0.00    +0.000 A 
ATOM     21  C   UNL     1       0.418   9.931  20.191  0.00  0.00    +0.000 A 
ATOM     22  C   UNL     1       0.949   8.847  20.888  0.00  0.00    +0.000 A 
ATOM     23  C   UNL     1       1.761   7.923  20.228  0.00  0.00    +0.000 A 
ENDBRANCH  17  18
ENDBRANCH  16  17
ENDBRANCH  15  16
ENDBRANCH   4  15
TORSDOF 5
ENDMDL
MODEL 7
REMARK VINA RESULT:      -7.4      2.989      7.160
REMARK  Name = 
REMARK  7 active torsions:
REMARK  status: ('A' for Active; 'I' for Inactive)
REMARK    1  A    between atoms: C_1  and  C_2
REMARK    2  A    between atoms: C_2  and  C_3
REMARK    3  A    between atoms: N_6  and  C_7
REMARK    4  A    between atoms: C_7  and  C_8
REMARK    5  A    between atoms: C_8  and  C_9
REMARK    6  A    between atoms: C_9  and  C_10
REMARK    7  A    between atoms: C_18  and  C_19
REMARK                            x       y       z     vdW  Elec       q    Type
REMARK                         _______ _______ _______ _____ _____    ______ ____
ROOT
ATOM      1  C   UNL     1       6.075   4.816  15.410  0.00  0.00    +0.000 A 
ATOM      2  N   UNL     1       6.694   5.782  16.116  0.00  0.00    +0.000 NA
ATOM      3  C   UNL     1       6.176   6.192  17.295  0.00  0.00    +0.000 A 
ATOM      4  N   UNL     1       6.831   7.152  18.047  0.00  0.00    +0.000 N 
ATOM      5  C   UNL     1       4.994   5.575  17.752  0.00  0.00    +0.000 A 
ATOM      6  C   UNL     1       4.200   5.719  18.943  0.00  0.00    +0.000 A 
ATOM      7  C   UNL     1       3.133   4.843  18.989  0.00  0.00    +0.000 A 
ATOM      8  C   UNL     1       2.120   4.660  20.065  0.00  0.00    +0.000 C 
ATOM      9  S   UNL     1       3.060   3.875  17.582  0.00  0.00    +0.000 S 
ATOM     10  C   UNL     1       4.462   4.594  16.933  0.00  0.00    +0.000 A 
ATOM     11  N   UNL     1       4.950   4.180  15.756  0.00  0.00    +0.000 NA
ATOM     12  H   UNL     1       6.268   7.630  18.738  0.00  0.00    +0.000 HD
ENDROOT
BRANCH   1  14
ATOM     13  C   UNL     1       5.740   3.794  13.167  0.00  0.00    +0.000 C 
ATOM     14  C   UNL     1       6.758   4.340  14.156  0.00  0.00    +0.000 C 
ENDBRANCH   1  14
BRANCH   4  15
ATOM     15  C   UNL     1       7.981   7.856  17.508  0.00  0.00    +0.000 C 
BRANCH  15  16
ATOM     16  C   UNL     1       7.987   9.343  17.867  0.00  0.00    +0.000 C 
BRANCH  16  17
ATOM     17  C   UNL     1       9.019   9.678  18.947  0.00  0.00    +0.000 C 
BRANCH  17  18
ATOM     18  C   UNL     1       9.673  11.020  18.732  0.00  0.00    +0.000 A 
ATOM     19  C   UNL     1      10.872  11.344  19.382  0.00  0.00    +0.000 A 
ATOM     20  C   UNL     1      11.488  12.574  19.158  0.00  0.00    +0.000 A 
ATOM     21  C   UNL     1      10.909  13.501  18.295  0.00  0.00    +0.000 A 
ATOM     22  C   UNL     1       9.709  13.198  17.654  0.00  0.00    +0.000 A 
ATOM     23  C   UNL     1       9.092  11.964  17.873  0.00  0.00    +0.000 A 
ENDBRANCH  17  18
ENDBRANCH  16  17
ENDBRANCH  15  16
ENDBRANCH   4  15
TORSDOF 5
ENDMDL
MODEL 8
REMARK VINA RESULT:      -7.4      3.390      5.749
REMARK  Name = 
REMARK  7 active torsions:
REMARK  status: ('A' for Active; 'I' for Inactive)
REMARK    1  A    between atoms: C_1  and  C_2
REMARK    2  A    between atoms: C_2  and  C_3
REMARK    3  A    between atoms: N_6  and  C_7
REMARK    4  A    between atoms: C_7  and  C_8
REMARK    5  A    between atoms: C_8  and  C_9
REMARK    6  A    between atoms: C_9  and  C_10
REMARK    7  A    between atoms: C_18  and  C_19
REMARK                            x       y       z     vdW  Elec       q    Type
REMARK                         _______ _______ _______ _____ _____    ______ ____
ROOT
ATOM      1  C   UNL     1       4.918   6.053  17.476  0.00  0.00    +0.000 A 
ATOM      2  N   UNL     1       3.968   6.996  17.639  0.00  0.00    +0.000 NA
ATOM      3  C   UNL     1       2.923   6.764  18.463  0.00  0.00    +0.000 A 
ATOM      4  N   UNL     1       1.968   7.745  18.669  0.00  0.00    +0.000 N 
ATOM      5  C   UNL     1       2.870   5.528  19.138  0.00  0.00    +0.000 A 
ATOM      6  C   UNL     1       1.957   4.962  20.095  0.00  0.00    +0.000 A 
ATOM      7  C   UNL     1       2.346   3.713  20.538  0.00  0.00    +0.000 A 
ATOM      8  C   UNL     1       1.694   2.834  21.548  0.00  0.00    +0.000 C 
ATOM      9  S   UNL     1       3.786   3.201  19.773  0.00  0.00    +0.000 S 
ATOM     10  C   UNL     1       3.910   4.649  18.885  0.00  0.00    +0.000 A 
ATOM     11  N   UNL     1       4.950   4.853  18.066  0.00  0.00    +0.000 NA
ATOM     12  H   UNL     1       1.080   7.426  19.031  0.00  0.00    +0.000 HD
ENDROOT
BRANCH   1  14
ATOM     13  C   UNL     1       7.271   6.858  17.491  0.00  0.00    +0.000 C 
ATOM     14  C   UNL     1       6.103   6.416  16.623  0.00  0.00    +0.000 C 
ENDBRANCH   1  14
BRANCH   4  15
ATOM     15  C   UNL     1       1.977   8.964  17.879  0.00  0.00    +0.000 C 
BRANCH  15  16
ATOM     16  C   UNL     1       1.505  10.185  18.669  0.00  0.00    +0.000 C 
BRANCH  16  17
ATOM     17  C   UNL     1      -0.002  10.155  18.945  0.00  0.00    +0.000 C 
BRANCH  17  18
ATOM     18  C   UNL     1      -0.327  10.250  20.414  0.00  0.00    +0.000 A 
ATOM     19  C   UNL     1      -0.151   9.145  21.258  0.00  0.00    +0.000 A 
ATOM     20  C   UNL     1      -0.425   9.245  22.621  0.00  0.00    +0.000 A 
ATOM     21  C   UNL     1      -0.893  10.443  23.155  0.00  0.00    +0.000 A 
ATOM     22  C   UNL     1      -1.088  11.545  22.325  0.00  0.00    +0.000 A 
ATOM     23  C   UNL     1      -0.808  11.449  20.960  0.00  0.00    +0.000 A 
ENDBRANCH  17  18
ENDBRANCH  16  17
ENDBRANCH  15  16
ENDBRANCH   4  15
TORSDOF 5
ENDMDL
MODEL 9
REMARK VINA RESULT:      -7.4      3.342      5.722
REMARK  Name = 
REMARK  7 active torsions:
REMARK  status: ('A' for Active; 'I' for Inactive)
REMARK    1  A    between atoms: C_1  and  C_2
REMARK    2  A    between atoms: C_2  and  C_3
REMARK    3  A    between atoms: N_6  and  C_7
REMARK    4  A    between atoms: C_7  and  C_8
REMARK    5  A    between atoms: C_8  and  C_9
REMARK    6  A    between atoms: C_9  and  C_10
REMARK    7  A    between atoms: C_18  and  C_19
REMARK                            x       y       z     vdW  Elec       q    Type
REMARK                         _______ _______ _______ _____ _____    ______ ____
ROOT
ATOM      1  C   UNL     1       4.968   6.011  17.546  0.00  0.00    +0.000 A 
ATOM      2  N   UNL     1       4.002   6.946  17.638  0.00  0.00    +0.000 NA
ATOM      3  C   UNL     1       2.910   6.713  18.399  0.00  0.00    +0.000 A 
ATOM      4  N   UNL     1       1.935   7.686  18.535  0.00  0.00    +0.000 N 
ATOM      5  C   UNL     1       2.827   5.484  19.084  0.00  0.00    +0.000 A 
ATOM      6  C   UNL     1       1.863   4.920  19.991  0.00  0.00    +0.000 A 
ATOM      7  C   UNL     1       2.235   3.680  20.472  0.00  0.00    +0.000 A 
ATOM      8  C   UNL     1       1.530   2.807  21.451  0.00  0.00    +0.000 C 
ATOM      9  S   UNL     1       3.725   3.174  19.803  0.00  0.00    +0.000 S 
ATOM     10  C   UNL     1       3.889   4.613  18.907  0.00  0.00    +0.000 A 
ATOM     11  N   UNL     1       4.975   4.818  18.150  0.00  0.00    +0.000 NA
ATOM     12  H   UNL     1       1.029   7.362  18.845  0.00  0.00    +0.000 HD
ENDROOT
BRANCH   1  14
ATOM     13  C   UNL     1       7.363   6.665  17.699  0.00  0.00    +0.000 C 
ATOM     14  C   UNL     1       6.200   6.376  16.762  0.00  0.00    +0.000 C 
ENDBRANCH   1  14
BRANCH   4  15
ATOM     15  C   UNL     1       1.981   8.896  17.732  0.00  0.00    +0.000 C 
BRANCH  15  16
ATOM     16  C   UNL     1       1.522  10.135  18.502  0.00  0.00    +0.000 C 
BRANCH  16  17
ATOM     17  C   UNL     1       0.022  10.108  18.811  0.00  0.00    +0.000 C 
BRANCH  17  18
ATOM     18  C   UNL     1      -0.270  10.206  20.287  0.00  0.00    +0.000 A 
ATOM     19  C   UNL     1      -0.779  11.390  20.838  0.00  0.00    +0.000 A 
ATOM     20  C   UNL     1      -1.075  11.468  22.198  0.00  0.00    +0.000 A 
ATOM     21  C   UNL     1      -0.852  10.371  23.027  0.00  0.00    +0.000 A 
ATOM     22  C   UNL     1      -0.331   9.193  22.496  0.00  0.00    +0.000 A 
ATOM     23  C   UNL     1      -0.039   9.111  21.132  0.00  0.00    +0.000 A 
ENDBRANCH  17  18
ENDBRANCH  16  17
ENDBRANCH  15  16
ENDBRANCH   4  15
TORSDOF 5
ENDMDL
