MODEL 1
REMARK VINA RESULT:      -6.4      0.000      0.000
REMARK  Name = 
REMARK  4 active torsions:
REMARK  status: ('A' for Active; 'I' for Inactive)
REMARK    1  A    between atoms: C_1  and  O_2
REMARK    2  A    between atoms: O_2  and  C_3
REMARK    3  A    between atoms: C_3  and  C_4
REMARK    4  A    between atoms: N_7  and  C_8
REMARK                            x       y       z     vdW  Elec       q    Type
REMARK                         _______ _______ _______ _____ _____    ______ ____
ROOT
ATOM      1  C   UNL     1       4.042   4.019  18.143  0.00  0.00    +0.000 A 
ATOM      2  C   UNL     1       4.081   2.704  17.644  0.00  0.00    +0.000 A 
ATOM      3  C   UNL     1       3.130   1.767  17.996  0.00  0.00    +0.000 A 
ATOM      4  N   UNL     1       2.110   1.986  18.837  0.00  0.00    +0.000 NA
ATOM      5  C   UNL     1       2.057   3.232  19.372  0.00  0.00    +0.000 A 
ATOM      6  C   UNL     1       1.050   3.651  20.291  0.00  0.00    +0.000 A 
ATOM      7  C   UNL     1       1.212   4.950  20.697  0.00  0.00    +0.000 A 
ATOM      8  S   UNL     1       2.597   5.654  20.012  0.00  0.00    +0.000 S 
ATOM      9  C   UNL     1       2.979   4.244  19.069  0.00  0.00    +0.000 A 
ENDROOT
BRANCH   1  13
ATOM     10  C   UNL     1       6.983   5.926  16.896  0.00  0.00    +0.000 C 
ATOM     11  C   UNL     1       5.778   6.494  16.156  0.00  0.00    +0.000 C 
ATOM     12  C   UNL     1       4.609   6.219  17.093  0.00  0.00    +0.000 C 
ATOM     13  N   UNL     1       4.969   4.964  17.741  0.00  0.00    +0.000 N 
ATOM     14  C   UNL     1       6.410   4.707  17.637  0.00  0.00    +0.000 C 
BRANCH  10  15
ATOM     15  C   UNL     1       7.615   6.938  17.848  0.00  0.00    +0.000 C 
BRANCH  15  17
ATOM     16  C   UNL     1       8.174   9.224  17.983  0.00  0.00    +0.000 C 
ATOM     17  O   UNL     1       7.882   8.136  17.118  0.00  0.00    +0.000 OA
ENDBRANCH  15  17
ENDBRANCH  10  15
ENDBRANCH   1  13
TORSDOF 3
ENDMDL
MODEL 2
REMARK VINA RESULT:      -6.4      1.021      1.138
REMARK  Name = 
REMARK  4 active torsions:
REMARK  status: ('A' for Active; 'I' for Inactive)
REMARK    1  A    between atoms: C_1  and  O_2
REMARK    2  A    between atoms: O_2  and  C_3
REMARK    3  A    between atoms: C_3  and  C_4
REMARK    4  A    between atoms: N_7  and  C_8
REMARK                            x       y       z     vdW  Elec       q    Type
REMARK                         _______ _______ _______ _____ _____    ______ ____
ROOT
ATOM      1  C   UNL     1       3.848   3.572  18.122  0.00  0.00    +0.000 A 
ATOM      2  C   UNL     1       3.537   2.215  17.918  0.00  0.00    +0.000 A 
ATOM      3  C   UNL     1       2.458   1.617  18.539  0.00  0.00    +0.000 A 
ATOM      4  N   UNL     1       1.624   2.231  19.389  0.00  0.00    +0.000 NA
ATOM      5  C   UNL     1       1.911   3.533  19.644  0.00  0.00    +0.000 A 
ATOM      6  C   UNL     1       1.143   4.349  20.526  0.00  0.00    +0.000 A 
ATOM      7  C   UNL     1       1.633   5.625  20.627  0.00  0.00    +0.000 A 
ATOM      8  S   UNL     1       3.041   5.833  19.699  0.00  0.00    +0.000 S 
ATOM      9  C   UNL     1       2.985   4.218  19.058  0.00  0.00    +0.000 A 
ENDROOT
BRANCH   1  13
ATOM     10  C   UNL     1       7.110   4.898  16.923  0.00  0.00    +0.000 C 
ATOM     11  C   UNL     1       6.491   4.182  15.729  0.00  0.00    +0.000 C 
ATOM     12  C   UNL     1       4.993   4.242  16.001  0.00  0.00    +0.000 C 
ATOM     13  N   UNL     1       4.900   4.172  17.453  0.00  0.00    +0.000 N 
ATOM     14  C   UNL     1       6.172   4.537  18.086  0.00  0.00    +0.000 C 
BRANCH  10  15
ATOM     15  C   UNL     1       7.217   6.405  16.710  0.00  0.00    +0.000 C 
BRANCH  15  17
ATOM     16  C   UNL     1       8.004   8.328  17.825  0.00  0.00    +0.000 C 
ATOM     17  O   UNL     1       7.469   7.021  17.974  0.00  0.00    +0.000 OA
ENDBRANCH  15  17
ENDBRANCH  10  15
ENDBRANCH   1  13
TORSDOF 3
ENDMDL
MODEL 3
REMARK VINA RESULT:      -6.4      2.045      3.159
REMARK  Name = 
REMARK  4 active torsions:
REMARK  status: ('A' for Active; 'I' for Inactive)
REMARK    1  A    between atoms: C_1  and  O_2
REMARK    2  A    between atoms: O_2  and  C_3
REMARK    3  A    between atoms: C_3  and  C_4
REMARK    4  A    between atoms: N_7  and  C_8
REMARK                            x       y       z     vdW  Elec       q    Type
REMARK                         _______ _______ _______ _____ _____    ______ ____
ROOT
ATOM      1  C   UNL     1       3.707   5.185  19.017  0.00  0.00    +0.000 A 
ATOM      2  C   UNL     1       3.134   6.283  19.686  0.00  0.00    +0.000 A 
ATOM      3  C   UNL     1       1.937   6.174  20.364  0.00  0.00    +0.000 A 
ATOM      4  N   UNL     1       1.199   5.058  20.447  0.00  0.00    +0.000 NA
ATOM      5  C   UNL     1       1.697   3.984  19.783  0.00  0.00    +0.000 A 
ATOM      6  C   UNL     1       1.053   2.712  19.750  0.00  0.00    +0.000 A 
ATOM      7  C   UNL     1       1.743   1.788  19.010  0.00  0.00    +0.000 A 
ATOM      8  S   UNL     1       3.142   2.457  18.317  0.00  0.00    +0.000 S 
ATOM      9  C   UNL     1       2.905   4.006  19.071  0.00  0.00    +0.000 A 
ENDROOT
BRANCH   1  13
ATOM     10  C   UNL     1       6.628   6.008  16.866  0.00  0.00    +0.000 C 
ATOM     11  C   UNL     1       7.127   6.123  18.301  0.00  0.00    +0.000 C 
ATOM     12  C   UNL     1       6.208   5.193  19.084  0.00  0.00    +0.000 C 
ATOM     13  N   UNL     1       4.933   5.294  18.385  0.00  0.00    +0.000 N 
ATOM     14  C   UNL     1       5.112   5.812  17.025  0.00  0.00    +0.000 C 
BRANCH  10  15
ATOM     15  C   UNL     1       7.285   4.858  16.108  0.00  0.00    +0.000 C 
BRANCH  15  17
ATOM     16  C   UNL     1       6.689   4.446  13.865  0.00  0.00    +0.000 C 
ATOM     17  O   UNL     1       7.454   5.255  14.747  0.00  0.00    +0.000 OA
ENDBRANCH  15  17
ENDBRANCH  10  15
ENDBRANCH   1  13
TORSDOF 3
ENDMDL
MODEL 4
REMARK VINA RESULT:      -6.4      2.441      3.451
REMARK  Name = 
REMARK  4 active torsions:
REMARK  status: ('A' for Active; 'I' for Inactive)
REMARK    1  A    between atoms: C_1  and  O_2
REMARK    2  A    between atoms: O_2  and  C_3
REMARK    3  A    between atoms: C_3  and  C_4
REMARK    4  A    between atoms: N_7  and  C_8
REMARK                            x       y       z     vdW  Elec       q    Type
REMARK                         _______ _______ _______ _____ _____    ______ ____
ROOT
ATOM      1  C   UNL     1       3.917   5.584  18.967  0.00  0.00    +0.000 A 
ATOM      2  C   UNL     1       3.168   6.772  19.053  0.00  0.00    +0.000 A 
ATOM      3  C   UNL     1       2.088   6.888  19.906  0.00  0.00    +0.000 A 
ATOM      4  N   UNL     1       1.633   5.915  20.706  0.00  0.00    +0.000 NA
ATOM      5  C   UNL     1       2.304   4.738  20.627  0.00  0.00    +0.000 A 
ATOM      6  C   UNL     1       1.965   3.586  21.395  0.00  0.00    +0.000 A 
ATOM      7  C   UNL     1       2.782   2.516  21.135  0.00  0.00    +0.000 A 
ATOM      8  S   UNL     1       3.929   2.880  19.937  0.00  0.00    +0.000 S 
ATOM      9  C   UNL     1       3.411   4.533  19.790  0.00  0.00    +0.000 A 
ENDROOT
BRANCH   1  13
ATOM     10  C   UNL     1       6.448   5.734  16.244  0.00  0.00    +0.000 C 
ATOM     11  C   UNL     1       7.153   6.249  17.493  0.00  0.00    +0.000 C 
ATOM     12  C   UNL     1       6.398   5.589  18.640  0.00  0.00    +0.000 C 
ATOM     13  N   UNL     1       5.029   5.497  18.148  0.00  0.00    +0.000 N 
ATOM     14  C   UNL     1       4.981   5.605  16.686  0.00  0.00    +0.000 C 
BRANCH  10  15
ATOM     15  C   UNL     1       7.023   4.410  15.751  0.00  0.00    +0.000 C 
BRANCH  15  17
ATOM     16  C   UNL     1       6.209   3.859  13.608  0.00  0.00    +0.000 C 
ATOM     17  O   UNL     1       6.011   3.728  15.009  0.00  0.00    +0.000 OA
ENDBRANCH  15  17
ENDBRANCH  10  15
ENDBRANCH   1  13
TORSDOF 3
ENDMDL
MODEL 5
REMARK VINA RESULT:      -6.4      1.942      2.722
REMARK  Name = 
REMARK  4 active torsions:
REMARK  status: ('A' for Active; 'I' for Inactive)
REMARK    1  A    between atoms: C_1  and  O_2
REMARK    2  A    between atoms: O_2  and  C_3
REMARK    3  A    between atoms: C_3  and  C_4
REMARK    4  A    between atoms: N_7  and  C_8
REMARK                            x       y       z     vdW  Elec       q    Type
REMARK                         _______ _______ _______ _____ _____    ______ ____
ROOT
ATOM      1  C   UNL     1       3.963   3.599  18.086  0.00  0.00    +0.000 A 
ATOM      2  C   UNL     1       3.695   2.223  17.969  0.00  0.00    +0.000 A 
ATOM      3  C   UNL     1       2.658   1.626  18.658  0.00  0.00    +0.000 A 
ATOM      4  N   UNL     1       1.830   2.259  19.500  0.00  0.00    +0.000 NA
ATOM      5  C   UNL     1       2.078   3.582  19.672  0.00  0.00    +0.000 A 
ATOM      6  C   UNL     1       1.310   4.421  20.532  0.00  0.00    +0.000 A 
ATOM      7  C   UNL     1       1.757   5.716  20.545  0.00  0.00    +0.000 A 
ATOM      8  S   UNL     1       3.126   5.918  19.560  0.00  0.00    +0.000 S 
ATOM      9  C   UNL     1       3.108   4.268  19.013  0.00  0.00    +0.000 A 
ENDROOT
BRANCH   1  13
ATOM     10  C   UNL     1       6.076   5.589  15.758  0.00  0.00    +0.000 C 
ATOM     11  C   UNL     1       6.690   5.780  17.139  0.00  0.00    +0.000 C 
ATOM     12  C   UNL     1       6.281   4.525  17.900  0.00  0.00    +0.000 C 
ATOM     13  N   UNL     1       4.972   4.196  17.350  0.00  0.00    +0.000 N 
ATOM     14  C   UNL     1       4.767   4.836  16.046  0.00  0.00    +0.000 C 
BRANCH  10  15
ATOM     15  C   UNL     1       6.992   4.817  14.813  0.00  0.00    +0.000 C 
BRANCH  15  17
ATOM     16  C   UNL     1       6.347   3.678  12.852  0.00  0.00    +0.000 C 
ATOM     17  O   UNL     1       6.256   3.721  14.268  0.00  0.00    +0.000 OA
ENDBRANCH  15  17
ENDBRANCH  10  15
ENDBRANCH   1  13
TORSDOF 3
ENDMDL
MODEL 6
REMARK VINA RESULT:      -6.3      2.849      5.960
REMARK  Name = 
REMARK  4 active torsions:
REMARK  status: ('A' for Active; 'I' for Inactive)
REMARK    1  A    between atoms: C_1  and  O_2
REMARK    2  A    between atoms: O_2  and  C_3
REMARK    3  A    between atoms: C_3  and  C_4
REMARK    4  A    between atoms: N_7  and  C_8
REMARK                            x       y       z     vdW  Elec       q    Type
REMARK                         _______ _______ _______ _____ _____    ______ ____
ROOT
ATOM      1  C   UNL     1       4.742   4.464  17.010  0.00  0.00    +0.000 A 
ATOM      2  C   UNL     1       4.847   4.460  15.607  0.00  0.00    +0.000 A 
ATOM      3  C   UNL     1       5.954   4.972  14.961  0.00  0.00    +0.000 A 
ATOM      4  N   UNL     1       7.010   5.528  15.570  0.00  0.00    +0.000 NA
ATOM      5  C   UNL     1       6.933   5.588  16.924  0.00  0.00    +0.000 A 
ATOM      6  C   UNL     1       7.954   6.149  17.745  0.00  0.00    +0.000 A 
ATOM      7  C   UNL     1       7.646   6.102  19.080  0.00  0.00    +0.000 A 
ATOM      8  S   UNL     1       6.111   5.424  19.346  0.00  0.00    +0.000 S 
ATOM      9  C   UNL     1       5.848   5.092  17.660  0.00  0.00    +0.000 A 
ENDROOT
BRANCH   1  13
ATOM     10  C   UNL     1       1.391   3.380  18.207  0.00  0.00    +0.000 C 
ATOM     11  C   UNL     1       2.188   2.099  17.993  0.00  0.00    +0.000 C 
ATOM     12  C   UNL     1       3.637   2.536  18.161  0.00  0.00    +0.000 C 
ATOM     13  N   UNL     1       3.651   3.900  17.647  0.00  0.00    +0.000 N 
ATOM     14  C   UNL     1       2.301   4.473  17.623  0.00  0.00    +0.000 C 
BRANCH  10  15
ATOM     15  C   UNL     1       1.060   3.625  19.676  0.00  0.00    +0.000 C 
BRANCH  15  17
ATOM     16  C   UNL     1       1.725   2.624  21.704  0.00  0.00    +0.000 C 
ATOM     17  O   UNL     1       1.240   2.400  20.388  0.00  0.00    +0.000 OA
ENDBRANCH  15  17
ENDBRANCH  10  15
ENDBRANCH   1  13
TORSDOF 3
ENDMDL
MODEL 7
REMARK VINA RESULT:      -6.3      3.116      6.231
REMARK  Name = 
REMARK  4 active torsions:
REMARK  status: ('A' for Active; 'I' for Inactive)
REMARK    1  A    between atoms: C_1  and  O_2
REMARK    2  A    between atoms: O_2  and  C_3
REMARK    3  A    between atoms: C_3  and  C_4
REMARK    4  A    between atoms: N_7  and  C_8
REMARK                            x       y       z     vdW  Elec       q    Type
REMARK                         _______ _______ _______ _____ _____    ______ ____
ROOT
ATOM      1  C   UNL     1       5.144   4.600  18.156  0.00  0.00    +0.000 A 
ATOM      2  C   UNL     1       5.953   5.195  19.140  0.00  0.00    +0.000 A 
ATOM      3  C   UNL     1       7.181   5.746  18.833  0.00  0.00    +0.000 A 
ATOM      4  N   UNL     1       7.733   5.760  17.612  0.00  0.00    +0.000 NA
ATOM      5  C   UNL     1       7.002   5.161  16.638  0.00  0.00    +0.000 A 
ATOM      6  C   UNL     1       7.426   5.070  15.280  0.00  0.00    +0.000 A 
ATOM      7  C   UNL     1       6.522   4.413  14.486  0.00  0.00    +0.000 A 
ATOM      8  S   UNL     1       5.184   3.866  15.378  0.00  0.00    +0.000 S 
ATOM      9  C   UNL     1       5.746   4.578  16.861  0.00  0.00    +0.000 A 
ENDROOT
BRANCH   1  13
ATOM     10  C   UNL     1       1.523   3.817  18.496  0.00  0.00    +0.000 C 
ATOM     11  C   UNL     1       2.206   2.489  18.197  0.00  0.00    +0.000 C 
ATOM     12  C   UNL     1       3.629   2.685  18.706  0.00  0.00    +0.000 C 
ATOM     13  N   UNL     1       3.892   4.099  18.466  0.00  0.00    +0.000 N 
ATOM     14  C   UNL     1       2.643   4.851  18.302  0.00  0.00    +0.000 C 
BRANCH  10  15
ATOM     15  C   UNL     1       0.926   3.865  19.899  0.00  0.00    +0.000 C 
BRANCH  15  17
ATOM     16  C   UNL     1       1.583   2.639  21.802  0.00  0.00    +0.000 C 
ATOM     17  O   UNL     1       1.052   2.570  20.487  0.00  0.00    +0.000 OA
ENDBRANCH  15  17
ENDBRANCH  10  15
ENDBRANCH   1  13
TORSDOF 3
ENDMDL
MODEL 8
REMARK VINA RESULT:      -6.3      2.575      3.620
REMARK  Name = 
REMARK  4 active torsions:
REMARK  status: ('A' for Active; 'I' for Inactive)
REMARK    1  A    between atoms: C_1  and  O_2
REMARK    2  A    between atoms: O_2  and  C_3
REMARK    3  A    between atoms: C_3  and  C_4
REMARK    4  A    between atoms: N_7  and  C_8
REMARK                            x       y       z     vdW  Elec       q    Type
REMARK                         _______ _______ _______ _____ _____    ______ ____
ROOT
ATOM      1  C   UNL     1       3.820   5.004  18.246  0.00  0.00    +0.000 A 
ATOM      2  C   UNL     1       3.579   6.220  18.911  0.00  0.00    +0.000 A 
ATOM      3  C   UNL     1       2.537   6.363  19.804  0.00  0.00    +0.000 A 
ATOM      4  N   UNL     1       1.655   5.403  20.117  0.00  0.00    +0.000 NA
ATOM      5  C   UNL     1       1.828   4.224  19.468  0.00  0.00    +0.000 A 
ATOM      6  C   UNL     1       0.988   3.088  19.663  0.00  0.00    +0.000 A 
ATOM      7  C   UNL     1       1.357   2.018  18.891  0.00  0.00    +0.000 A 
ATOM      8  S   UNL     1       2.685   2.387  17.898  0.00  0.00    +0.000 S 
ATOM      9  C   UNL     1       2.860   3.991  18.547  0.00  0.00    +0.000 A 
ENDROOT
BRANCH   1  13
ATOM     10  C   UNL     1       6.430   5.260  15.606  0.00  0.00    +0.000 C 
ATOM     11  C   UNL     1       7.185   5.106  16.920  0.00  0.00    +0.000 C 
ATOM     12  C   UNL     1       6.204   4.369  17.824  0.00  0.00    +0.000 C 
ATOM     13  N   UNL     1       4.900   4.857  17.392  0.00  0.00    +0.000 N 
ATOM     14  C   UNL     1       4.968   5.441  16.049  0.00  0.00    +0.000 C 
BRANCH  10  15
ATOM     15  C   UNL     1       6.611   4.059  14.683  0.00  0.00    +0.000 C 
BRANCH  15  17
ATOM     16  C   UNL     1       5.929   3.422  12.518  0.00  0.00    +0.000 C 
ATOM     17  O   UNL     1       5.548   4.061  13.728  0.00  0.00    +0.000 OA
ENDBRANCH  15  17
ENDBRANCH  10  15
ENDBRANCH   1  13
TORSDOF 3
ENDMDL
MODEL 9
REMARK VINA RESULT:      -6.3      1.502      2.362
REMARK  Name = 
REMARK  4 active torsions:
REMARK  status: ('A' for Active; 'I' for Inactive)
REMARK    1  A    between atoms: C_1  and  O_2
REMARK    2  A    between atoms: O_2  and  C_3
REMARK    3  A    between atoms: C_3  and  C_4
REMARK    4  A    between atoms: N_7  and  C_8
REMARK                            x       y       z     vdW  Elec       q    Type
REMARK                         _______ _______ _______ _____ _____    ______ ____
ROOT
ATOM      1  C   UNL     1       3.504   5.353  19.107  0.00  0.00    +0.000 A 
ATOM      2  C   UNL     1       2.805   6.176  20.009  0.00  0.00    +0.000 A 
ATOM      3  C   UNL     1       1.662   5.742  20.650  0.00  0.00    +0.000 A 
ATOM      4  N   UNL     1       1.096   4.540  20.480  0.00  0.00    +0.000 NA
ATOM      5  C   UNL     1       1.717   3.727  19.588  0.00  0.00    +0.000 A 
ATOM      6  C   UNL     1       1.260   2.415  19.269  0.00  0.00    +0.000 A 
ATOM      7  C   UNL     1       2.047   1.792  18.335  0.00  0.00    +0.000 A 
ATOM      8  S   UNL     1       3.309   2.799  17.807  0.00  0.00    +0.000 S 
ATOM      9  C   UNL     1       2.881   4.087  18.894  0.00  0.00    +0.000 A 
ENDROOT
BRANCH   1  13
ATOM     10  C   UNL     1       6.914   5.772  17.680  0.00  0.00    +0.000 C 
ATOM     11  C   UNL     1       5.952   6.239  16.595  0.00  0.00    +0.000 C 
ATOM     12  C   UNL     1       4.716   6.682  17.367  0.00  0.00    +0.000 C 
ATOM     13  N   UNL     1       4.678   5.780  18.511  0.00  0.00    +0.000 N 
ATOM     14  C   UNL     1       5.988   5.165  18.746  0.00  0.00    +0.000 C 
BRANCH  10  15
ATOM     15  C   UNL     1       7.769   6.908  18.233  0.00  0.00    +0.000 C 
BRANCH  15  17
ATOM     16  C   UNL     1       8.131   9.202  17.825  0.00  0.00    +0.000 C 
ATOM     17  O   UNL     1       7.841   7.938  17.246  0.00  0.00    +0.000 OA
ENDBRANCH  15  17
ENDBRANCH  10  15
ENDBRANCH   1  13
TORSDOF 3
ENDMDL
