MODEL 1
REMARK VINA RESULT:      -7.0      0.000      0.000
REMARK  Name = 
REMARK  3 active torsions:
REMARK  status: ('A' for Active; 'I' for Inactive)
REMARK    1  A    between atoms: C_4  and  C_5
REMARK    2  A    between atoms: N_13  and  C_14
REMARK    3  A    between atoms: C_18  and  C_19
REMARK                            x       y       z     vdW  Elec       q    Type
REMARK                         _______ _______ _______ _____ _____    ______ ____
ROOT
ATOM      1  N   UNL     1      -0.345  13.807  18.627  0.00  0.00    +0.000 NA
ATOM      2  C   UNL     1      -0.269  12.529  18.509  0.00  0.00    +0.000 A 
ATOM      3  S   UNL     1       1.332  11.811  18.544  0.00  0.00    +0.000 S 
ATOM      4  C   UNL     1       0.543  10.234  18.599  0.00  0.00    +0.000 A 
ATOM      5  N   UNL     1      -0.751  10.234  18.475  0.00  0.00    +0.000 NA
ATOM      6  N   UNL     1      -1.213  11.530  18.405  0.00  0.00    +0.000 N 
ATOM      7  H   UNL     1       0.612  14.167  18.663  0.00  0.00    +0.000 HD
ENDROOT
BRANCH   6   8
ATOM      8  C   UNL     1      -2.623  11.736  18.379  0.00  0.00    +0.000 A 
ATOM      9  C   UNL     1      -3.348  12.145  19.528  0.00  0.00    +0.000 A 
ATOM     10 CL   UNL     1      -2.598  12.518  21.051  0.00  0.00    +0.000 Cl
ATOM     11  C   UNL     1      -4.742  12.341  19.496  0.00  0.00    +0.000 A 
ATOM     12  C   UNL     1      -5.466  12.171  18.315  0.00  0.00    +0.000 A 
ATOM     13  C   UNL     1      -4.773  11.771  17.171  0.00  0.00    +0.000 A 
ATOM     14  C   UNL     1      -3.389  11.524  17.207  0.00  0.00    +0.000 A 
ATOM     15 CL   UNL     1      -2.741  10.793  15.771  0.00  0.00    +0.000 Cl
BRANCH  12  16
ATOM     16  C   UNL     1      -6.957  12.396  18.262  0.00  0.00    +0.000 C 
ATOM     17  F   UNL     1      -7.436  12.564  16.998  0.00  0.00    +0.000 F 
ATOM     18  F   UNL     1      -7.656  11.358  18.793  0.00  0.00    +0.000 F 
ATOM     19  F   UNL     1      -7.338  13.503  18.956  0.00  0.00    +0.000 F 
ENDBRANCH  12  16
ENDBRANCH   6   8
BRANCH   4  20
ATOM     20  C   UNL     1       1.351   9.013  18.800  0.00  0.00    +0.000 A 
ATOM     21  C   UNL     1       2.173   8.492  17.784  0.00  0.00    +0.000 A 
ATOM     22  C   UNL     1       2.959   7.359  18.021  0.00  0.00    +0.000 A 
ATOM     23  C   UNL     1       2.938   6.740  19.268  0.00  0.00    +0.000 A 
ATOM     24  C   UNL     1       2.132   7.254  20.283  0.00  0.00    +0.000 A 
ATOM     25  C   UNL     1       1.349   8.383  20.046  0.00  0.00    +0.000 A 
ATOM     26  F   UNL     1       0.579   8.827  21.050  0.00  0.00    +0.000 F 
ENDBRANCH   4  20
TORSDOF 3
ENDMDL
MODEL 2
REMARK VINA RESULT:      -7.0      0.130      2.002
REMARK  Name = 
REMARK  3 active torsions:
REMARK  status: ('A' for Active; 'I' for Inactive)
REMARK    1  A    between atoms: C_4  and  C_5
REMARK    2  A    between atoms: N_13  and  C_14
REMARK    3  A    between atoms: C_18  and  C_19
REMARK                            x       y       z     vdW  Elec       q    Type
REMARK                         _______ _______ _______ _____ _____    ______ ____
ROOT
ATOM      1  N   UNL     1      -0.257  13.742  18.668  0.00  0.00    +0.000 NA
ATOM      2  C   UNL     1      -0.195  12.464  18.548  0.00  0.00    +0.000 A 
ATOM      3  S   UNL     1       1.399  11.730  18.577  0.00  0.00    +0.000 S 
ATOM      4  C   UNL     1       0.594  10.160  18.632  0.00  0.00    +0.000 A 
ATOM      5  N   UNL     1      -0.700  10.174  18.513  0.00  0.00    +0.000 NA
ATOM      6  N   UNL     1      -1.149  11.474  18.446  0.00  0.00    +0.000 N 
ATOM      7  H   UNL     1       0.704  14.093  18.700  0.00  0.00    +0.000 HD
ENDROOT
BRANCH   6   8
ATOM      8  C   UNL     1      -2.557  11.695  18.425  0.00  0.00    +0.000 A 
ATOM      9  C   UNL     1      -3.331  11.521  17.248  0.00  0.00    +0.000 A 
ATOM     10 CL   UNL     1      -2.673  10.947  15.745  0.00  0.00    +0.000 Cl
ATOM     11  C   UNL     1      -4.720  11.745  17.233  0.00  0.00    +0.000 A 
ATOM     12  C   UNL     1      -5.402  12.118  18.393  0.00  0.00    +0.000 A 
ATOM     13  C   UNL     1      -4.661  12.293  19.564  0.00  0.00    +0.000 A 
ATOM     14  C   UNL     1      -3.266  12.119  19.575  0.00  0.00    +0.000 A 
ATOM     15 CL   UNL     1      -2.480  12.622  21.039  0.00  0.00    +0.000 Cl
BRANCH  12  16
ATOM     16  C   UNL     1      -6.894  12.343  18.396  0.00  0.00    +0.000 C 
ATOM     17  F   UNL     1      -7.587  11.382  19.066  0.00  0.00    +0.000 F 
ATOM     18  F   UNL     1      -7.237  13.525  18.975  0.00  0.00    +0.000 F 
ATOM     19  F   UNL     1      -7.416  12.373  17.139  0.00  0.00    +0.000 F 
ENDBRANCH  12  16
ENDBRANCH   6   8
BRANCH   4  20
ATOM     20  C   UNL     1       1.391   8.931  18.829  0.00  0.00    +0.000 A 
ATOM     21  C   UNL     1       2.229   8.421  17.822  0.00  0.00    +0.000 A 
ATOM     22  C   UNL     1       3.003   7.279  18.055  0.00  0.00    +0.000 A 
ATOM     23  C   UNL     1       2.954   6.641  19.292  0.00  0.00    +0.000 A 
ATOM     24  C   UNL     1       2.132   7.144  20.299  0.00  0.00    +0.000 A 
ATOM     25  C   UNL     1       1.360   8.282  20.065  0.00  0.00    +0.000 A 
ATOM     26  F   UNL     1       0.573   8.714  21.061  0.00  0.00    +0.000 F 
ENDBRANCH   4  20
TORSDOF 3
ENDMDL
MODEL 3
REMARK VINA RESULT:      -6.9      0.912      2.269
REMARK  Name = 
REMARK  3 active torsions:
REMARK  status: ('A' for Active; 'I' for Inactive)
REMARK    1  A    between atoms: C_4  and  C_5
REMARK    2  A    between atoms: N_13  and  C_14
REMARK    3  A    between atoms: C_18  and  C_19
REMARK                            x       y       z     vdW  Elec       q    Type
REMARK                         _______ _______ _______ _____ _____    ______ ____
ROOT
ATOM      1  N   UNL     1      -0.360  13.793  18.566  0.00  0.00    +0.000 NA
ATOM      2  C   UNL     1      -0.315  12.509  18.584  0.00  0.00    +0.000 A 
ATOM      3  S   UNL     1       1.266  11.761  18.728  0.00  0.00    +0.000 S 
ATOM      4  C   UNL     1       0.436  10.217  18.931  0.00  0.00    +0.000 A 
ATOM      5  N   UNL     1      -0.855  10.235  18.780  0.00  0.00    +0.000 NA
ATOM      6  N   UNL     1      -1.282  11.527  18.565  0.00  0.00    +0.000 N 
ATOM      7  H   UNL     1       0.606  14.132  18.584  0.00  0.00    +0.000 HD
ENDROOT
BRANCH   6   8
ATOM      8  C   UNL     1      -2.686  11.762  18.487  0.00  0.00    +0.000 A 
ATOM      9  C   UNL     1      -3.422  11.548  17.293  0.00  0.00    +0.000 A 
ATOM     10 CL   UNL     1      -2.722  10.905  15.838  0.00  0.00    +0.000 Cl
ATOM     11  C   UNL     1      -4.807  11.788  17.222  0.00  0.00    +0.000 A 
ATOM     12  C   UNL     1      -5.522  12.216  18.341  0.00  0.00    +0.000 A 
ATOM     13  C   UNL     1      -4.819  12.431  19.529  0.00  0.00    +0.000 A 
ATOM     14  C   UNL     1      -3.427  12.242  19.594  0.00  0.00    +0.000 A 
ATOM     15 CL   UNL     1      -2.684  12.797  21.062  0.00  0.00    +0.000 Cl
BRANCH  12  16
ATOM     16  C   UNL     1      -7.011  12.459  18.285  0.00  0.00    +0.000 C 
ATOM     17  F   UNL     1      -7.484  12.642  17.021  0.00  0.00    +0.000 F 
ATOM     18  F   UNL     1      -7.723  11.424  18.806  0.00  0.00    +0.000 F 
ATOM     19  F   UNL     1      -7.382  13.564  18.987  0.00  0.00    +0.000 F 
ENDBRANCH  12  16
ENDBRANCH   6   8
BRANCH   4  20
ATOM     20  C   UNL     1       1.209   9.006  19.276  0.00  0.00    +0.000 A 
ATOM     21  C   UNL     1       1.130   8.413  20.549  0.00  0.00    +0.000 A 
ATOM     22  C   UNL     1       1.841   7.242  20.831  0.00  0.00    +0.000 A 
ATOM     23  C   UNL     1       2.630   6.648  19.849  0.00  0.00    +0.000 A 
ATOM     24  C   UNL     1       2.708   7.224  18.581  0.00  0.00    +0.000 A 
ATOM     25  C   UNL     1       1.999   8.393  18.302  0.00  0.00    +0.000 A 
ATOM     26  F   UNL     1       2.122   8.915  17.073  0.00  0.00    +0.000 F 
ENDBRANCH   4  20
TORSDOF 3
ENDMDL
MODEL 4
REMARK VINA RESULT:      -6.8      4.019      7.914
REMARK  Name = 
REMARK  3 active torsions:
REMARK  status: ('A' for Active; 'I' for Inactive)
REMARK    1  A    between atoms: C_4  and  C_5
REMARK    2  A    between atoms: N_13  and  C_14
REMARK    3  A    between atoms: C_18  and  C_19
REMARK                            x       y       z     vdW  Elec       q    Type
REMARK                         _______ _______ _______ _____ _____    ______ ____
ROOT
ATOM      1  N   UNL     1       0.402  13.991  22.466  0.00  0.00    +0.000 NA
ATOM      2  C   UNL     1      -0.753  13.427  22.468  0.00  0.00    +0.000 A 
ATOM      3  S   UNL     1      -2.040  14.231  23.349  0.00  0.00    +0.000 S 
ATOM      4  C   UNL     1      -3.154  13.054  22.651  0.00  0.00    +0.000 A 
ATOM      5  N   UNL     1      -2.617  12.100  21.951  0.00  0.00    +0.000 NA
ATOM      6  N   UNL     1      -1.256  12.296  21.861  0.00  0.00    +0.000 N 
ATOM      7  H   UNL     1       0.339  14.817  23.066  0.00  0.00    +0.000 HD
ENDROOT
BRANCH   6   8
ATOM      8  C   UNL     1      -0.507  11.409  21.034  0.00  0.00    +0.000 A 
ATOM      9  C   UNL     1      -0.310  11.651  19.650  0.00  0.00    +0.000 A 
ATOM     10 CL   UNL     1      -0.877  13.078  18.837  0.00  0.00    +0.000 Cl
ATOM     11  C   UNL     1       0.427  10.767  18.839  0.00  0.00    +0.000 A 
ATOM     12  C   UNL     1       1.024   9.626  19.376  0.00  0.00    +0.000 A 
ATOM     13  C   UNL     1       0.845   9.368  20.737  0.00  0.00    +0.000 A 
ATOM     14  C   UNL     1       0.069  10.219  21.543  0.00  0.00    +0.000 A 
ATOM     15 CL   UNL     1      -0.257   9.616  23.138  0.00  0.00    +0.000 Cl
BRANCH  12  16
ATOM     16  C   UNL     1       1.833   8.679  18.523  0.00  0.00    +0.000 C 
ATOM     17  F   UNL     1       2.952   9.246  17.994  0.00  0.00    +0.000 F 
ATOM     18  F   UNL     1       2.256   7.589  19.218  0.00  0.00    +0.000 F 
ATOM     19  F   UNL     1       1.122   8.201  17.465  0.00  0.00    +0.000 F 
ENDBRANCH  12  16
ENDBRANCH   6   8
BRANCH   4  20
ATOM     20  C   UNL     1      -4.609  13.204  22.861  0.00  0.00    +0.000 A 
ATOM     21  C   UNL     1      -5.445  13.774  21.885  0.00  0.00    +0.000 A 
ATOM     22  C   UNL     1      -6.825  13.862  22.097  0.00  0.00    +0.000 A 
ATOM     23  C   UNL     1      -7.384  13.379  23.277  0.00  0.00    +0.000 A 
ATOM     24  C   UNL     1      -6.565  12.805  24.248  0.00  0.00    +0.000 A 
ATOM     25  C   UNL     1      -5.188  12.719  24.035  0.00  0.00    +0.000 A 
ATOM     26  F   UNL     1      -4.443  12.173  25.008  0.00  0.00    +0.000 F 
ENDBRANCH   4  20
TORSDOF 3
ENDMDL
MODEL 5
REMARK VINA RESULT:      -6.8      4.081      7.894
REMARK  Name = 
REMARK  3 active torsions:
REMARK  status: ('A' for Active; 'I' for Inactive)
REMARK    1  A    between atoms: C_4  and  C_5
REMARK    2  A    between atoms: N_13  and  C_14
REMARK    3  A    between atoms: C_18  and  C_19
REMARK                            x       y       z     vdW  Elec       q    Type
REMARK                         _______ _______ _______ _____ _____    ______ ____
ROOT
ATOM      1  N   UNL     1      -0.002  13.857  23.113  0.00  0.00    +0.000 NA
ATOM      2  C   UNL     1      -1.163  13.336  22.928  0.00  0.00    +0.000 A 
ATOM      3  S   UNL     1      -2.511  14.046  23.799  0.00  0.00    +0.000 S 
ATOM      4  C   UNL     1      -3.577  13.018  22.839  0.00  0.00    +0.000 A 
ATOM      5  N   UNL     1      -2.995  12.159  22.058  0.00  0.00    +0.000 NA
ATOM      6  N   UNL     1      -1.629  12.322  22.119  0.00  0.00    +0.000 N 
ATOM      7  H   UNL     1      -0.106  14.589  23.820  0.00  0.00    +0.000 HD
ENDROOT
BRANCH   6   8
ATOM      8  C   UNL     1      -0.822  11.539  21.242  0.00  0.00    +0.000 A 
ATOM      9  C   UNL     1      -0.170  10.355  21.673  0.00  0.00    +0.000 A 
ATOM     10 CL   UNL     1      -0.346   9.690  23.269  0.00  0.00    +0.000 Cl
ATOM     11  C   UNL     1       0.630   9.589  20.803  0.00  0.00    +0.000 A 
ATOM     12  C   UNL     1       0.786   9.950  19.464  0.00  0.00    +0.000 A 
ATOM     13  C   UNL     1       0.150  11.111  19.017  0.00  0.00    +0.000 A 
ATOM     14  C   UNL     1      -0.609  11.908  19.892  0.00  0.00    +0.000 A 
ATOM     15 CL   UNL     1      -1.110  13.436  19.237  0.00  0.00    +0.000 Cl
BRANCH  12  16
ATOM     16  C   UNL     1       1.624   9.129  18.515  0.00  0.00    +0.000 C 
ATOM     17  F   UNL     1       0.916   8.615  17.471  0.00  0.00    +0.000 F 
ATOM     18  F   UNL     1       2.637   9.850  17.963  0.00  0.00    +0.000 F 
ATOM     19  F   UNL     1       2.208   8.064  19.129  0.00  0.00    +0.000 F 
ENDBRANCH  12  16
ENDBRANCH   6   8
BRANCH   4  20
ATOM     20  C   UNL     1      -5.043  13.183  22.937  0.00  0.00    +0.000 A 
ATOM     21  C   UNL     1      -5.796  13.755  21.897  0.00  0.00    +0.000 A 
ATOM     22  C   UNL     1      -7.187  13.857  22.003  0.00  0.00    +0.000 A 
ATOM     23  C   UNL     1      -7.840  13.387  23.141  0.00  0.00    +0.000 A 
ATOM     24  C   UNL     1      -7.101  12.811  24.174  0.00  0.00    +0.000 A 
ATOM     25  C   UNL     1      -5.714  12.711  24.066  0.00  0.00    +0.000 A 
ATOM     26  F   UNL     1      -5.050  12.165  25.096  0.00  0.00    +0.000 F 
ENDBRANCH   4  20
TORSDOF 3
ENDMDL
MODEL 6
REMARK VINA RESULT:      -6.7      2.812      7.845
REMARK  Name = 
REMARK  3 active torsions:
REMARK  status: ('A' for Active; 'I' for Inactive)
REMARK    1  A    between atoms: C_4  and  C_5
REMARK    2  A    between atoms: N_13  and  C_14
REMARK    3  A    between atoms: C_18  and  C_19
REMARK                            x       y       z     vdW  Elec       q    Type
REMARK                         _______ _______ _______ _____ _____    ______ ____
ROOT
ATOM      1  N   UNL     1       1.508  12.172  20.449  0.00  0.00    +0.000 NA
ATOM      2  C   UNL     1       0.358  11.699  20.125  0.00  0.00    +0.000 A 
ATOM      3  S   UNL     1      -0.962  12.842  19.947  0.00  0.00    +0.000 S 
ATOM      4  C   UNL     1      -1.929  11.513  19.304  0.00  0.00    +0.000 A 
ATOM      5  N   UNL     1      -1.381  10.335  19.337  0.00  0.00    +0.000 NA
ATOM      6  N   UNL     1      -0.094  10.433  19.819  0.00  0.00    +0.000 N 
ATOM      7  H   UNL     1       1.392  13.178  20.600  0.00  0.00    +0.000 HD
ENDROOT
BRANCH   6   8
ATOM      8  C   UNL     1       0.708   9.254  19.824  0.00  0.00    +0.000 A 
ATOM      9  C   UNL     1       0.683   8.329  20.899  0.00  0.00    +0.000 A 
ATOM     10 CL   UNL     1      -0.375   8.481  22.270  0.00  0.00    +0.000 Cl
ATOM     11  C   UNL     1       1.482   7.170  20.900  0.00  0.00    +0.000 A 
ATOM     12  C   UNL     1       2.312   6.866  19.820  0.00  0.00    +0.000 A 
ATOM     13  C   UNL     1       2.352   7.762  18.749  0.00  0.00    +0.000 A 
ATOM     14  C   UNL     1       1.594   8.947  18.764  0.00  0.00    +0.000 A 
ATOM     15 CL   UNL     1       1.956  10.059  17.480  0.00  0.00    +0.000 Cl
BRANCH  12  16
ATOM     16  C   UNL     1       3.159   5.618  19.799  0.00  0.00    +0.000 C 
ATOM     17  F   UNL     1       2.968   4.813  20.880  0.00  0.00    +0.000 F 
ATOM     18  F   UNL     1       2.914   4.845  18.707  0.00  0.00    +0.000 F 
ATOM     19  F   UNL     1       4.491   5.897  19.773  0.00  0.00    +0.000 F 
ENDBRANCH  12  16
ENDBRANCH   6   8
BRANCH   4  20
ATOM     20  C   UNL     1      -3.271  11.782  18.747  0.00  0.00    +0.000 A 
ATOM     21  C   UNL     1      -4.293  12.360  19.522  0.00  0.00    +0.000 A 
ATOM     22  C   UNL     1      -5.540  12.641  18.953  0.00  0.00    +0.000 A 
ATOM     23  C   UNL     1      -5.778  12.356  17.610  0.00  0.00    +0.000 A 
ATOM     24  C   UNL     1      -4.768  11.791  16.833  0.00  0.00    +0.000 A 
ATOM     25  C   UNL     1      -3.526  11.510  17.402  0.00  0.00    +0.000 A 
ATOM     26  F   UNL     1      -2.595  10.951  16.614  0.00  0.00    +0.000 F 
ENDBRANCH   4  20
TORSDOF 3
ENDMDL
MODEL 7
REMARK VINA RESULT:      -6.7      1.490      2.528
REMARK  Name = 
REMARK  3 active torsions:
REMARK  status: ('A' for Active; 'I' for Inactive)
REMARK    1  A    between atoms: C_4  and  C_5
REMARK    2  A    between atoms: N_13  and  C_14
REMARK    3  A    between atoms: C_18  and  C_19
REMARK                            x       y       z     vdW  Elec       q    Type
REMARK                         _______ _______ _______ _____ _____    ______ ____
ROOT
ATOM      1  N   UNL     1      -0.810  14.295  19.106  0.00  0.00    +0.000 NA
ATOM      2  C   UNL     1      -0.760  13.011  19.070  0.00  0.00    +0.000 A 
ATOM      3  S   UNL     1       0.769  12.277  18.618  0.00  0.00    +0.000 S 
ATOM      4  C   UNL     1       0.068  10.719  19.060  0.00  0.00    +0.000 A 
ATOM      5  N   UNL     1      -1.191  10.726  19.382  0.00  0.00    +0.000 NA
ATOM      6  N   UNL     1      -1.669  12.018  19.370  0.00  0.00    +0.000 N 
ATOM      7  H   UNL     1       0.098  14.644  18.788  0.00  0.00    +0.000 HD
ENDROOT
BRANCH   6   8
ATOM      8  C   UNL     1      -3.008  12.240  19.807  0.00  0.00    +0.000 A 
ATOM      9  C   UNL     1      -4.120  12.080  18.941  0.00  0.00    +0.000 A 
ATOM     10 CL   UNL     1      -3.985  11.523  17.300  0.00  0.00    +0.000 Cl
ATOM     11  C   UNL     1      -5.439  12.305  19.377  0.00  0.00    +0.000 A 
ATOM     12  C   UNL     1      -5.709  12.665  20.698  0.00  0.00    +0.000 A 
ATOM     13  C   UNL     1      -4.629  12.826  21.570  0.00  0.00    +0.000 A 
ATOM     14  C   UNL     1      -3.306  12.652  21.128  0.00  0.00    +0.000 A 
ATOM     15 CL   UNL     1      -2.088  13.138  22.266  0.00  0.00    +0.000 Cl
BRANCH  12  16
ATOM     16  C   UNL     1      -7.119  12.892  21.185  0.00  0.00    +0.000 C 
ATOM     17  F   UNL     1      -7.917  13.511  20.272  0.00  0.00    +0.000 F 
ATOM     18  F   UNL     1      -7.749  11.729  21.505  0.00  0.00    +0.000 F 
ATOM     19  F   UNL     1      -7.163  13.665  22.304  0.00  0.00    +0.000 F 
ENDBRANCH  12  16
ENDBRANCH   6   8
BRANCH   4  20
ATOM     20  C   UNL     1       0.914   9.508  19.071  0.00  0.00    +0.000 A 
ATOM     21  C   UNL     1       1.640   9.099  17.937  0.00  0.00    +0.000 A 
ATOM     22  C   UNL     1       2.465   7.971  17.993  0.00  0.00    +0.000 A 
ATOM     23  C   UNL     1       2.581   7.246  19.176  0.00  0.00    +0.000 A 
ATOM     24  C   UNL     1       1.872   7.648  20.307  0.00  0.00    +0.000 A 
ATOM     25  C   UNL     1       1.048   8.772  20.250  0.00  0.00    +0.000 A 
ATOM     26  F   UNL     1       0.374   9.106  21.361  0.00  0.00    +0.000 F 
ENDBRANCH   4  20
TORSDOF 3
ENDMDL
MODEL 8
REMARK VINA RESULT:      -6.6      3.614      4.672
REMARK  Name = 
REMARK  3 active torsions:
REMARK  status: ('A' for Active; 'I' for Inactive)
REMARK    1  A    between atoms: C_4  and  C_5
REMARK    2  A    between atoms: N_13  and  C_14
REMARK    3  A    between atoms: C_18  and  C_19
REMARK                            x       y       z     vdW  Elec       q    Type
REMARK                         _______ _______ _______ _____ _____    ______ ____
ROOT
ATOM      1  N   UNL     1       1.963  10.697  17.910  0.00  0.00    +0.000 NA
ATOM      2  C   UNL     1       1.849   9.547  18.473  0.00  0.00    +0.000 A 
ATOM      3  S   UNL     1       2.786   8.225  17.798  0.00  0.00    +0.000 S 
ATOM      4  C   UNL     1       2.286   7.259  19.188  0.00  0.00    +0.000 A 
ATOM      5  N   UNL     1       1.423   7.809  19.989  0.00  0.00    +0.000 NA
ATOM      6  N   UNL     1       1.159   9.097  19.578  0.00  0.00    +0.000 N 
ATOM      7  H   UNL     1       2.574  10.580  17.098  0.00  0.00    +0.000 HD
ENDROOT
BRANCH   6   8
ATOM      8  C   UNL     1       0.317   9.901  20.400  0.00  0.00    +0.000 A 
ATOM      9  C   UNL     1       0.492   9.987  21.806  0.00  0.00    +0.000 A 
ATOM     10 CL   UNL     1       1.787   9.201  22.659  0.00  0.00    +0.000 Cl
ATOM     11  C   UNL     1      -0.346  10.779  22.612  0.00  0.00    +0.000 A 
ATOM     12  C   UNL     1      -1.372  11.543  22.052  0.00  0.00    +0.000 A 
ATOM     13  C   UNL     1      -1.562  11.476  20.670  0.00  0.00    +0.000 A 
ATOM     14  C   UNL     1      -0.760  10.649  19.864  0.00  0.00    +0.000 A 
ATOM     15 CL   UNL     1      -1.295  10.492  18.220  0.00  0.00    +0.000 Cl
BRANCH  12  16
ATOM     16  C   UNL     1      -2.266  12.411  22.902  0.00  0.00    +0.000 C 
ATOM     17  F   UNL     1      -3.155  13.148  22.179  0.00  0.00    +0.000 F 
ATOM     18  F   UNL     1      -3.009  11.685  23.780  0.00  0.00    +0.000 F 
ATOM     19  F   UNL     1      -1.563  13.304  23.650  0.00  0.00    +0.000 F 
ENDBRANCH  12  16
ENDBRANCH   6   8
BRANCH   4  20
ATOM     20  C   UNL     1       2.864   5.915  19.396  0.00  0.00    +0.000 A 
ATOM     21  C   UNL     1       4.132   5.568  18.898  0.00  0.00    +0.000 A 
ATOM     22  C   UNL     1       4.669   4.300  19.149  0.00  0.00    +0.000 A 
ATOM     23  C   UNL     1       3.953   3.373  19.902  0.00  0.00    +0.000 A 
ATOM     24  C   UNL     1       2.698   3.711  20.406  0.00  0.00    +0.000 A 
ATOM     25  C   UNL     1       2.164   4.975  20.154  0.00  0.00    +0.000 A 
ATOM     26  F   UNL     1       0.946   5.243  20.648  0.00  0.00    +0.000 F 
ENDBRANCH   4  20
TORSDOF 3
ENDMDL
MODEL 9
REMARK VINA RESULT:      -6.6      2.149      2.720
REMARK  Name = 
REMARK  3 active torsions:
REMARK  status: ('A' for Active; 'I' for Inactive)
REMARK    1  A    between atoms: C_4  and  C_5
REMARK    2  A    between atoms: N_13  and  C_14
REMARK    3  A    between atoms: C_18  and  C_19
REMARK                            x       y       z     vdW  Elec       q    Type
REMARK                         _______ _______ _______ _____ _____    ______ ____
ROOT
ATOM      1  N   UNL     1      -0.245  14.335  19.897  0.00  0.00    +0.000 NA
ATOM      2  C   UNL     1      -0.284  13.062  19.718  0.00  0.00    +0.000 A 
ATOM      3  S   UNL     1       1.128  12.307  18.999  0.00  0.00    +0.000 S 
ATOM      4  C   UNL     1       0.385  10.747  19.357  0.00  0.00    +0.000 A 
ATOM      5  N   UNL     1      -0.823  10.783  19.835  0.00  0.00    +0.000 NA
ATOM      6  N   UNL     1      -1.213  12.091  20.023  0.00  0.00    +0.000 N 
ATOM      7  H   UNL     1       0.639  14.671  19.505  0.00  0.00    +0.000 HD
ENDROOT
BRANCH   6   8
ATOM      8  C   UNL     1      -2.472  12.329  20.647  0.00  0.00    +0.000 A 
ATOM      9  C   UNL     1      -2.594  12.536  22.046  0.00  0.00    +0.000 A 
ATOM     10 CL   UNL     1      -1.235  12.605  23.127  0.00  0.00    +0.000 Cl
ATOM     11  C   UNL     1      -3.842  12.766  22.656  0.00  0.00    +0.000 A 
ATOM     12  C   UNL     1      -5.012  12.833  21.899  0.00  0.00    +0.000 A 
ATOM     13  C   UNL     1      -4.916  12.635  20.520  0.00  0.00    +0.000 A 
ATOM     14  C   UNL     1      -3.680  12.355  19.910  0.00  0.00    +0.000 A 
ATOM     15 CL   UNL     1      -3.781  11.886  18.241  0.00  0.00    +0.000 Cl
BRANCH  12  16
ATOM     16  C   UNL     1      -6.354  13.097  22.537  0.00  0.00    +0.000 C 
ATOM     17  F   UNL     1      -6.479  12.559  23.782  0.00  0.00    +0.000 F 
ATOM     18  F   UNL     1      -6.607  14.427  22.677  0.00  0.00    +0.000 F 
ATOM     19  F   UNL     1      -7.384  12.591  21.806  0.00  0.00    +0.000 F 
ENDBRANCH  12  16
ENDBRANCH   6   8
BRANCH   4  20
ATOM     20  C   UNL     1       1.145   9.500  19.131  0.00  0.00    +0.000 A 
ATOM     21  C   UNL     1       1.763   9.222  17.898  0.00  0.00    +0.000 A 
ATOM     22  C   UNL     1       2.512   8.052  17.730  0.00  0.00    +0.000 A 
ATOM     23  C   UNL     1       2.657   7.155  18.785  0.00  0.00    +0.000 A 
ATOM     24  C   UNL     1       2.054   7.426  20.012  0.00  0.00    +0.000 A 
ATOM     25  C   UNL     1       1.307   8.593  20.179  0.00  0.00    +0.000 A 
ATOM     26  F   UNL     1       0.733   8.797  21.374  0.00  0.00    +0.000 F 
ENDBRANCH   4  20
TORSDOF 3
ENDMDL
