MODEL 1
REMARK VINA RESULT:      -8.0      0.000      0.000
REMARK  Name = 
REMARK  14 active torsions:
REMARK  status: ('A' for Active; 'I' for Inactive)
REMARK    1  A    between atoms: C_1  and  C_2
REMARK    2  A    between atoms: C_2  and  C_3
REMARK    3  A    between atoms: C_3  and  C_4
REMARK    4  A    between atoms: C_4  and  C_5
REMARK    5  A    between atoms: C_5  and  C_6
REMARK    6  A    between atoms: C_6  and  N_7
REMARK    7  A    between atoms: C_8  and  O_10
REMARK    8  A    between atoms: O_10  and  C_11
REMARK    9  A    between atoms: C_15  and  C_16
REMARK   10  A    between atoms: C_18  and  C_19
REMARK   11  A    between atoms: C_19  and  O_21
REMARK   12  A    between atoms: O_21  and  C_22
REMARK   13  A    between atoms: C_22  and  C_23
REMARK   14  A    between atoms: N_25  and  C_26
REMARK                            x       y       z     vdW  Elec       q    Type
REMARK                         _______ _______ _______ _____ _____    ______ ____
ROOT
ATOM      1  C   UNL     1       1.596   8.430  20.226  0.00  0.00    +0.000 A 
ATOM      2  C   UNL     1       1.042   9.412  19.396  0.00  0.00    +0.000 A 
ATOM      3  C   UNL     1       1.298   9.401  18.042  0.00  0.00    +0.000 A 
ATOM      4  C   UNL     1       2.129   8.425  17.517  0.00  0.00    +0.000 A 
ATOM      5  C   UNL     1       2.757   7.469  18.341  0.00  0.00    +0.000 A 
ATOM      6  C   UNL     1       2.466   7.473  19.713  0.00  0.00    +0.000 A 
ENDROOT
BRANCH   5   7
ATOM      7  C   UNL     1       3.694   6.487  17.778  0.00  0.00    +0.000 A 
ATOM      8  C   UNL     1       4.734   6.697  16.891  0.00  0.00    +0.000 A 
ATOM      9  C   UNL     1       5.423   5.469  16.783  0.00  0.00    +0.000 A 
ATOM     10  N   UNL     1       4.866   4.545  17.587  0.00  0.00    +0.000 NA
ATOM     11  N   UNL     1       3.746   5.127  18.076  0.00  0.00    +0.000 N 
BRANCH  11  12
ATOM     12  C   UNL     1       2.788   4.321  18.755  0.00  0.00    +0.000 A 
ATOM     13  C   UNL     1       2.948   4.060  20.120  0.00  0.00    +0.000 A 
ATOM     14  C   UNL     1       1.988   3.299  20.793  0.00  0.00    +0.000 A 
ATOM     15  C   UNL     1       0.894   2.776  20.104  0.00  0.00    +0.000 A 
ATOM     16  C   UNL     1       0.740   3.016  18.744  0.00  0.00    +0.000 A 
ATOM     17  C   UNL     1       1.687   3.783  18.070  0.00  0.00    +0.000 A 
ENDBRANCH  11  12
BRANCH   9  18
ATOM     18  C   UNL     1       6.570   5.171  15.915  0.00  0.00    +0.000 C 
ATOM     19  O   UNL     1       7.544   5.930  15.814  0.00  0.00    +0.000 OA
BRANCH  18  20
ATOM     20  O   UNL     1       6.372   4.066  15.139  0.00  0.00    +0.000 OA
BRANCH  20  21
ATOM     21  C   UNL     1       6.635   4.241  13.746  0.00  0.00    +0.000 C 
ATOM     22  C   UNL     1       5.554   3.512  12.965  0.00  0.00    +0.000 C 
ENDBRANCH  20  21
ENDBRANCH  18  20
ENDBRANCH   9  18
ENDBRANCH   5   7
BRANCH   1  23
ATOM     23  O   UNL     1       1.348   8.484  21.605  0.00  0.00    +0.000 OA
BRANCH  23  25
ATOM     24  N   UNL     1       0.052  10.156  22.418  0.00  0.00    +0.000 N 
ATOM     25  C   UNL     1       0.063   8.872  21.977  0.00  0.00    +0.000 C 
ATOM     26  O   UNL     1      -0.959   8.180  21.869  0.00  0.00    +0.000 OA
ATOM     27  H   UNL     1       0.802  10.761  22.096  0.00  0.00    +0.000 HD
BRANCH  24  28
ATOM     28  C   UNL     1      -1.090  10.699  23.115  0.00  0.00    +0.000 C 
BRANCH  28  29
ATOM     29  C   UNL     1      -1.731  11.839  22.314  0.00  0.00    +0.000 C 
BRANCH  29  30
ATOM     30  C   UNL     1      -0.722  12.439  21.334  0.00  0.00    +0.000 C 
BRANCH  30  31
ATOM     31  C   UNL     1      -1.221  12.379  19.890  0.00  0.00    +0.000 C 
BRANCH  31  33
ATOM     32  C   UNL     1       0.829  13.081  18.605  0.00  0.00    +0.000 C 
ATOM     33  C   UNL     1      -0.579  13.468  19.031  0.00  0.00    +0.000 C 
ENDBRANCH  31  33
ENDBRANCH  30  31
ENDBRANCH  29  30
ENDBRANCH  28  29
ENDBRANCH  24  28
ENDBRANCH  23  25
ENDBRANCH   1  23
TORSDOF 12
ENDMDL
MODEL 2
REMARK VINA RESULT:      -7.9      1.592      2.489
REMARK  Name = 
REMARK  14 active torsions:
REMARK  status: ('A' for Active; 'I' for Inactive)
REMARK    1  A    between atoms: C_1  and  C_2
REMARK    2  A    between atoms: C_2  and  C_3
REMARK    3  A    between atoms: C_3  and  C_4
REMARK    4  A    between atoms: C_4  and  C_5
REMARK    5  A    between atoms: C_5  and  C_6
REMARK    6  A    between atoms: C_6  and  N_7
REMARK    7  A    between atoms: C_8  and  O_10
REMARK    8  A    between atoms: O_10  and  C_11
REMARK    9  A    between atoms: C_15  and  C_16
REMARK   10  A    between atoms: C_18  and  C_19
REMARK   11  A    between atoms: C_19  and  O_21
REMARK   12  A    between atoms: O_21  and  C_22
REMARK   13  A    between atoms: C_22  and  C_23
REMARK   14  A    between atoms: N_25  and  C_26
REMARK                            x       y       z     vdW  Elec       q    Type
REMARK                         _______ _______ _______ _____ _____    ______ ____
ROOT
ATOM      1  C   UNL     1       1.767   9.068  18.402  0.00  0.00    +0.000 A 
ATOM      2  C   UNL     1       1.369   8.784  19.714  0.00  0.00    +0.000 A 
ATOM      3  C   UNL     1       1.833   7.652  20.348  0.00  0.00    +0.000 A 
ATOM      4  C   UNL     1       2.673   6.787  19.666  0.00  0.00    +0.000 A 
ATOM      5  C   UNL     1       3.030   7.014  18.321  0.00  0.00    +0.000 A 
ATOM      6  C   UNL     1       2.575   8.184  17.695  0.00  0.00    +0.000 A 
ENDROOT
BRANCH   5   7
ATOM      7  C   UNL     1       3.863   6.049  17.589  0.00  0.00    +0.000 A 
ATOM      8  C   UNL     1       4.798   6.293  16.599  0.00  0.00    +0.000 A 
ATOM      9  C   UNL     1       5.430   5.059  16.333  0.00  0.00    +0.000 A 
ATOM     10  N   UNL     1       4.943   4.097  17.138  0.00  0.00    +0.000 NA
ATOM     11  N   UNL     1       3.907   4.672  17.793  0.00  0.00    +0.000 N 
BRANCH  11  12
ATOM     12  C   UNL     1       3.011   3.845  18.528  0.00  0.00    +0.000 A 
ATOM     13  C   UNL     1       3.393   3.355  19.782  0.00  0.00    +0.000 A 
ATOM     14  C   UNL     1       2.498   2.575  20.519  0.00  0.00    +0.000 A 
ATOM     15  C   UNL     1       1.244   2.258  19.996  0.00  0.00    +0.000 A 
ATOM     16  C   UNL     1       0.866   2.726  18.743  0.00  0.00    +0.000 A 
ATOM     17  C   UNL     1       1.749   3.513  18.009  0.00  0.00    +0.000 A 
ENDBRANCH  11  12
BRANCH   9  18
ATOM     18  C   UNL     1       6.459   4.793  15.318  0.00  0.00    +0.000 C 
ATOM     19  O   UNL     1       7.406   5.563  15.111  0.00  0.00    +0.000 OA
BRANCH  18  20
ATOM     20  O   UNL     1       6.170   3.703  14.548  0.00  0.00    +0.000 OA
BRANCH  20  21
ATOM     21  C   UNL     1       6.468   3.839  13.158  0.00  0.00    +0.000 C 
ATOM     22  C   UNL     1       5.238   3.423  12.368  0.00  0.00    +0.000 C 
ENDBRANCH  20  21
ENDBRANCH  18  20
ENDBRANCH   9  18
ENDBRANCH   5   7
BRANCH   1  23
ATOM     23  O   UNL     1       1.254  10.209  17.766  0.00  0.00    +0.000 OA
BRANCH  23  25
ATOM     24  N   UNL     1      -0.350  11.595  18.569  0.00  0.00    +0.000 N 
ATOM     25  C   UNL     1      -0.114  10.426  17.919  0.00  0.00    +0.000 C 
ATOM     26  O   UNL     1      -1.013   9.698  17.475  0.00  0.00    +0.000 OA
ATOM     27  H   UNL     1       0.378  12.302  18.526  0.00  0.00    +0.000 HD
BRANCH  24  28
ATOM     28  C   UNL     1      -1.659  11.909  19.091  0.00  0.00    +0.000 C 
BRANCH  28  29
ATOM     29  C   UNL     1      -1.552  12.659  20.425  0.00  0.00    +0.000 C 
BRANCH  29  30
ATOM     30  C   UNL     1      -0.409  12.092  21.269  0.00  0.00    +0.000 C 
BRANCH  30  31
ATOM     31  C   UNL     1      -0.846  11.805  22.705  0.00  0.00    +0.000 C 
BRANCH  31  33
ATOM     32  C   UNL     1       0.158   9.556  23.241  0.00  0.00    +0.000 C 
ATOM     33  C   UNL     1      -1.120  10.316  22.918  0.00  0.00    +0.000 C 
ENDBRANCH  31  33
ENDBRANCH  30  31
ENDBRANCH  29  30
ENDBRANCH  28  29
ENDBRANCH  24  28
ENDBRANCH  23  25
ENDBRANCH   1  23
TORSDOF 12
ENDMDL
MODEL 3
REMARK VINA RESULT:      -7.8      1.006      1.456
REMARK  Name = 
REMARK  14 active torsions:
REMARK  status: ('A' for Active; 'I' for Inactive)
REMARK    1  A    between atoms: C_1  and  C_2
REMARK    2  A    between atoms: C_2  and  C_3
REMARK    3  A    between atoms: C_3  and  C_4
REMARK    4  A    between atoms: C_4  and  C_5
REMARK    5  A    between atoms: C_5  and  C_6
REMARK    6  A    between atoms: C_6  and  N_7
REMARK    7  A    between atoms: C_8  and  O_10
REMARK    8  A    between atoms: O_10  and  C_11
REMARK    9  A    between atoms: C_15  and  C_16
REMARK   10  A    between atoms: C_18  and  C_19
REMARK   11  A    between atoms: C_19  and  O_21
REMARK   12  A    between atoms: O_21  and  C_22
REMARK   13  A    between atoms: C_22  and  C_23
REMARK   14  A    between atoms: N_25  and  C_26
REMARK                            x       y       z     vdW  Elec       q    Type
REMARK                         _______ _______ _______ _____ _____    ______ ____
ROOT
ATOM      1  C   UNL     1       1.365   8.209  20.028  0.00  0.00    +0.000 A 
ATOM      2  C   UNL     1       1.185   9.254  19.114  0.00  0.00    +0.000 A 
ATOM      3  C   UNL     1       1.879   9.261  17.923  0.00  0.00    +0.000 A 
ATOM      4  C   UNL     1       2.774   8.238  17.654  0.00  0.00    +0.000 A 
ATOM      5  C   UNL     1       3.026   7.214  18.589  0.00  0.00    +0.000 A 
ATOM      6  C   UNL     1       2.293   7.202  19.784  0.00  0.00    +0.000 A 
ENDROOT
BRANCH   5   7
ATOM      7  C   UNL     1       4.033   6.177  18.318  0.00  0.00    +0.000 A 
ATOM      8  C   UNL     1       5.264   6.310  17.702  0.00  0.00    +0.000 A 
ATOM      9  C   UNL     1       5.910   5.061  17.823  0.00  0.00    +0.000 A 
ATOM     10  N   UNL     1       5.140   4.198  18.511  0.00  0.00    +0.000 NA
ATOM     11  N   UNL     1       3.958   4.836  18.684  0.00  0.00    +0.000 N 
BRANCH  11  12
ATOM     12  C   UNL     1       2.834   4.093  19.147  0.00  0.00    +0.000 A 
ATOM     13  C   UNL     1       1.886   3.631  18.229  0.00  0.00    +0.000 A 
ATOM     14  C   UNL     1       0.803   2.870  18.680  0.00  0.00    +0.000 A 
ATOM     15  C   UNL     1       0.651   2.600  20.040  0.00  0.00    +0.000 A 
ATOM     16  C   UNL     1       1.580   3.072  20.959  0.00  0.00    +0.000 A 
ATOM     17  C   UNL     1       2.666   3.821  20.514  0.00  0.00    +0.000 A 
ENDBRANCH  11  12
BRANCH   9  18
ATOM     18  C   UNL     1       7.221   4.685  17.276  0.00  0.00    +0.000 C 
ATOM     19  O   UNL     1       8.185   4.395  17.997  0.00  0.00    +0.000 OA
BRANCH  18  20
ATOM     20  O   UNL     1       7.291   4.839  15.922  0.00  0.00    +0.000 OA
BRANCH  20  21
ATOM     21  C   UNL     1       6.599   3.852  15.157  0.00  0.00    +0.000 C 
ATOM     22  C   UNL     1       5.574   4.560  14.287  0.00  0.00    +0.000 C 
ENDBRANCH  20  21
ENDBRANCH  18  20
ENDBRANCH   9  18
ENDBRANCH   5   7
BRANCH   1  23
ATOM     23  O   UNL     1       0.673   8.243  21.247  0.00  0.00    +0.000 OA
BRANCH  23  25
ATOM     24  N   UNL     1      -0.506   9.887  22.270  0.00  0.00    +0.000 N 
ATOM     25  C   UNL     1       0.737   9.445  21.949  0.00  0.00    +0.000 C 
ATOM     26  O   UNL     1       1.778  10.019  22.300  0.00  0.00    +0.000 OA
ATOM     27  H   UNL     1      -1.244   9.192  22.321  0.00  0.00    +0.000 HD
BRANCH  24  28
ATOM     28  C   UNL     1      -0.721  11.233  22.748  0.00  0.00    +0.000 C 
BRANCH  28  29
ATOM     29  C   UNL     1      -2.063  11.784  22.251  0.00  0.00    +0.000 C 
BRANCH  29  30
ATOM     30  C   UNL     1      -1.839  12.883  21.210  0.00  0.00    +0.000 C 
BRANCH  30  31
ATOM     31  C   UNL     1      -2.441  12.516  19.853  0.00  0.00    +0.000 C 
BRANCH  31  33
ATOM     32  C   UNL     1      -0.178  12.751  18.770  0.00  0.00    +0.000 C 
ATOM     33  C   UNL     1      -1.403  11.865  18.939  0.00  0.00    +0.000 C 
ENDBRANCH  31  33
ENDBRANCH  30  31
ENDBRANCH  29  30
ENDBRANCH  28  29
ENDBRANCH  24  28
ENDBRANCH  23  25
ENDBRANCH   1  23
TORSDOF 12
ENDMDL
MODEL 4
REMARK VINA RESULT:      -7.8      1.198      1.892
REMARK  Name = 
REMARK  14 active torsions:
REMARK  status: ('A' for Active; 'I' for Inactive)
REMARK    1  A    between atoms: C_1  and  C_2
REMARK    2  A    between atoms: C_2  and  C_3
REMARK    3  A    between atoms: C_3  and  C_4
REMARK    4  A    between atoms: C_4  and  C_5
REMARK    5  A    between atoms: C_5  and  C_6
REMARK    6  A    between atoms: C_6  and  N_7
REMARK    7  A    between atoms: C_8  and  O_10
REMARK    8  A    between atoms: O_10  and  C_11
REMARK    9  A    between atoms: C_15  and  C_16
REMARK   10  A    between atoms: C_18  and  C_19
REMARK   11  A    between atoms: C_19  and  O_21
REMARK   12  A    between atoms: O_21  and  C_22
REMARK   13  A    between atoms: C_22  and  C_23
REMARK   14  A    between atoms: N_25  and  C_26
REMARK                            x       y       z     vdW  Elec       q    Type
REMARK                         _______ _______ _______ _____ _____    ______ ____
ROOT
ATOM      1  C   UNL     1       1.684   8.178  20.137  0.00  0.00    +0.000 A 
ATOM      2  C   UNL     1       1.214   9.240  19.356  0.00  0.00    +0.000 A 
ATOM      3  C   UNL     1       1.511   9.296  18.011  0.00  0.00    +0.000 A 
ATOM      4  C   UNL     1       2.301   8.306  17.450  0.00  0.00    +0.000 A 
ATOM      5  C   UNL     1       2.848   7.267  18.230  0.00  0.00    +0.000 A 
ATOM      6  C   UNL     1       2.514   7.204  19.591  0.00  0.00    +0.000 A 
ENDROOT
BRANCH   5   7
ATOM      7  C   UNL     1       3.744   6.266  17.632  0.00  0.00    +0.000 A 
ATOM      8  C   UNL     1       4.716   6.448  16.665  0.00  0.00    +0.000 A 
ATOM      9  C   UNL     1       5.399   5.218  16.548  0.00  0.00    +0.000 A 
ATOM     10  N   UNL     1       4.905   4.320  17.421  0.00  0.00    +0.000 NA
ATOM     11  N   UNL     1       3.822   4.918  17.971  0.00  0.00    +0.000 N 
BRANCH  11  12
ATOM     12  C   UNL     1       2.919   4.133  18.744  0.00  0.00    +0.000 A 
ATOM     13  C   UNL     1       3.273   3.750  20.042  0.00  0.00    +0.000 A 
ATOM     14  C   UNL     1       2.370   3.012  20.813  0.00  0.00    +0.000 A 
ATOM     15  C   UNL     1       1.137   2.632  20.282  0.00  0.00    +0.000 A 
ATOM     16  C   UNL     1       0.788   2.994  18.987  0.00  0.00    +0.000 A 
ATOM     17  C   UNL     1       1.678   3.738  18.218  0.00  0.00    +0.000 A 
ENDBRANCH  11  12
BRANCH   9  18
ATOM     18  C   UNL     1       6.481   4.892  15.609  0.00  0.00    +0.000 C 
ATOM     19  O   UNL     1       7.512   5.573  15.518  0.00  0.00    +0.000 OA
BRANCH  18  20
ATOM     20  O   UNL     1       6.158   3.868  14.766  0.00  0.00    +0.000 OA
BRANCH  20  21
ATOM     21  C   UNL     1       6.573   4.037  13.410  0.00  0.00    +0.000 C 
ATOM     22  C   UNL     1       5.566   3.333  12.516  0.00  0.00    +0.000 C 
ENDBRANCH  20  21
ENDBRANCH  18  20
ENDBRANCH   9  18
ENDBRANCH   5   7
BRANCH   1  23
ATOM     23  O   UNL     1       1.397   8.162  21.510  0.00  0.00    +0.000 OA
BRANCH  23  25
ATOM     24  N   UNL     1       0.228   9.848  22.474  0.00  0.00    +0.000 N 
ATOM     25  C   UNL     1       0.137   8.634  21.873  0.00  0.00    +0.000 C 
ATOM     26  O   UNL     1      -0.940   8.071  21.633  0.00  0.00    +0.000 OA
ATOM     27  H   UNL     1       1.050  10.407  22.264  0.00  0.00    +0.000 HD
BRANCH  24  28
ATOM     28  C   UNL     1      -0.893  10.417  23.184  0.00  0.00    +0.000 C 
BRANCH  28  29
ATOM     29  C   UNL     1      -1.074  11.898  22.828  0.00  0.00    +0.000 C 
BRANCH  29  30
ATOM     30  C   UNL     1      -2.508  12.168  22.369  0.00  0.00    +0.000 C 
BRANCH  30  31
ATOM     31  C   UNL     1      -3.309  12.941  23.417  0.00  0.00    +0.000 C 
BRANCH  31  33
ATOM     32  C   UNL     1      -4.834  14.902  23.837  0.00  0.00    +0.000 C 
ATOM     33  C   UNL     1      -4.056  14.119  22.791  0.00  0.00    +0.000 C 
ENDBRANCH  31  33
ENDBRANCH  30  31
ENDBRANCH  29  30
ENDBRANCH  28  29
ENDBRANCH  24  28
ENDBRANCH  23  25
ENDBRANCH   1  23
TORSDOF 12
ENDMDL
MODEL 5
REMARK VINA RESULT:      -7.7      0.670      1.100
REMARK  Name = 
REMARK  14 active torsions:
REMARK  status: ('A' for Active; 'I' for Inactive)
REMARK    1  A    between atoms: C_1  and  C_2
REMARK    2  A    between atoms: C_2  and  C_3
REMARK    3  A    between atoms: C_3  and  C_4
REMARK    4  A    between atoms: C_4  and  C_5
REMARK    5  A    between atoms: C_5  and  C_6
REMARK    6  A    between atoms: C_6  and  N_7
REMARK    7  A    between atoms: C_8  and  O_10
REMARK    8  A    between atoms: O_10  and  C_11
REMARK    9  A    between atoms: C_15  and  C_16
REMARK   10  A    between atoms: C_18  and  C_19
REMARK   11  A    between atoms: C_19  and  O_21
REMARK   12  A    between atoms: O_21  and  C_22
REMARK   13  A    between atoms: C_22  and  C_23
REMARK   14  A    between atoms: N_25  and  C_26
REMARK                            x       y       z     vdW  Elec       q    Type
REMARK                         _______ _______ _______ _____ _____    ______ ____
ROOT
ATOM      1  C   UNL     1       1.720   8.138  20.204  0.00  0.00    +0.000 A 
ATOM      2  C   UNL     1       1.271   9.141  19.337  0.00  0.00    +0.000 A 
ATOM      3  C   UNL     1       1.575   9.084  17.994  0.00  0.00    +0.000 A 
ATOM      4  C   UNL     1       2.352   8.040  17.519  0.00  0.00    +0.000 A 
ATOM      5  C   UNL     1       2.878   7.058  18.383  0.00  0.00    +0.000 A 
ATOM      6  C   UNL     1       2.537   7.110  19.742  0.00  0.00    +0.000 A 
ENDROOT
BRANCH   5   7
ATOM      7  C   UNL     1       3.761   5.999  17.873  0.00  0.00    +0.000 A 
ATOM      8  C   UNL     1       4.758   6.093  16.919  0.00  0.00    +0.000 A 
ATOM      9  C   UNL     1       5.411   4.842  16.898  0.00  0.00    +0.000 A 
ATOM     10  N   UNL     1       4.875   4.016  17.815  0.00  0.00    +0.000 NA
ATOM     11  N   UNL     1       3.796   4.674  18.300  0.00  0.00    +0.000 N 
BRANCH  11  12
ATOM     12  C   UNL     1       2.856   3.965  19.101  0.00  0.00    +0.000 A 
ATOM     13  C   UNL     1       1.643   3.551  18.540  0.00  0.00    +0.000 A 
ATOM     14  C   UNL     1       0.738   2.822  19.316  0.00  0.00    +0.000 A 
ATOM     15  C   UNL     1       1.026   2.535  20.650  0.00  0.00    +0.000 A 
ATOM     16  C   UNL     1       2.221   2.960  21.218  0.00  0.00    +0.000 A 
ATOM     17  C   UNL     1       3.132   3.677  20.447  0.00  0.00    +0.000 A 
ENDBRANCH  11  12
BRANCH   9  18
ATOM     18  C   UNL     1       6.504   4.429  16.008  0.00  0.00    +0.000 C 
ATOM     19  O   UNL     1       7.676   4.793  16.178  0.00  0.00    +0.000 OA
BRANCH  18  20
ATOM     20  O   UNL     1       6.064   3.740  14.914  0.00  0.00    +0.000 OA
BRANCH  20  21
ATOM     21  C   UNL     1       6.391   4.322  13.652  0.00  0.00    +0.000 C 
ATOM     22  C   UNL     1       6.031   3.325  12.563  0.00  0.00    +0.000 C 
ENDBRANCH  20  21
ENDBRANCH  18  20
ENDBRANCH   9  18
ENDBRANCH   5   7
BRANCH   1  23
ATOM     23  O   UNL     1       1.426   8.237  21.572  0.00  0.00    +0.000 OA
BRANCH  23  25
ATOM     24  N   UNL     1       0.211   9.921  22.480  0.00  0.00    +0.000 N 
ATOM     25  C   UNL     1       0.151   8.701  21.888  0.00  0.00    +0.000 C 
ATOM     26  O   UNL     1      -0.912   8.125  21.617  0.00  0.00    +0.000 OA
ATOM     27  H   UNL     1       1.035  10.485  22.293  0.00  0.00    +0.000 HD
BRANCH  24  28
ATOM     28  C   UNL     1      -0.938  10.487  23.147  0.00  0.00    +0.000 C 
BRANCH  28  29
ATOM     29  C   UNL     1      -1.579  11.589  22.295  0.00  0.00    +0.000 C 
BRANCH  29  30
ATOM     30  C   UNL     1      -0.729  12.859  22.332  0.00  0.00    +0.000 C 
BRANCH  30  31
ATOM     31  C   UNL     1       0.095  13.034  21.057  0.00  0.00    +0.000 C 
BRANCH  31  33
ATOM     32  C   UNL     1      -0.020  13.950  18.712  0.00  0.00    +0.000 C 
ATOM     33  C   UNL     1      -0.507  14.104  20.145  0.00  0.00    +0.000 C 
ENDBRANCH  31  33
ENDBRANCH  30  31
ENDBRANCH  29  30
ENDBRANCH  28  29
ENDBRANCH  24  28
ENDBRANCH  23  25
ENDBRANCH   1  23
TORSDOF 12
ENDMDL
MODEL 6
REMARK VINA RESULT:      -7.7      1.149      2.056
REMARK  Name = 
REMARK  14 active torsions:
REMARK  status: ('A' for Active; 'I' for Inactive)
REMARK    1  A    between atoms: C_1  and  C_2
REMARK    2  A    between atoms: C_2  and  C_3
REMARK    3  A    between atoms: C_3  and  C_4
REMARK    4  A    between atoms: C_4  and  C_5
REMARK    5  A    between atoms: C_5  and  C_6
REMARK    6  A    between atoms: C_6  and  N_7
REMARK    7  A    between atoms: C_8  and  O_10
REMARK    8  A    between atoms: O_10  and  C_11
REMARK    9  A    between atoms: C_15  and  C_16
REMARK   10  A    between atoms: C_18  and  C_19
REMARK   11  A    between atoms: C_19  and  O_21
REMARK   12  A    between atoms: O_21  and  C_22
REMARK   13  A    between atoms: C_22  and  C_23
REMARK   14  A    between atoms: N_25  and  C_26
REMARK                            x       y       z     vdW  Elec       q    Type
REMARK                         _______ _______ _______ _____ _____    ______ ____
ROOT
ATOM      1  C   UNL     1       1.200   8.273  20.151  0.00  0.00    +0.000 A 
ATOM      2  C   UNL     1       0.903   9.439  19.435  0.00  0.00    +0.000 A 
ATOM      3  C   UNL     1       1.477   9.659  18.201  0.00  0.00    +0.000 A 
ATOM      4  C   UNL     1       2.368   8.729  17.691  0.00  0.00    +0.000 A 
ATOM      5  C   UNL     1       2.738   7.583  18.425  0.00  0.00    +0.000 A 
ATOM      6  C   UNL     1       2.126   7.356  19.666  0.00  0.00    +0.000 A 
ENDROOT
BRANCH   5   7
ATOM      7  C   UNL     1       3.741   6.644  17.901  0.00  0.00    +0.000 A 
ATOM      8  C   UNL     1       4.821   6.906  17.079  0.00  0.00    +0.000 A 
ATOM      9  C   UNL     1       5.559   5.706  16.992  0.00  0.00    +0.000 A 
ATOM     10  N   UNL     1       4.992   4.749  17.749  0.00  0.00    +0.000 NA
ATOM     11  N   UNL     1       3.825   5.283  18.182  0.00  0.00    +0.000 N 
BRANCH  11  12
ATOM     12  C   UNL     1       2.861   4.431  18.793  0.00  0.00    +0.000 A 
ATOM     13  C   UNL     1       1.774   3.968  18.043  0.00  0.00    +0.000 A 
ATOM     14  C   UNL     1       0.849   3.102  18.632  0.00  0.00    +0.000 A 
ATOM     15  C   UNL     1       0.989   2.726  19.968  0.00  0.00    +0.000 A 
ATOM     16  C   UNL     1       2.055   3.198  20.724  0.00  0.00    +0.000 A 
ATOM     17  C   UNL     1       2.987   4.052  20.139  0.00  0.00    +0.000 A 
ENDBRANCH  11  12
BRANCH   9  18
ATOM     18  C   UNL     1       6.764   5.464  16.187  0.00  0.00    +0.000 C 
ATOM     19  O   UNL     1       7.708   6.264  16.143  0.00  0.00    +0.000 OA
BRANCH  18  20
ATOM     20  O   UNL     1       6.657   4.356  15.396  0.00  0.00    +0.000 OA
BRANCH  20  21
ATOM     21  C   UNL     1       6.838   4.583  13.997  0.00  0.00    +0.000 C 
ATOM     22  C   UNL     1       5.801   3.764  13.247  0.00  0.00    +0.000 C 
ENDBRANCH  20  21
ENDBRANCH  18  20
ENDBRANCH   9  18
ENDBRANCH   5   7
BRANCH   1  23
ATOM     23  O   UNL     1       0.630   8.089  21.419  0.00  0.00    +0.000 OA
BRANCH  23  25
ATOM     24  N   UNL     1      -0.613   9.660  22.480  0.00  0.00    +0.000 N 
ATOM     25  C   UNL     1       0.646   9.200  22.260  0.00  0.00    +0.000 C 
ATOM     26  O   UNL     1       1.653   9.682  22.797  0.00  0.00    +0.000 OA
ATOM     27  H   UNL     1      -1.373   8.998  22.361  0.00  0.00    +0.000 HD
BRANCH  24  28
ATOM     28  C   UNL     1      -0.842  10.952  23.083  0.00  0.00    +0.000 C 
BRANCH  28  29
ATOM     29  C   UNL     1      -1.516  11.908  22.092  0.00  0.00    +0.000 C 
BRANCH  29  30
ATOM     30  C   UNL     1      -0.833  13.277  22.118  0.00  0.00    +0.000 C 
BRANCH  30  31
ATOM     31  C   UNL     1      -1.757  14.366  22.664  0.00  0.00    +0.000 C 
BRANCH  31  33
ATOM     32  C   UNL     1      -2.855  14.673  24.911  0.00  0.00    +0.000 C 
ATOM     33  C   UNL     1      -1.535  14.588  24.160  0.00  0.00    +0.000 C 
ENDBRANCH  31  33
ENDBRANCH  30  31
ENDBRANCH  29  30
ENDBRANCH  28  29
ENDBRANCH  24  28
ENDBRANCH  23  25
ENDBRANCH   1  23
TORSDOF 12
ENDMDL
MODEL 7
REMARK VINA RESULT:      -7.7      2.611      3.279
REMARK  Name = 
REMARK  14 active torsions:
REMARK  status: ('A' for Active; 'I' for Inactive)
REMARK    1  A    between atoms: C_1  and  C_2
REMARK    2  A    between atoms: C_2  and  C_3
REMARK    3  A    between atoms: C_3  and  C_4
REMARK    4  A    between atoms: C_4  and  C_5
REMARK    5  A    between atoms: C_5  and  C_6
REMARK    6  A    between atoms: C_6  and  N_7
REMARK    7  A    between atoms: C_8  and  O_10
REMARK    8  A    between atoms: O_10  and  C_11
REMARK    9  A    between atoms: C_15  and  C_16
REMARK   10  A    between atoms: C_18  and  C_19
REMARK   11  A    between atoms: C_19  and  O_21
REMARK   12  A    between atoms: O_21  and  C_22
REMARK   13  A    between atoms: C_22  and  C_23
REMARK   14  A    between atoms: N_25  and  C_26
REMARK                            x       y       z     vdW  Elec       q    Type
REMARK                         _______ _______ _______ _____ _____    ______ ____
ROOT
ATOM      1  C   UNL     1       1.777   9.126  18.540  0.00  0.00    +0.000 A 
ATOM      2  C   UNL     1       1.393   8.812  19.849  0.00  0.00    +0.000 A 
ATOM      3  C   UNL     1       1.831   7.646  20.440  0.00  0.00    +0.000 A 
ATOM      4  C   UNL     1       2.632   6.778  19.715  0.00  0.00    +0.000 A 
ATOM      5  C   UNL     1       2.972   7.036  18.371  0.00  0.00    +0.000 A 
ATOM      6  C   UNL     1       2.544   8.239  17.791  0.00  0.00    +0.000 A 
ENDROOT
BRANCH   5   7
ATOM      7  C   UNL     1       3.761   6.069  17.595  0.00  0.00    +0.000 A 
ATOM      8  C   UNL     1       4.669   6.313  16.581  0.00  0.00    +0.000 A 
ATOM      9  C   UNL     1       5.267   5.073  16.270  0.00  0.00    +0.000 A 
ATOM     10  N   UNL     1       4.785   4.105  17.071  0.00  0.00    +0.000 NA
ATOM     11  N   UNL     1       3.782   4.687  17.770  0.00  0.00    +0.000 N 
BRANCH  11  12
ATOM     12  C   UNL     1       2.892   3.864  18.518  0.00  0.00    +0.000 A 
ATOM     13  C   UNL     1       1.636   3.547  17.990  0.00  0.00    +0.000 A 
ATOM     14  C   UNL     1       0.779   2.709  18.708  0.00  0.00    +0.000 A 
ATOM     15  C   UNL     1       1.158   2.216  19.957  0.00  0.00    +0.000 A 
ATOM     16  C   UNL     1       2.397   2.543  20.495  0.00  0.00    +0.000 A 
ATOM     17  C   UNL     1       3.260   3.369  19.779  0.00  0.00    +0.000 A 
ENDBRANCH  11  12
BRANCH   9  18
ATOM     18  C   UNL     1       6.256   4.805  15.218  0.00  0.00    +0.000 C 
ATOM     19  O   UNL     1       7.476   4.904  15.410  0.00  0.00    +0.000 OA
BRANCH  18  20
ATOM     20  O   UNL     1       5.684   4.590  13.997  0.00  0.00    +0.000 OA
BRANCH  20  21
ATOM     21  C   UNL     1       6.264   3.537  13.226  0.00  0.00    +0.000 C 
ATOM     22  C   UNL     1       7.046   4.164  12.084  0.00  0.00    +0.000 C 
ENDBRANCH  20  21
ENDBRANCH  18  20
ENDBRANCH   9  18
ENDBRANCH   5   7
BRANCH   1  23
ATOM     23  O   UNL     1       1.290  10.301  17.950  0.00  0.00    +0.000 OA
BRANCH  23  25
ATOM     24  N   UNL     1      -0.969  10.211  18.119  0.00  0.00    +0.000 N 
ATOM     25  C   UNL     1       0.154  10.851  18.539  0.00  0.00    +0.000 C 
ATOM     26  O   UNL     1       0.147  11.758  19.382  0.00  0.00    +0.000 OA
ATOM     27  H   UNL     1      -0.858   9.261  17.780  0.00  0.00    +0.000 HD
BRANCH  24  28
ATOM     28  C   UNL     1      -2.280  10.764  18.363  0.00  0.00    +0.000 C 
BRANCH  28  29
ATOM     29  C   UNL     1      -3.359   9.968  17.618  0.00  0.00    +0.000 C 
BRANCH  29  30
ATOM     30  C   UNL     1      -4.131  10.877  16.661  0.00  0.00    +0.000 C 
BRANCH  30  31
ATOM     31  C   UNL     1      -3.332  11.184  15.394  0.00  0.00    +0.000 C 
BRANCH  31  33
ATOM     32  C   UNL     1      -3.728   9.843  13.297  0.00  0.00    +0.000 C 
ATOM     33  C   UNL     1      -2.992   9.905  14.626  0.00  0.00    +0.000 C 
ENDBRANCH  31  33
ENDBRANCH  30  31
ENDBRANCH  29  30
ENDBRANCH  28  29
ENDBRANCH  24  28
ENDBRANCH  23  25
ENDBRANCH   1  23
TORSDOF 12
ENDMDL
MODEL 8
REMARK VINA RESULT:      -7.6      1.124      1.230
REMARK  Name = 
REMARK  14 active torsions:
REMARK  status: ('A' for Active; 'I' for Inactive)
REMARK    1  A    between atoms: C_1  and  C_2
REMARK    2  A    between atoms: C_2  and  C_3
REMARK    3  A    between atoms: C_3  and  C_4
REMARK    4  A    between atoms: C_4  and  C_5
REMARK    5  A    between atoms: C_5  and  C_6
REMARK    6  A    between atoms: C_6  and  N_7
REMARK    7  A    between atoms: C_8  and  O_10
REMARK    8  A    between atoms: O_10  and  C_11
REMARK    9  A    between atoms: C_15  and  C_16
REMARK   10  A    between atoms: C_18  and  C_19
REMARK   11  A    between atoms: C_19  and  O_21
REMARK   12  A    between atoms: O_21  and  C_22
REMARK   13  A    between atoms: C_22  and  C_23
REMARK   14  A    between atoms: N_25  and  C_26
REMARK                            x       y       z     vdW  Elec       q    Type
REMARK                         _______ _______ _______ _____ _____    ______ ____
ROOT
ATOM      1  C   UNL     1       1.688   8.164  20.169  0.00  0.00    +0.000 A 
ATOM      2  C   UNL     1       1.239   9.191  19.330  0.00  0.00    +0.000 A 
ATOM      3  C   UNL     1       1.551   9.176  17.988  0.00  0.00    +0.000 A 
ATOM      4  C   UNL     1       2.335   8.151  17.485  0.00  0.00    +0.000 A 
ATOM      5  C   UNL     1       2.861   7.145  18.322  0.00  0.00    +0.000 A 
ATOM      6  C   UNL     1       2.512   7.155  19.680  0.00  0.00    +0.000 A 
ENDROOT
BRANCH   5   7
ATOM      7  C   UNL     1       3.751   6.106  17.785  0.00  0.00    +0.000 A 
ATOM      8  C   UNL     1       4.733   6.228  16.819  0.00  0.00    +0.000 A 
ATOM      9  C   UNL     1       5.404   4.986  16.772  0.00  0.00    +0.000 A 
ATOM     10  N   UNL     1       4.893   4.140  17.685  0.00  0.00    +0.000 NA
ATOM     11  N   UNL     1       3.811   4.776  18.194  0.00  0.00    +0.000 N 
BRANCH  11  12
ATOM     12  C   UNL     1       2.893   4.042  18.998  0.00  0.00    +0.000 A 
ATOM     13  C   UNL     1       3.237   3.713  20.314  0.00  0.00    +0.000 A 
ATOM     14  C   UNL     1       2.320   3.025  21.114  0.00  0.00    +0.000 A 
ATOM     15  C   UNL     1       1.083   2.641  20.596  0.00  0.00    +0.000 A 
ATOM     16  C   UNL     1       0.743   2.950  19.284  0.00  0.00    +0.000 A 
ATOM     17  C   UNL     1       1.648   3.644  18.485  0.00  0.00    +0.000 A 
ENDBRANCH  11  12
BRANCH   9  18
ATOM     18  C   UNL     1       6.491   4.601  15.861  0.00  0.00    +0.000 C 
ATOM     19  O   UNL     1       7.568   5.211  15.813  0.00  0.00    +0.000 OA
BRANCH  18  20
ATOM     20  O   UNL     1       6.126   3.614  14.992  0.00  0.00    +0.000 OA
BRANCH  20  21
ATOM     21  C   UNL     1       5.498   4.059  13.789  0.00  0.00    +0.000 C 
ATOM     22  C   UNL     1       6.302   3.532  12.612  0.00  0.00    +0.000 C 
ENDBRANCH  20  21
ENDBRANCH  18  20
ENDBRANCH   9  18
ENDBRANCH   5   7
BRANCH   1  23
ATOM     23  O   UNL     1       1.385   8.220  21.537  0.00  0.00    +0.000 OA
BRANCH  23  25
ATOM     24  N   UNL     1       0.182   9.937  22.400  0.00  0.00    +0.000 N 
ATOM     25  C   UNL     1       0.115   8.693  21.860  0.00  0.00    +0.000 C 
ATOM     26  O   UNL     1      -0.951   8.103  21.635  0.00  0.00    +0.000 OA
ATOM     27  H   UNL     1       1.000  10.495  22.173  0.00  0.00    +0.000 HD
BRANCH  24  28
ATOM     28  C   UNL     1      -0.955  10.525  23.067  0.00  0.00    +0.000 C 
BRANCH  28  29
ATOM     29  C   UNL     1      -1.471  11.747  22.297  0.00  0.00    +0.000 C 
BRANCH  29  30
ATOM     30  C   UNL     1      -1.256  13.024  23.112  0.00  0.00    +0.000 C 
BRANCH  30  31
ATOM     31  C   UNL     1      -2.010  14.214  22.519  0.00  0.00    +0.000 C 
BRANCH  31  33
ATOM     32  C   UNL     1       0.326  15.109  22.214  0.00  0.00    +0.000 C 
ATOM     33  C   UNL     1      -1.092  15.086  21.662  0.00  0.00    +0.000 C 
ENDBRANCH  31  33
ENDBRANCH  30  31
ENDBRANCH  29  30
ENDBRANCH  28  29
ENDBRANCH  24  28
ENDBRANCH  23  25
ENDBRANCH   1  23
TORSDOF 12
ENDMDL
MODEL 9
REMARK VINA RESULT:      -7.6      1.333      2.100
REMARK  Name = 
REMARK  14 active torsions:
REMARK  status: ('A' for Active; 'I' for Inactive)
REMARK    1  A    between atoms: C_1  and  C_2
REMARK    2  A    between atoms: C_2  and  C_3
REMARK    3  A    between atoms: C_3  and  C_4
REMARK    4  A    between atoms: C_4  and  C_5
REMARK    5  A    between atoms: C_5  and  C_6
REMARK    6  A    between atoms: C_6  and  N_7
REMARK    7  A    between atoms: C_8  and  O_10
REMARK    8  A    between atoms: O_10  and  C_11
REMARK    9  A    between atoms: C_15  and  C_16
REMARK   10  A    between atoms: C_18  and  C_19
REMARK   11  A    between atoms: C_19  and  O_21
REMARK   12  A    between atoms: O_21  and  C_22
REMARK   13  A    between atoms: C_22  and  C_23
REMARK   14  A    between atoms: N_25  and  C_26
REMARK                            x       y       z     vdW  Elec       q    Type
REMARK                         _______ _______ _______ _____ _____    ______ ____
ROOT
ATOM      1  C   UNL     1       1.363   7.987  20.006  0.00  0.00    +0.000 A 
ATOM      2  C   UNL     1       1.192   9.133  19.220  0.00  0.00    +0.000 A 
ATOM      3  C   UNL     1       1.869   9.264  18.027  0.00  0.00    +0.000 A 
ATOM      4  C   UNL     1       2.740   8.262  17.629  0.00  0.00    +0.000 A 
ATOM      5  C   UNL     1       2.985   7.133  18.437  0.00  0.00    +0.000 A 
ATOM      6  C   UNL     1       2.268   6.998  19.634  0.00  0.00    +0.000 A 
ENDROOT
BRANCH   5   7
ATOM      7  C   UNL     1       3.967   6.116  18.033  0.00  0.00    +0.000 A 
ATOM      8  C   UNL     1       5.088   6.268  17.238  0.00  0.00    +0.000 A 
ATOM      9  C   UNL     1       5.778   5.037  17.280  0.00  0.00    +0.000 A 
ATOM     10  N   UNL     1       5.142   4.168  18.087  0.00  0.00    +0.000 NA
ATOM     11  N   UNL     1       3.983   4.780  18.426  0.00  0.00    +0.000 N 
BRANCH  11  12
ATOM     12  C   UNL     1       2.961   4.019  19.062  0.00  0.00    +0.000 A 
ATOM     13  C   UNL     1       1.873   3.560  18.311  0.00  0.00    +0.000 A 
ATOM     14  C   UNL     1       0.889   2.782  18.929  0.00  0.00    +0.000 A 
ATOM     15  C   UNL     1       0.974   2.491  20.290  0.00  0.00    +0.000 A 
ATOM     16  C   UNL     1       2.042   2.959  21.045  0.00  0.00    +0.000 A 
ATOM     17  C   UNL     1       3.031   3.726  20.433  0.00  0.00    +0.000 A 
ENDBRANCH  11  12
BRANCH   9  18
ATOM     18  C   UNL     1       7.002   4.683  16.549  0.00  0.00    +0.000 C 
ATOM     19  O   UNL     1       8.069   4.421  17.122  0.00  0.00    +0.000 OA
BRANCH  18  20
ATOM     20  O   UNL     1       6.869   4.823  15.197  0.00  0.00    +0.000 OA
BRANCH  20  21
ATOM     21  C   UNL     1       5.959   3.915  14.575  0.00  0.00    +0.000 C 
ATOM     22  C   UNL     1       6.346   3.787  13.111  0.00  0.00    +0.000 C 
ENDBRANCH  20  21
ENDBRANCH  18  20
ENDBRANCH   9  18
ENDBRANCH   5   7
BRANCH   1  23
ATOM     23  O   UNL     1       0.689   7.894  21.232  0.00  0.00    +0.000 OA
BRANCH  23  25
ATOM     24  N   UNL     1      -0.436   9.238  22.670  0.00  0.00    +0.000 N 
ATOM     25  C   UNL     1       0.751   9.022  22.047  0.00  0.00    +0.000 C 
ATOM     26  O   UNL     1       1.760   9.714  22.244  0.00  0.00    +0.000 OA
ATOM     27  H   UNL     1      -1.049   8.436  22.786  0.00  0.00    +0.000 HD
BRANCH  24  28
ATOM     28  C   UNL     1      -0.713  10.485  23.342  0.00  0.00    +0.000 C 
BRANCH  28  29
ATOM     29  C   UNL     1      -1.320  11.508  22.375  0.00  0.00    +0.000 C 
BRANCH  29  30
ATOM     30  C   UNL     1      -2.644  12.044  22.921  0.00  0.00    +0.000 C 
BRANCH  30  31
ATOM     31  C   UNL     1      -3.299  13.037  21.962  0.00  0.00    +0.000 C 
BRANCH  31  33
ATOM     32  C   UNL     1      -5.305  14.503  21.541  0.00  0.00    +0.000 C 
ATOM     33  C   UNL     1      -4.610  13.581  22.531  0.00  0.00    +0.000 C 
ENDBRANCH  31  33
ENDBRANCH  30  31
ENDBRANCH  29  30
ENDBRANCH  28  29
ENDBRANCH  24  28
ENDBRANCH  23  25
ENDBRANCH   1  23
TORSDOF 12
ENDMDL
