MODEL 1
REMARK VINA RESULT:      -7.5      0.000      0.000
REMARK  Name = 
REMARK  10 active torsions:
REMARK  status: ('A' for Active; 'I' for Inactive)
REMARK    1  A    between atoms: C_2  and  O_3
REMARK    2  A    between atoms: C_2  and  C_4
REMARK    3  A    between atoms: C_4  and  C_5
REMARK    4  A    between atoms: C_5  and  C_6
REMARK    5  A    between atoms: C_6  and  C_7
REMARK    6  A    between atoms: C_10  and  O_11
REMARK    7  A    between atoms: O_11  and  C_12
REMARK    8  A    between atoms: C_12  and  C_13
REMARK    9  A    between atoms: C_18  and  C_19
REMARK   10  A    between atoms: C_19  and  O_21
REMARK                            x       y       z     vdW  Elec       q    Type
REMARK                         _______ _______ _______ _____ _____    ______ ____
ROOT
ATOM      1  C   UNL     1       7.379   7.323  17.884  0.00  0.00    +0.000 A 
ATOM      2  C   UNL     1       6.204   6.924  17.237  0.00  0.00    +0.000 A 
ATOM      3  C   UNL     1       5.570   5.741  17.589  0.00  0.00    +0.000 A 
ATOM      4  C   UNL     1       6.129   4.901  18.550  0.00  0.00    +0.000 A 
ATOM      5  C   UNL     1       7.285   5.302  19.225  0.00  0.00    +0.000 A 
ATOM      6  C   UNL     1       7.913   6.504  18.889  0.00  0.00    +0.000 A 
ENDROOT
BRANCH   1   7
ATOM      7  C   UNL     1       8.016   8.635  17.513  0.00  0.00    +0.000 C 
BRANCH   7   8
ATOM      8  C   UNL     1       8.862   9.216  18.657  0.00  0.00    +0.000 C 
BRANCH   8   9
ATOM      9  C   UNL     1       9.122  10.717  18.531  0.00  0.00    +0.000 C 
BRANCH   9  11
ATOM     10  O   UNL     1      11.059  11.550  19.697  0.00  0.00    +0.000 OA
ATOM     11  C   UNL     1       9.878  11.244  19.724  0.00  0.00    +0.000 C 
BRANCH  11  12
ATOM     12  O   UNL     1       9.136  11.323  20.851  0.00  0.00    +0.000 OA
ATOM     13  H   UNL     1       9.634  11.619  21.635  0.00  0.00    +0.000 HD
ENDBRANCH  11  12
ENDBRANCH   9  11
ENDBRANCH   8   9
ENDBRANCH   7   8
ENDBRANCH   1   7
BRANCH   4  14
ATOM     14  O   UNL     1       5.631   3.666  18.878  0.00  0.00    +0.000 OA
BRANCH  14  15
ATOM     15  C   UNL     1       4.315   3.415  18.356  0.00  0.00    +0.000 C 
BRANCH  15  16
ATOM     16  C   UNL     1       3.264   3.314  19.442  0.00  0.00    +0.000 A 
ATOM     17  C   UNL     1       3.533   2.606  20.626  0.00  0.00    +0.000 A 
ATOM     18  C   UNL     1       2.554   2.469  21.614  0.00  0.00    +0.000 A 
ATOM     19  C   UNL     1       1.303   3.051  21.443  0.00  0.00    +0.000 A 
ATOM     20  C   UNL     1       1.026   3.783  20.287  0.00  0.00    +0.000 A 
ATOM     21  C   UNL     1       1.991   3.909  19.275  0.00  0.00    +0.000 A 
BRANCH  21  22
ATOM     22  C   UNL     1       1.677   4.712  18.050  0.00  0.00    +0.000 C 
ATOM     23  O   UNL     1       1.032   4.277  17.111  0.00  0.00    +0.000 OA
BRANCH  22  24
ATOM     24  O   UNL     1       2.139   5.979  18.080  0.00  0.00    +0.000 OA
ATOM     25  H   UNL     1       3.098   6.079  18.224  0.00  0.00    +0.000 HD
ENDBRANCH  22  24
ENDBRANCH  21  22
ENDBRANCH  15  16
ENDBRANCH  14  15
ENDBRANCH   4  14
TORSDOF 10
ENDMDL
MODEL 2
REMARK VINA RESULT:      -7.4      1.325      1.775
REMARK  Name = 
REMARK  10 active torsions:
REMARK  status: ('A' for Active; 'I' for Inactive)
REMARK    1  A    between atoms: C_2  and  O_3
REMARK    2  A    between atoms: C_2  and  C_4
REMARK    3  A    between atoms: C_4  and  C_5
REMARK    4  A    between atoms: C_5  and  C_6
REMARK    5  A    between atoms: C_6  and  C_7
REMARK    6  A    between atoms: C_10  and  O_11
REMARK    7  A    between atoms: O_11  and  C_12
REMARK    8  A    between atoms: C_12  and  C_13
REMARK    9  A    between atoms: C_18  and  C_19
REMARK   10  A    between atoms: C_19  and  O_21
REMARK                            x       y       z     vdW  Elec       q    Type
REMARK                         _______ _______ _______ _____ _____    ______ ____
ROOT
ATOM      1  C   UNL     1       7.576   7.749  17.814  0.00  0.00    +0.000 A 
ATOM      2  C   UNL     1       8.080   6.764  18.671  0.00  0.00    +0.000 A 
ATOM      3  C   UNL     1       7.459   5.527  18.770  0.00  0.00    +0.000 A 
ATOM      4  C   UNL     1       6.286   5.270  18.061  0.00  0.00    +0.000 A 
ATOM      5  C   UNL     1       5.790   6.233  17.179  0.00  0.00    +0.000 A 
ATOM      6  C   UNL     1       6.427   7.472  17.060  0.00  0.00    +0.000 A 
ENDROOT
BRANCH   1   7
ATOM      7  C   UNL     1       8.302   9.063  17.693  0.00  0.00    +0.000 C 
BRANCH   7   8
ATOM      8  C   UNL     1       8.909   9.517  19.030  0.00  0.00    +0.000 C 
BRANCH   8   9
ATOM      9  C   UNL     1       9.595  10.882  18.962  0.00  0.00    +0.000 C 
BRANCH   9  11
ATOM     10  O   UNL     1      11.159  11.929  20.467  0.00  0.00    +0.000 OA
ATOM     11  C   UNL     1      10.127  11.294  20.311  0.00  0.00    +0.000 C 
BRANCH  11  12
ATOM     12  O   UNL     1       9.375  10.871  21.350  0.00  0.00    +0.000 OA
ATOM     13  H   UNL     1       8.491  11.280  21.394  0.00  0.00    +0.000 HD
ENDBRANCH  11  12
ENDBRANCH   9  11
ENDBRANCH   8   9
ENDBRANCH   7   8
ENDBRANCH   1   7
BRANCH   4  14
ATOM     14  O   UNL     1       5.548   4.121  18.184  0.00  0.00    +0.000 OA
BRANCH  14  15
ATOM     15  C   UNL     1       4.373   4.095  17.357  0.00  0.00    +0.000 C 
BRANCH  15  16
ATOM     16  C   UNL     1       3.149   3.592  18.094  0.00  0.00    +0.000 A 
ATOM     17  C   UNL     1       2.805   2.230  18.050  0.00  0.00    +0.000 A 
ATOM     18  C   UNL     1       1.652   1.764  18.689  0.00  0.00    +0.000 A 
ATOM     19  C   UNL     1       0.840   2.646  19.395  0.00  0.00    +0.000 A 
ATOM     20  C   UNL     1       1.181   3.997  19.474  0.00  0.00    +0.000 A 
ATOM     21  C   UNL     1       2.322   4.484  18.818  0.00  0.00    +0.000 A 
BRANCH  21  22
ATOM     22  C   UNL     1       2.676   5.935  18.930  0.00  0.00    +0.000 C 
ATOM     23  O   UNL     1       2.330   6.774  18.117  0.00  0.00    +0.000 OA
BRANCH  22  24
ATOM     24  O   UNL     1       3.389   6.251  20.031  0.00  0.00    +0.000 OA
ATOM     25  H   UNL     1       2.871   6.446  20.833  0.00  0.00    +0.000 HD
ENDBRANCH  22  24
ENDBRANCH  21  22
ENDBRANCH  15  16
ENDBRANCH  14  15
ENDBRANCH   4  14
TORSDOF 10
ENDMDL
MODEL 3
REMARK VINA RESULT:      -7.4      3.742      5.911
REMARK  Name = 
REMARK  10 active torsions:
REMARK  status: ('A' for Active; 'I' for Inactive)
REMARK    1  A    between atoms: C_2  and  O_3
REMARK    2  A    between atoms: C_2  and  C_4
REMARK    3  A    between atoms: C_4  and  C_5
REMARK    4  A    between atoms: C_5  and  C_6
REMARK    5  A    between atoms: C_6  and  C_7
REMARK    6  A    between atoms: C_10  and  O_11
REMARK    7  A    between atoms: O_11  and  C_12
REMARK    8  A    between atoms: C_12  and  C_13
REMARK    9  A    between atoms: C_18  and  C_19
REMARK   10  A    between atoms: C_19  and  O_21
REMARK                            x       y       z     vdW  Elec       q    Type
REMARK                         _______ _______ _______ _____ _____    ______ ____
ROOT
ATOM      1  C   UNL     1       6.234   5.221  15.608  0.00  0.00    +0.000 A 
ATOM      2  C   UNL     1       6.574   4.422  16.706  0.00  0.00    +0.000 A 
ATOM      3  C   UNL     1       5.958   4.611  17.935  0.00  0.00    +0.000 A 
ATOM      4  C   UNL     1       5.035   5.640  18.109  0.00  0.00    +0.000 A 
ATOM      5  C   UNL     1       4.664   6.424  17.013  0.00  0.00    +0.000 A 
ATOM      6  C   UNL     1       5.266   6.222  15.769  0.00  0.00    +0.000 A 
ENDROOT
BRANCH   1   7
ATOM      7  C   UNL     1       6.886   4.959  14.276  0.00  0.00    +0.000 C 
BRANCH   7   8
ATOM      8  C   UNL     1       6.365   3.672  13.616  0.00  0.00    +0.000 C 
BRANCH   8   9
ATOM      9  C   UNL     1       4.959   3.806  13.030  0.00  0.00    +0.000 C 
BRANCH   9  11
ATOM     10  O   UNL     1       5.494   2.054  11.464  0.00  0.00    +0.000 OA
ATOM     11  C   UNL     1       4.831   3.043  11.736  0.00  0.00    +0.000 C 
BRANCH  11  12
ATOM     12  O   UNL     1       3.930   3.568  10.878  0.00  0.00    +0.000 OA
ATOM     13  H   UNL     1       3.427   4.321  11.239  0.00  0.00    +0.000 HD
ENDBRANCH  11  12
ENDBRANCH   9  11
ENDBRANCH   8   9
ENDBRANCH   7   8
ENDBRANCH   1   7
BRANCH   4  14
ATOM     14  O   UNL     1       4.464   5.967  19.312  0.00  0.00    +0.000 OA
BRANCH  14  15
ATOM     15  C   UNL     1       3.026   5.945  19.296  0.00  0.00    +0.000 C 
BRANCH  15  16
ATOM     16  C   UNL     1       2.453   4.687  19.916  0.00  0.00    +0.000 A 
ATOM     17  C   UNL     1       2.483   4.506  21.309  0.00  0.00    +0.000 A 
ATOM     18  C   UNL     1       1.998   3.329  21.886  0.00  0.00    +0.000 A 
ATOM     19  C   UNL     1       1.460   2.328  21.084  0.00  0.00    +0.000 A 
ATOM     20  C   UNL     1       1.394   2.502  19.701  0.00  0.00    +0.000 A 
ATOM     21  C   UNL     1       1.899   3.669  19.105  0.00  0.00    +0.000 A 
BRANCH  21  22
ATOM     22  C   UNL     1       1.804   3.840  17.620  0.00  0.00    +0.000 C 
ATOM     23  O   UNL     1       0.866   4.387  17.066  0.00  0.00    +0.000 OA
BRANCH  22  24
ATOM     24  O   UNL     1       2.864   3.363  16.935  0.00  0.00    +0.000 OA
ATOM     25  H   UNL     1       3.080   3.827  16.106  0.00  0.00    +0.000 HD
ENDBRANCH  22  24
ENDBRANCH  21  22
ENDBRANCH  15  16
ENDBRANCH  14  15
ENDBRANCH   4  14
TORSDOF 10
ENDMDL
MODEL 4
REMARK VINA RESULT:      -7.4      0.708      1.331
REMARK  Name = 
REMARK  10 active torsions:
REMARK  status: ('A' for Active; 'I' for Inactive)
REMARK    1  A    between atoms: C_2  and  O_3
REMARK    2  A    between atoms: C_2  and  C_4
REMARK    3  A    between atoms: C_4  and  C_5
REMARK    4  A    between atoms: C_5  and  C_6
REMARK    5  A    between atoms: C_6  and  C_7
REMARK    6  A    between atoms: C_10  and  O_11
REMARK    7  A    between atoms: O_11  and  C_12
REMARK    8  A    between atoms: C_12  and  C_13
REMARK    9  A    between atoms: C_18  and  C_19
REMARK   10  A    between atoms: C_19  and  O_21
REMARK                            x       y       z     vdW  Elec       q    Type
REMARK                         _______ _______ _______ _____ _____    ______ ____
ROOT
ATOM      1  C   UNL     1       7.436   7.449  17.776  0.00  0.00    +0.000 A 
ATOM      2  C   UNL     1       8.089   6.693  18.757  0.00  0.00    +0.000 A 
ATOM      3  C   UNL     1       7.573   5.473  19.168  0.00  0.00    +0.000 A 
ATOM      4  C   UNL     1       6.362   5.011  18.654  0.00  0.00    +0.000 A 
ATOM      5  C   UNL     1       5.717   5.741  17.653  0.00  0.00    +0.000 A 
ATOM      6  C   UNL     1       6.246   6.959  17.219  0.00  0.00    +0.000 A 
ENDROOT
BRANCH   1   7
ATOM      7  C   UNL     1       8.048   8.745  17.316  0.00  0.00    +0.000 C 
BRANCH   7   8
ATOM      8  C   UNL     1       8.683   9.533  18.474  0.00  0.00    +0.000 C 
BRANCH   8   9
ATOM      9  C   UNL     1       8.659  11.048  18.274  0.00  0.00    +0.000 C 
BRANCH   9  11
ATOM     10  O   UNL     1      10.369  12.473  17.351  0.00  0.00    +0.000 OA
ATOM     11  C   UNL     1      10.054  11.605  18.151  0.00  0.00    +0.000 C 
BRANCH  11  12
ATOM     12  O   UNL     1      10.948  11.037  18.989  0.00  0.00    +0.000 OA
ATOM     13  H   UNL     1      10.807  10.083  19.133  0.00  0.00    +0.000 HD
ENDBRANCH  11  12
ENDBRANCH   9  11
ENDBRANCH   8   9
ENDBRANCH   7   8
ENDBRANCH   1   7
BRANCH   4  14
ATOM     14  O   UNL     1       5.726   3.875  19.084  0.00  0.00    +0.000 OA
BRANCH  14  15
ATOM     15  C   UNL     1       4.449   3.654  18.462  0.00  0.00    +0.000 C 
BRANCH  15  16
ATOM     16  C   UNL     1       3.335   3.449  19.468  0.00  0.00    +0.000 A 
ATOM     17  C   UNL     1       3.580   2.757  20.667  0.00  0.00    +0.000 A 
ATOM     18  C   UNL     1       2.548   2.523  21.579  0.00  0.00    +0.000 A 
ATOM     19  C   UNL     1       1.265   2.992  21.319  0.00  0.00    +0.000 A 
ATOM     20  C   UNL     1       1.008   3.707  20.147  0.00  0.00    +0.000 A 
ATOM     21  C   UNL     1       2.029   3.929  19.210  0.00  0.00    +0.000 A 
BRANCH  21  22
ATOM     22  C   UNL     1       1.733   4.711  17.967  0.00  0.00    +0.000 C 
ATOM     23  O   UNL     1       1.086   4.268  17.034  0.00  0.00    +0.000 OA
BRANCH  22  24
ATOM     24  O   UNL     1       2.216   5.971  17.974  0.00  0.00    +0.000 OA
ATOM     25  H   UNL     1       3.182   6.057  18.071  0.00  0.00    +0.000 HD
ENDBRANCH  22  24
ENDBRANCH  21  22
ENDBRANCH  15  16
ENDBRANCH  14  15
ENDBRANCH   4  14
TORSDOF 10
ENDMDL
MODEL 5
REMARK VINA RESULT:      -7.3      2.768      4.007
REMARK  Name = 
REMARK  10 active torsions:
REMARK  status: ('A' for Active; 'I' for Inactive)
REMARK    1  A    between atoms: C_2  and  O_3
REMARK    2  A    between atoms: C_2  and  C_4
REMARK    3  A    between atoms: C_4  and  C_5
REMARK    4  A    between atoms: C_5  and  C_6
REMARK    5  A    between atoms: C_6  and  C_7
REMARK    6  A    between atoms: C_10  and  O_11
REMARK    7  A    between atoms: O_11  and  C_12
REMARK    8  A    between atoms: C_12  and  C_13
REMARK    9  A    between atoms: C_18  and  C_19
REMARK   10  A    between atoms: C_19  and  O_21
REMARK                            x       y       z     vdW  Elec       q    Type
REMARK                         _______ _______ _______ _____ _____    ______ ____
ROOT
ATOM      1  C   UNL     1       5.306   6.165  16.678  0.00  0.00    +0.000 A 
ATOM      2  C   UNL     1       5.472   5.094  15.793  0.00  0.00    +0.000 A 
ATOM      3  C   UNL     1       4.563   4.046  15.773  0.00  0.00    +0.000 A 
ATOM      4  C   UNL     1       3.504   4.016  16.679  0.00  0.00    +0.000 A 
ATOM      5  C   UNL     1       3.309   5.093  17.546  0.00  0.00    +0.000 A 
ATOM      6  C   UNL     1       4.210   6.162  17.552  0.00  0.00    +0.000 A 
ENDROOT
BRANCH   1   7
ATOM      7  C   UNL     1       6.282   7.311  16.641  0.00  0.00    +0.000 C 
BRANCH   7   8
ATOM      8  C   UNL     1       6.902   7.592  18.019  0.00  0.00    +0.000 C 
BRANCH   8   9
ATOM      9  C   UNL     1       8.113   6.715  18.341  0.00  0.00    +0.000 C 
BRANCH   9  11
ATOM     10  O   UNL     1       7.213   5.371  20.127  0.00  0.00    +0.000 OA
ATOM     11  C   UNL     1       7.694   5.429  19.006  0.00  0.00    +0.000 C 
BRANCH  11  12
ATOM     12  O   UNL     1       7.925   4.326  18.260  0.00  0.00    +0.000 OA
ATOM     13  H   UNL     1       8.481   4.485  17.476  0.00  0.00    +0.000 HD
ENDBRANCH  11  12
ENDBRANCH   9  11
ENDBRANCH   8   9
ENDBRANCH   7   8
ENDBRANCH   1   7
BRANCH   4  14
ATOM     14  O   UNL     1       2.627   2.969  16.803  0.00  0.00    +0.000 OA
BRANCH  14  15
ATOM     15  C   UNL     1       3.002   2.015  17.812  0.00  0.00    +0.000 C 
BRANCH  15  16
ATOM     16  C   UNL     1       2.439   2.354  19.177  0.00  0.00    +0.000 A 
ATOM     17  C   UNL     1       1.061   2.579  19.340  0.00  0.00    +0.000 A 
ATOM     18  C   UNL     1       0.540   2.937  20.586  0.00  0.00    +0.000 A 
ATOM     19  C   UNL     1       1.380   3.056  21.687  0.00  0.00    +0.000 A 
ATOM     20  C   UNL     1       2.747   2.807  21.552  0.00  0.00    +0.000 A 
ATOM     21  C   UNL     1       3.289   2.470  20.302  0.00  0.00    +0.000 A 
BRANCH  21  22
ATOM     22  C   UNL     1       4.756   2.194  20.184  0.00  0.00    +0.000 C 
ATOM     23  O   UNL     1       5.302   1.236  20.704  0.00  0.00    +0.000 OA
BRANCH  22  24
ATOM     24  O   UNL     1       5.431   3.079  19.422  0.00  0.00    +0.000 OA
ATOM     25  H   UNL     1       4.961   3.408  18.634  0.00  0.00    +0.000 HD
ENDBRANCH  22  24
ENDBRANCH  21  22
ENDBRANCH  15  16
ENDBRANCH  14  15
ENDBRANCH   4  14
TORSDOF 10
ENDMDL
MODEL 6
REMARK VINA RESULT:      -7.3      2.820      7.273
REMARK  Name = 
REMARK  10 active torsions:
REMARK  status: ('A' for Active; 'I' for Inactive)
REMARK    1  A    between atoms: C_2  and  O_3
REMARK    2  A    between atoms: C_2  and  C_4
REMARK    3  A    between atoms: C_4  and  C_5
REMARK    4  A    between atoms: C_5  and  C_6
REMARK    5  A    between atoms: C_6  and  C_7
REMARK    6  A    between atoms: C_10  and  O_11
REMARK    7  A    between atoms: O_11  and  C_12
REMARK    8  A    between atoms: C_12  and  C_13
REMARK    9  A    between atoms: C_18  and  C_19
REMARK   10  A    between atoms: C_19  and  O_21
REMARK                            x       y       z     vdW  Elec       q    Type
REMARK                         _______ _______ _______ _____ _____    ______ ____
ROOT
ATOM      1  C   UNL     1       1.715   4.495  19.813  0.00  0.00    +0.000 A 
ATOM      2  C   UNL     1       1.710   4.348  18.422  0.00  0.00    +0.000 A 
ATOM      3  C   UNL     1       2.365   5.265  17.612  0.00  0.00    +0.000 A 
ATOM      4  C   UNL     1       2.985   6.382  18.172  0.00  0.00    +0.000 A 
ATOM      5  C   UNL     1       3.023   6.523  19.561  0.00  0.00    +0.000 A 
ATOM      6  C   UNL     1       2.384   5.589  20.380  0.00  0.00    +0.000 A 
ENDROOT
BRANCH   1   7
ATOM      7  C   UNL     1       1.036   3.456  20.666  0.00  0.00    +0.000 C 
BRANCH   7   8
ATOM      8  C   UNL     1       2.036   2.461  21.277  0.00  0.00    +0.000 C 
BRANCH   8   9
ATOM      9  C   UNL     1       2.913   1.756  20.242  0.00  0.00    +0.000 C 
BRANCH   9  11
ATOM     10  O   UNL     1       4.848   3.033  19.585  0.00  0.00    +0.000 OA
ATOM     11  C   UNL     1       4.346   2.213  20.338  0.00  0.00    +0.000 C 
BRANCH  11  12
ATOM     12  O   UNL     1       5.049   1.610  21.321  0.00  0.00    +0.000 OA
ATOM     13  H   UNL     1       5.695   0.952  21.003  0.00  0.00    +0.000 HD
ENDBRANCH  11  12
ENDBRANCH   9  11
ENDBRANCH   8   9
ENDBRANCH   7   8
ENDBRANCH   1   7
BRANCH   4  14
ATOM     14  O   UNL     1       3.557   7.392  17.441  0.00  0.00    +0.000 OA
BRANCH  14  15
ATOM     15  C   UNL     1       4.989   7.450  17.553  0.00  0.00    +0.000 C 
BRANCH  15  16
ATOM     16  C   UNL     1       5.681   6.329  16.804  0.00  0.00    +0.000 A 
ATOM     17  C   UNL     1       5.277   5.992  15.501  0.00  0.00    +0.000 A 
ATOM     18  C   UNL     1       5.879   4.930  14.820  0.00  0.00    +0.000 A 
ATOM     19  C   UNL     1       6.902   4.205  15.421  0.00  0.00    +0.000 A 
ATOM     20  C   UNL     1       7.337   4.543  16.704  0.00  0.00    +0.000 A 
ATOM     21  C   UNL     1       6.726   5.592  17.410  0.00  0.00    +0.000 A 
BRANCH  21  22
ATOM     22  C   UNL     1       7.220   5.947  18.778  0.00  0.00    +0.000 C 
ATOM     23  O   UNL     1       6.816   5.412  19.796  0.00  0.00    +0.000 OA
BRANCH  22  24
ATOM     24  O   UNL     1       8.181   6.894  18.796  0.00  0.00    +0.000 OA
ATOM     25  H   UNL     1       8.844   6.841  18.084  0.00  0.00    +0.000 HD
ENDBRANCH  22  24
ENDBRANCH  21  22
ENDBRANCH  15  16
ENDBRANCH  14  15
ENDBRANCH   4  14
TORSDOF 10
ENDMDL
MODEL 7
REMARK VINA RESULT:      -7.3      3.904      6.559
REMARK  Name = 
REMARK  10 active torsions:
REMARK  status: ('A' for Active; 'I' for Inactive)
REMARK    1  A    between atoms: C_2  and  O_3
REMARK    2  A    between atoms: C_2  and  C_4
REMARK    3  A    between atoms: C_4  and  C_5
REMARK    4  A    between atoms: C_5  and  C_6
REMARK    5  A    between atoms: C_6  and  C_7
REMARK    6  A    between atoms: C_10  and  O_11
REMARK    7  A    between atoms: O_11  and  C_12
REMARK    8  A    between atoms: C_12  and  C_13
REMARK    9  A    between atoms: C_18  and  C_19
REMARK   10  A    between atoms: C_19  and  O_21
REMARK                            x       y       z     vdW  Elec       q    Type
REMARK                         _______ _______ _______ _____ _____    ______ ____
ROOT
ATOM      1  C   UNL     1       5.958   4.731  14.775  0.00  0.00    +0.000 A 
ATOM      2  C   UNL     1       5.412   6.010  14.930  0.00  0.00    +0.000 A 
ATOM      3  C   UNL     1       5.063   6.482  16.188  0.00  0.00    +0.000 A 
ATOM      4  C   UNL     1       5.194   5.662  17.308  0.00  0.00    +0.000 A 
ATOM      5  C   UNL     1       5.765   4.395  17.170  0.00  0.00    +0.000 A 
ATOM      6  C   UNL     1       6.138   3.926  15.908  0.00  0.00    +0.000 A 
ENDROOT
BRANCH   1   7
ATOM      7  C   UNL     1       6.371   4.268  13.403  0.00  0.00    +0.000 C 
BRANCH   7   8
ATOM      8  C   UNL     1       5.435   3.182  12.848  0.00  0.00    +0.000 C 
BRANCH   8   9
ATOM      9  C   UNL     1       5.689   2.841  11.380  0.00  0.00    +0.000 C 
BRANCH   9  11
ATOM     10  O   UNL     1       7.825   1.787  11.016  0.00  0.00    +0.000 OA
ATOM     11  C   UNL     1       6.631   1.672  11.245  0.00  0.00    +0.000 C 
BRANCH  11  12
ATOM     12  O   UNL     1       6.032   0.468  11.369  0.00  0.00    +0.000 OA
ATOM     13  H   UNL     1       5.837   0.030  10.520  0.00  0.00    +0.000 HD
ENDBRANCH  11  12
ENDBRANCH   9  11
ENDBRANCH   8   9
ENDBRANCH   7   8
ENDBRANCH   1   7
BRANCH   4  14
ATOM     14  O   UNL     1       4.771   6.006  18.566  0.00  0.00    +0.000 OA
BRANCH  14  15
ATOM     15  C   UNL     1       4.823   4.923  19.511  0.00  0.00    +0.000 C 
BRANCH  15  16
ATOM     16  C   UNL     1       3.450   4.407  19.888  0.00  0.00    +0.000 A 
ATOM     17  C   UNL     1       2.384   5.302  20.079  0.00  0.00    +0.000 A 
ATOM     18  C   UNL     1       1.125   4.839  20.472  0.00  0.00    +0.000 A 
ATOM     19  C   UNL     1       0.908   3.478  20.658  0.00  0.00    +0.000 A 
ATOM     20  C   UNL     1       1.946   2.570  20.444  0.00  0.00    +0.000 A 
ATOM     21  C   UNL     1       3.223   3.023  20.073  0.00  0.00    +0.000 A 
BRANCH  21  22
ATOM     22  C   UNL     1       4.318   2.029  19.834  0.00  0.00    +0.000 C 
ATOM     23  O   UNL     1       5.132   1.711  20.684  0.00  0.00    +0.000 OA
BRANCH  22  24
ATOM     24  O   UNL     1       4.314   1.481  18.601  0.00  0.00    +0.000 OA
ATOM     25  H   UNL     1       5.020   1.781  18.000  0.00  0.00    +0.000 HD
ENDBRANCH  22  24
ENDBRANCH  21  22
ENDBRANCH  15  16
ENDBRANCH  14  15
ENDBRANCH   4  14
TORSDOF 10
ENDMDL
MODEL 8
REMARK VINA RESULT:      -7.2      1.676      2.262
REMARK  Name = 
REMARK  10 active torsions:
REMARK  status: ('A' for Active; 'I' for Inactive)
REMARK    1  A    between atoms: C_2  and  O_3
REMARK    2  A    between atoms: C_2  and  C_4
REMARK    3  A    between atoms: C_4  and  C_5
REMARK    4  A    between atoms: C_5  and  C_6
REMARK    5  A    between atoms: C_6  and  C_7
REMARK    6  A    between atoms: C_10  and  O_11
REMARK    7  A    between atoms: O_11  and  C_12
REMARK    8  A    between atoms: C_12  and  C_13
REMARK    9  A    between atoms: C_18  and  C_19
REMARK   10  A    between atoms: C_19  and  O_21
REMARK                            x       y       z     vdW  Elec       q    Type
REMARK                         _______ _______ _______ _____ _____    ______ ____
ROOT
ATOM      1  C   UNL     1       7.707   7.993  17.827  0.00  0.00    +0.000 A 
ATOM      2  C   UNL     1       6.585   7.798  17.013  0.00  0.00    +0.000 A 
ATOM      3  C   UNL     1       5.915   6.583  17.012  0.00  0.00    +0.000 A 
ATOM      4  C   UNL     1       6.388   5.518  17.777  0.00  0.00    +0.000 A 
ATOM      5  C   UNL     1       7.488   5.708  18.616  0.00  0.00    +0.000 A 
ATOM      6  C   UNL     1       8.151   6.938  18.636  0.00  0.00    +0.000 A 
ENDROOT
BRANCH   1   7
ATOM      7  C   UNL     1       8.383   9.338  17.841  0.00  0.00    +0.000 C 
BRANCH   7   8
ATOM      8  C   UNL     1       9.129   9.601  19.159  0.00  0.00    +0.000 C 
BRANCH   8   9
ATOM      9  C   UNL     1       9.869  10.938  19.191  0.00  0.00    +0.000 C 
BRANCH   9  11
ATOM     10  O   UNL     1       9.077  12.936  20.281  0.00  0.00    +0.000 OA
ATOM     11  C   UNL     1       9.438  11.773  20.370  0.00  0.00    +0.000 C 
BRANCH  11  12
ATOM     12  O   UNL     1       9.513  11.129  21.555  0.00  0.00    +0.000 OA
ATOM     13  H   UNL     1       9.961  11.636  22.257  0.00  0.00    +0.000 HD
ENDBRANCH  11  12
ENDBRANCH   9  11
ENDBRANCH   8   9
ENDBRANCH   7   8
ENDBRANCH   1   7
BRANCH   4  14
ATOM     14  O   UNL     1       5.855   4.255  17.750  0.00  0.00    +0.000 OA
BRANCH  14  15
ATOM     15  C   UNL     1       4.452   4.223  17.435  0.00  0.00    +0.000 C 
BRANCH  15  16
ATOM     16  C   UNL     1       3.573   4.393  18.657  0.00  0.00    +0.000 A 
ATOM     17  C   UNL     1       2.939   5.621  18.909  0.00  0.00    +0.000 A 
ATOM     18  C   UNL     1       2.164   5.802  20.057  0.00  0.00    +0.000 A 
ATOM     19  C   UNL     1       1.994   4.755  20.957  0.00  0.00    +0.000 A 
ATOM     20  C   UNL     1       2.592   3.518  20.709  0.00  0.00    +0.000 A 
ATOM     21  C   UNL     1       3.393   3.329  19.572  0.00  0.00    +0.000 A 
BRANCH  21  22
ATOM     22  C   UNL     1       4.012   1.989  19.319  0.00  0.00    +0.000 C 
ATOM     23  O   UNL     1       3.591   1.202  18.488  0.00  0.00    +0.000 OA
BRANCH  22  24
ATOM     24  O   UNL     1       5.103   1.728  20.069  0.00  0.00    +0.000 OA
ATOM     25  H   UNL     1       4.973   1.754  21.034  0.00  0.00    +0.000 HD
ENDBRANCH  22  24
ENDBRANCH  21  22
ENDBRANCH  15  16
ENDBRANCH  14  15
ENDBRANCH   4  14
TORSDOF 10
ENDMDL
MODEL 9
REMARK VINA RESULT:      -7.2      4.635      7.403
REMARK  Name = 
REMARK  10 active torsions:
REMARK  status: ('A' for Active; 'I' for Inactive)
REMARK    1  A    between atoms: C_2  and  O_3
REMARK    2  A    between atoms: C_2  and  C_4
REMARK    3  A    between atoms: C_4  and  C_5
REMARK    4  A    between atoms: C_5  and  C_6
REMARK    5  A    between atoms: C_6  and  C_7
REMARK    6  A    between atoms: C_10  and  O_11
REMARK    7  A    between atoms: O_11  and  C_12
REMARK    8  A    between atoms: C_12  and  C_13
REMARK    9  A    between atoms: C_18  and  C_19
REMARK   10  A    between atoms: C_19  and  O_21
REMARK                            x       y       z     vdW  Elec       q    Type
REMARK                         _______ _______ _______ _____ _____    ______ ____
ROOT
ATOM      1  C   UNL     1       0.454   9.812  19.406  0.00  0.00    +0.000 A 
ATOM      2  C   UNL     1       0.888   8.959  20.426  0.00  0.00    +0.000 A 
ATOM      3  C   UNL     1       1.834   7.976  20.171  0.00  0.00    +0.000 A 
ATOM      4  C   UNL     1       2.319   7.785  18.878  0.00  0.00    +0.000 A 
ATOM      5  C   UNL     1       1.917   8.650  17.858  0.00  0.00    +0.000 A 
ATOM      6  C   UNL     1       0.982   9.656  18.117  0.00  0.00    +0.000 A 
ENDROOT
BRANCH   1   7
ATOM      7  C   UNL     1      -0.537  10.900  19.727  0.00  0.00    +0.000 C 
BRANCH   7   8
ATOM      8  C   UNL     1      -1.260  11.417  18.473  0.00  0.00    +0.000 C 
BRANCH   8   9
ATOM      9  C   UNL     1      -2.545  10.657  18.146  0.00  0.00    +0.000 C 
BRANCH   9  11
ATOM     10  O   UNL     1      -4.417  11.389  16.817  0.00  0.00    +0.000 OA
ATOM     11  C   UNL     1      -3.212  11.216  16.915  0.00  0.00    +0.000 C 
BRANCH  11  12
ATOM     12  O   UNL     1      -2.359  11.486  15.903  0.00  0.00    +0.000 OA
ATOM     13  H   UNL     1      -2.106  10.706  15.376  0.00  0.00    +0.000 HD
ENDBRANCH  11  12
ENDBRANCH   9  11
ENDBRANCH   8   9
ENDBRANCH   7   8
ENDBRANCH   1   7
BRANCH   4  14
ATOM     14  O   UNL     1       3.167   6.770  18.516  0.00  0.00    +0.000 OA
BRANCH  14  15
ATOM     15  C   UNL     1       3.372   5.790  19.547  0.00  0.00    +0.000 C 
BRANCH  15  16
ATOM     16  C   UNL     1       2.651   4.487  19.269  0.00  0.00    +0.000 A 
ATOM     17  C   UNL     1       1.389   4.240  19.835  0.00  0.00    +0.000 A 
ATOM     18  C   UNL     1       0.736   3.023  19.621  0.00  0.00    +0.000 A 
ATOM     19  C   UNL     1       1.323   2.046  18.825  0.00  0.00    +0.000 A 
ATOM     20  C   UNL     1       2.563   2.284  18.229  0.00  0.00    +0.000 A 
ATOM     21  C   UNL     1       3.242   3.492  18.454  0.00  0.00    +0.000 A 
BRANCH  21  22
ATOM     22  C   UNL     1       4.564   3.731  17.792  0.00  0.00    +0.000 C 
ATOM     23  O   UNL     1       4.678   4.180  16.665  0.00  0.00    +0.000 OA
BRANCH  22  24
ATOM     24  O   UNL     1       5.633   3.437  18.561  0.00  0.00    +0.000 OA
ATOM     25  H   UNL     1       6.334   4.114  18.593  0.00  0.00    +0.000 HD
ENDBRANCH  22  24
ENDBRANCH  21  22
ENDBRANCH  15  16
ENDBRANCH  14  15
ENDBRANCH   4  14
TORSDOF 10
ENDMDL
