MODEL 1
REMARK VINA RESULT:      -7.4      0.000      0.000
REMARK  Name = 
REMARK  4 active torsions:
REMARK  status: ('A' for Active; 'I' for Inactive)
REMARK    1  A    between atoms: C_1  and  C_2
REMARK    2  A    between atoms: C_5  and  N_6
REMARK    3  A    between atoms: C_12  and  C_13
REMARK    4  A    between atoms: C_13  and  N_14
REMARK                            x       y       z     vdW  Elec       q    Type
REMARK                         _______ _______ _______ _____ _____    ______ ____
ROOT
ATOM      1  N   UNL     1       2.307   7.317  18.742  0.00  0.00    +0.000 N 
ATOM      2  C   UNL     1       1.888   8.587  18.431  0.00  0.00    +0.000 C 
ATOM      3  O   UNL     1       2.179   9.168  17.388  0.00  0.00    +0.000 OA
ATOM      4  N   UNL     1       1.058   9.176  19.379  0.00  0.00    +0.000 N 
ATOM      5  C   UNL     1       0.410  10.435  19.022  0.00  0.00    +0.000 C 
ATOM      6  C   UNL     1       0.858  11.550  19.960  0.00  0.00    +0.000 C 
ATOM      7  C   UNL     1       0.588  11.194  21.434  0.00  0.00    +0.000 C 
ATOM      8  C   UNL     1       1.283   9.857  21.749  0.00  0.00    +0.000 C 
ATOM      9  C   UNL     1       0.886   8.745  20.773  0.00  0.00    +0.000 C 
ATOM     10  H   UNL     1       1.725   6.806  19.389  0.00  0.00    +0.000 HD
ENDROOT
BRANCH   1  15
ATOM     11  C   UNL     1       5.829   3.945  15.719  0.00  0.00    +0.000 C 
ATOM     12  C   UNL     1       4.936   4.834  16.526  0.00  0.00    +0.000 A 
ATOM     13  C   UNL     1       5.184   6.207  16.620  0.00  0.00    +0.000 A 
ATOM     14  C   UNL     1       4.333   7.038  17.358  0.00  0.00    +0.000 A 
ATOM     15  C   UNL     1       3.211   6.516  18.006  0.00  0.00    +0.000 A 
ATOM     16  C   UNL     1       2.980   5.132  17.932  0.00  0.00    +0.000 A 
ATOM     17 CL   UNL     1       1.622   4.411  18.732  0.00  0.00    +0.000 Cl
ATOM     18  C   UNL     1       3.827   4.300  17.195  0.00  0.00    +0.000 A 
ENDBRANCH   1  15
BRANCH   7  19
ATOM     19  C   UNL     1      -0.932  11.171  21.729  0.00  0.00    +0.000 C 
BRANCH  19  20
ATOM     20  N   UNL     1      -1.372  12.061  22.822  0.00  0.00    +0.000 NA
ATOM     21  C   UNL     1      -0.746  13.390  22.714  0.00  0.00    +0.000 C 
ATOM     22  C   UNL     1      -1.245  14.356  23.790  0.00  0.00    +0.000 C 
ATOM     23  C   UNL     1      -2.760  14.486  23.750  0.00  0.00    +0.000 C 
ATOM     24  C   UNL     1      -3.392  13.106  23.868  0.00  0.00    +0.000 C 
ATOM     25  C   UNL     1      -2.846  12.161  22.798  0.00  0.00    +0.000 C 
ENDBRANCH  19  20
ENDBRANCH   7  19
TORSDOF 3
ENDMDL
MODEL 2
REMARK VINA RESULT:      -7.3      0.833      1.045
REMARK  Name = 
REMARK  4 active torsions:
REMARK  status: ('A' for Active; 'I' for Inactive)
REMARK    1  A    between atoms: C_1  and  C_2
REMARK    2  A    between atoms: C_5  and  N_6
REMARK    3  A    between atoms: C_12  and  C_13
REMARK    4  A    between atoms: C_13  and  N_14
REMARK                            x       y       z     vdW  Elec       q    Type
REMARK                         _______ _______ _______ _____ _____    ______ ____
ROOT
ATOM      1  N   UNL     1       2.496   7.038  18.678  0.00  0.00    +0.000 N 
ATOM      2  C   UNL     1       2.035   8.303  18.412  0.00  0.00    +0.000 C 
ATOM      3  O   UNL     1       2.293   8.924  17.382  0.00  0.00    +0.000 OA
ATOM      4  N   UNL     1       1.204   8.838  19.389  0.00  0.00    +0.000 N 
ATOM      5  C   UNL     1       0.513  10.088  19.081  0.00  0.00    +0.000 C 
ATOM      6  C   UNL     1       0.944  11.188  20.046  0.00  0.00    +0.000 C 
ATOM      7  C   UNL     1       0.708  10.779  21.512  0.00  0.00    +0.000 C 
ATOM      8  C   UNL     1       1.447   9.454  21.776  0.00  0.00    +0.000 C 
ATOM      9  C   UNL     1       1.067   8.361  20.773  0.00  0.00    +0.000 C 
ATOM     10  H   UNL     1       1.940   6.490  19.318  0.00  0.00    +0.000 HD
ENDROOT
BRANCH   1  15
ATOM     11  C   UNL     1       6.060   3.879  15.478  0.00  0.00    +0.000 C 
ATOM     12  C   UNL     1       5.155   4.709  16.334  0.00  0.00    +0.000 A 
ATOM     13  C   UNL     1       5.456   6.046  16.612  0.00  0.00    +0.000 A 
ATOM     14  C   UNL     1       4.595   6.824  17.394  0.00  0.00    +0.000 A 
ATOM     15  C   UNL     1       3.411   6.286  17.904  0.00  0.00    +0.000 A 
ATOM     16  C   UNL     1       3.125   4.935  17.645  0.00  0.00    +0.000 A 
ATOM     17 CL   UNL     1       1.688   4.193  18.267  0.00  0.00    +0.000 Cl
ATOM     18  C   UNL     1       3.982   4.156  16.864  0.00  0.00    +0.000 A 
ENDBRANCH   1  15
BRANCH   7  19
ATOM     19  C   UNL     1      -0.806  10.702  21.830  0.00  0.00    +0.000 C 
BRANCH  19  20
ATOM     20  N   UNL     1      -1.472  12.005  22.027  0.00  0.00    +0.000 NA
ATOM     21  C   UNL     1      -2.248  12.395  20.836  0.00  0.00    +0.000 C 
ATOM     22  C   UNL     1      -3.011  13.704  21.043  0.00  0.00    +0.000 C 
ATOM     23  C   UNL     1      -3.922  13.621  22.259  0.00  0.00    +0.000 C 
ATOM     24  C   UNL     1      -3.106  13.223  23.480  0.00  0.00    +0.000 C 
ATOM     25  C   UNL     1      -2.333  11.930  23.224  0.00  0.00    +0.000 C 
ENDBRANCH  19  20
ENDBRANCH   7  19
TORSDOF 3
ENDMDL
MODEL 3
REMARK VINA RESULT:      -7.1      0.336      1.053
REMARK  Name = 
REMARK  4 active torsions:
REMARK  status: ('A' for Active; 'I' for Inactive)
REMARK    1  A    between atoms: C_1  and  C_2
REMARK    2  A    between atoms: C_5  and  N_6
REMARK    3  A    between atoms: C_12  and  C_13
REMARK    4  A    between atoms: C_13  and  N_14
REMARK                            x       y       z     vdW  Elec       q    Type
REMARK                         _______ _______ _______ _____ _____    ______ ____
ROOT
ATOM      1  N   UNL     1       2.243   7.369  18.696  0.00  0.00    +0.000 N 
ATOM      2  C   UNL     1       1.807   8.625  18.354  0.00  0.00    +0.000 C 
ATOM      3  O   UNL     1       2.098   9.188  17.300  0.00  0.00    +0.000 OA
ATOM      4  N   UNL     1       0.961   9.222  19.282  0.00  0.00    +0.000 N 
ATOM      5  C   UNL     1       0.297  10.463  18.893  0.00  0.00    +0.000 C 
ATOM      6  C   UNL     1       0.722  11.605  19.809  0.00  0.00    +0.000 C 
ATOM      7  C   UNL     1       0.445  11.277  21.288  0.00  0.00    +0.000 C 
ATOM      8  C   UNL     1       1.158   9.958  21.638  0.00  0.00    +0.000 C 
ATOM      9  C   UNL     1       0.785   8.819  20.684  0.00  0.00    +0.000 C 
ATOM     10  H   UNL     1       1.663   6.863  19.350  0.00  0.00    +0.000 HD
ENDROOT
BRANCH   1  15
ATOM     11  C   UNL     1       5.837   3.984  15.774  0.00  0.00    +0.000 C 
ATOM     12  C   UNL     1       4.924   4.877  16.554  0.00  0.00    +0.000 A 
ATOM     13  C   UNL     1       5.153   6.255  16.622  0.00  0.00    +0.000 A 
ATOM     14  C   UNL     1       4.284   7.089  17.335  0.00  0.00    +0.000 A 
ATOM     15  C   UNL     1       3.164   6.565  17.984  0.00  0.00    +0.000 A 
ATOM     16  C   UNL     1       2.952   5.177  17.937  0.00  0.00    +0.000 A 
ATOM     17 CL   UNL     1       1.598   4.454  18.741  0.00  0.00    +0.000 Cl
ATOM     18  C   UNL     1       3.818   4.342  17.226  0.00  0.00    +0.000 A 
ENDBRANCH   1  15
BRANCH   7  19
ATOM     19  C   UNL     1      -1.077  11.238  21.573  0.00  0.00    +0.000 C 
BRANCH  19  20
ATOM     20  N   UNL     1      -1.658  12.508  22.051  0.00  0.00    +0.000 NA
ATOM     21  C   UNL     1      -2.711  12.270  23.054  0.00  0.00    +0.000 C 
ATOM     22  C   UNL     1      -3.276  13.573  23.622  0.00  0.00    +0.000 C 
ATOM     23  C   UNL     1      -2.173  14.437  24.215  0.00  0.00    +0.000 C 
ATOM     24  C   UNL     1      -1.096  14.678  23.166  0.00  0.00    +0.000 C 
ATOM     25  C   UNL     1      -0.580  13.356  22.599  0.00  0.00    +0.000 C 
ENDBRANCH  19  20
ENDBRANCH   7  19
TORSDOF 3
ENDMDL
MODEL 4
REMARK VINA RESULT:      -7.1      3.769      8.556
REMARK  Name = 
REMARK  4 active torsions:
REMARK  status: ('A' for Active; 'I' for Inactive)
REMARK    1  A    between atoms: C_1  and  C_2
REMARK    2  A    between atoms: C_5  and  N_6
REMARK    3  A    between atoms: C_12  and  C_13
REMARK    4  A    between atoms: C_13  and  N_14
REMARK                            x       y       z     vdW  Elec       q    Type
REMARK                         _______ _______ _______ _____ _____    ______ ____
ROOT
ATOM      1  N   UNL     1       1.188  11.461  18.385  0.00  0.00    +0.000 N 
ATOM      2  C   UNL     1       1.173  10.559  19.420  0.00  0.00    +0.000 C 
ATOM      3  O   UNL     1       1.042  10.874  20.602  0.00  0.00    +0.000 OA
ATOM      4  N   UNL     1       1.281   9.228  19.035  0.00  0.00    +0.000 N 
ATOM      5  C   UNL     1       1.065   8.207  20.057  0.00  0.00    +0.000 C 
ATOM      6  C   UNL     1       2.325   7.372  20.251  0.00  0.00    +0.000 C 
ATOM      7  C   UNL     1       2.790   6.732  18.930  0.00  0.00    +0.000 C 
ATOM      8  C   UNL     1       2.990   7.850  17.889  0.00  0.00    +0.000 C 
ATOM      9  C   UNL     1       1.749   8.733  17.732  0.00  0.00    +0.000 C 
ATOM     10  H   UNL     1       0.912  11.104  17.483  0.00  0.00    +0.000 HD
ENDROOT
BRANCH   1  15
ATOM     11  C   UNL     1       0.965  17.171  18.905  0.00  0.00    +0.000 C 
ATOM     12  C   UNL     1       1.038  15.685  18.741  0.00  0.00    +0.000 A 
ATOM     13  C   UNL     1       2.266  15.042  18.554  0.00  0.00    +0.000 A 
ATOM     14  C   UNL     1       2.331  13.651  18.423  0.00  0.00    +0.000 A 
ATOM     15  C   UNL     1       1.173  12.873  18.487  0.00  0.00    +0.000 A 
ATOM     16  C   UNL     1      -0.062  13.523  18.647  0.00  0.00    +0.000 A 
ATOM     17 CL   UNL     1      -1.542  12.624  18.709  0.00  0.00    +0.000 Cl
ATOM     18  C   UNL     1      -0.130  14.913  18.779  0.00  0.00    +0.000 A 
ENDBRANCH   1  15
BRANCH   7  19
ATOM     19  C   UNL     1       1.797   5.640  18.462  0.00  0.00    +0.000 C 
BRANCH  19  20
ATOM     20  N   UNL     1       1.974   4.318  19.096  0.00  0.00    +0.000 NA
ATOM     21  C   UNL     1       3.375   4.100  19.497  0.00  0.00    +0.000 C 
ATOM     22  C   UNL     1       3.569   2.770  20.226  0.00  0.00    +0.000 C 
ATOM     23  C   UNL     1       2.656   2.671  21.439  0.00  0.00    +0.000 C 
ATOM     24  C   UNL     1       1.213   2.893  21.008  0.00  0.00    +0.000 C 
ATOM     25  C   UNL     1       1.064   4.215  20.255  0.00  0.00    +0.000 C 
ENDBRANCH  19  20
ENDBRANCH   7  19
TORSDOF 3
ENDMDL
MODEL 5
REMARK VINA RESULT:      -7.1      2.300      9.118
REMARK  Name = 
REMARK  4 active torsions:
REMARK  status: ('A' for Active; 'I' for Inactive)
REMARK    1  A    between atoms: C_1  and  C_2
REMARK    2  A    between atoms: C_5  and  N_6
REMARK    3  A    between atoms: C_12  and  C_13
REMARK    4  A    between atoms: C_13  and  N_14
REMARK                            x       y       z     vdW  Elec       q    Type
REMARK                         _______ _______ _______ _____ _____    ______ ____
ROOT
ATOM      1  N   UNL     1       0.897   9.203  20.815  0.00  0.00    +0.000 N 
ATOM      2  C   UNL     1       1.411   8.788  19.612  0.00  0.00    +0.000 C 
ATOM      3  O   UNL     1       1.307   9.426  18.565  0.00  0.00    +0.000 OA
ATOM      4  N   UNL     1       2.110   7.588  19.659  0.00  0.00    +0.000 N 
ATOM      5  C   UNL     1       2.857   7.191  18.468  0.00  0.00    +0.000 C 
ATOM      6  C   UNL     1       2.317   5.878  17.912  0.00  0.00    +0.000 C 
ATOM      7  C   UNL     1       2.344   4.761  18.973  0.00  0.00    +0.000 C 
ATOM      8  C   UNL     1       1.554   5.237  20.205  0.00  0.00    +0.000 C 
ATOM      9  C   UNL     1       2.049   6.586  20.734  0.00  0.00    +0.000 C 
ATOM     10  H   UNL     1       1.352   8.839  21.639  0.00  0.00    +0.000 HD
ENDROOT
BRANCH   1  15
ATOM     11  C   UNL     1      -2.342  13.805  21.936  0.00  0.00    +0.000 C 
ATOM     12  C   UNL     1      -1.518  12.595  21.621  0.00  0.00    +0.000 A 
ATOM     13  C   UNL     1      -1.027  12.377  20.329  0.00  0.00    +0.000 A 
ATOM     14  C   UNL     1      -0.239  11.256  20.045  0.00  0.00    +0.000 A 
ATOM     15  C   UNL     1       0.083  10.338  21.046  0.00  0.00    +0.000 A 
ATOM     16  C   UNL     1      -0.434  10.545  22.335  0.00  0.00    +0.000 A 
ATOM     17 CL   UNL     1      -0.096   9.433  23.621  0.00  0.00    +0.000 Cl
ATOM     18  C   UNL     1      -1.220  11.664  22.623  0.00  0.00    +0.000 A 
ENDBRANCH   1  15
BRANCH   7  19
ATOM     19  C   UNL     1       3.799   4.348  19.307  0.00  0.00    +0.000 C 
BRANCH  19  20
ATOM     20  N   UNL     1       4.827   4.868  18.384  0.00  0.00    +0.000 NA
ATOM     21  C   UNL     1       6.047   5.264  19.109  0.00  0.00    +0.000 C 
ATOM     22  C   UNL     1       7.156   5.734  18.167  0.00  0.00    +0.000 C 
ATOM     23  C   UNL     1       7.484   4.668  17.131  0.00  0.00    +0.000 C 
ATOM     24  C   UNL     1       6.216   4.274  16.388  0.00  0.00    +0.000 C 
ATOM     25  C   UNL     1       5.121   3.842  17.363  0.00  0.00    +0.000 C 
ENDBRANCH  19  20
ENDBRANCH   7  19
TORSDOF 3
ENDMDL
MODEL 6
REMARK VINA RESULT:      -7.0      2.565      9.894
REMARK  Name = 
REMARK  4 active torsions:
REMARK  status: ('A' for Active; 'I' for Inactive)
REMARK    1  A    between atoms: C_1  and  C_2
REMARK    2  A    between atoms: C_5  and  N_6
REMARK    3  A    between atoms: C_12  and  C_13
REMARK    4  A    between atoms: C_13  and  N_14
REMARK                            x       y       z     vdW  Elec       q    Type
REMARK                         _______ _______ _______ _____ _____    ______ ____
ROOT
ATOM      1  N   UNL     1       1.849   7.771  19.530  0.00  0.00    +0.000 N 
ATOM      2  C   UNL     1       2.319   6.521  19.848  0.00  0.00    +0.000 C 
ATOM      3  O   UNL     1       2.116   5.966  20.926  0.00  0.00    +0.000 OA
ATOM      4  N   UNL     1       3.027   5.889  18.832  0.00  0.00    +0.000 N 
ATOM      5  C   UNL     1       3.376   4.483  19.024  0.00  0.00    +0.000 C 
ATOM      6  C   UNL     1       4.890   4.306  19.034  0.00  0.00    +0.000 C 
ATOM      7  C   UNL     1       5.533   4.859  17.749  0.00  0.00    +0.000 C 
ATOM      8  C   UNL     1       5.123   6.335  17.592  0.00  0.00    +0.000 C 
ATOM      9  C   UNL     1       3.605   6.530  17.643  0.00  0.00    +0.000 C 
ATOM     10  H   UNL     1       1.729   7.961  18.546  0.00  0.00    +0.000 HD
ENDROOT
BRANCH   1  15
ATOM     11  C   UNL     1      -1.043  11.428  22.875  0.00  0.00    +0.000 C 
ATOM     12  C   UNL     1      -0.261  10.483  22.016  0.00  0.00    +0.000 A 
ATOM     13  C   UNL     1       0.557   9.502  22.587  0.00  0.00    +0.000 A 
ATOM     14  C   UNL     1       1.269   8.608  21.780  0.00  0.00    +0.000 A 
ATOM     15  C   UNL     1       1.170   8.668  20.388  0.00  0.00    +0.000 A 
ATOM     16  C   UNL     1       0.370   9.672  19.817  0.00  0.00    +0.000 A 
ATOM     17 CL   UNL     1       0.220   9.823  18.097  0.00  0.00    +0.000 Cl
ATOM     18  C   UNL     1      -0.343  10.566  20.620  0.00  0.00    +0.000 A 
ENDBRANCH   1  15
BRANCH   7  19
ATOM     19  C   UNL     1       5.156   3.992  16.522  0.00  0.00    +0.000 C 
BRANCH  19  20
ATOM     20  N   UNL     1       5.605   4.521  15.218  0.00  0.00    +0.000 NA
ATOM     21  C   UNL     1       7.068   4.695  15.186  0.00  0.00    +0.000 C 
ATOM     22  C   UNL     1       7.566   5.168  13.820  0.00  0.00    +0.000 C 
ATOM     23  C   UNL     1       7.126   4.218  12.716  0.00  0.00    +0.000 C 
ATOM     24  C   UNL     1       5.614   4.052  12.759  0.00  0.00    +0.000 C 
ATOM     25  C   UNL     1       5.151   3.611  14.147  0.00  0.00    +0.000 C 
ENDBRANCH  19  20
ENDBRANCH   7  19
TORSDOF 3
ENDMDL
MODEL 7
REMARK VINA RESULT:      -6.9      0.943      1.030
REMARK  Name = 
REMARK  4 active torsions:
REMARK  status: ('A' for Active; 'I' for Inactive)
REMARK    1  A    between atoms: C_1  and  C_2
REMARK    2  A    between atoms: C_5  and  N_6
REMARK    3  A    between atoms: C_12  and  C_13
REMARK    4  A    between atoms: C_13  and  N_14
REMARK                            x       y       z     vdW  Elec       q    Type
REMARK                         _______ _______ _______ _____ _____    ______ ____
ROOT
ATOM      1  N   UNL     1       2.489   7.109  18.655  0.00  0.00    +0.000 N 
ATOM      2  C   UNL     1       1.998   8.351  18.336  0.00  0.00    +0.000 C 
ATOM      3  O   UNL     1       2.238   8.932  17.279  0.00  0.00    +0.000 OA
ATOM      4  N   UNL     1       1.159   8.909  19.293  0.00  0.00    +0.000 N 
ATOM      5  C   UNL     1       0.439  10.129  18.935  0.00  0.00    +0.000 C 
ATOM      6  C   UNL     1       0.849  11.279  19.848  0.00  0.00    +0.000 C 
ATOM      7  C   UNL     1       0.628  10.929  21.332  0.00  0.00    +0.000 C 
ATOM      8  C   UNL     1       1.397   9.634  21.650  0.00  0.00    +0.000 C 
ATOM      9  C   UNL     1       1.038   8.490  20.697  0.00  0.00    +0.000 C 
ATOM     10  H   UNL     1       1.948   6.577  19.320  0.00  0.00    +0.000 HD
ENDROOT
BRANCH   1  15
ATOM     11  C   UNL     1       6.110   3.900  15.570  0.00  0.00    +0.000 C 
ATOM     12  C   UNL     1       5.189   4.743  16.396  0.00  0.00    +0.000 A 
ATOM     13  C   UNL     1       5.489   6.083  16.665  0.00  0.00    +0.000 A 
ATOM     14  C   UNL     1       4.614   6.873  17.419  0.00  0.00    +0.000 A 
ATOM     15  C   UNL     1       3.418   6.345  17.909  0.00  0.00    +0.000 A 
ATOM     16  C   UNL     1       3.133   4.992  17.661  0.00  0.00    +0.000 A 
ATOM     17 CL   UNL     1       1.679   4.262  18.261  0.00  0.00    +0.000 Cl
ATOM     18  C   UNL     1       4.004   4.200  16.908  0.00  0.00    +0.000 A 
ENDBRANCH   1  15
BRANCH   7  19
ATOM     19  C   UNL     1      -0.883  10.832  21.660  0.00  0.00    +0.000 C 
BRANCH  19  20
ATOM     20  N   UNL     1      -1.548  12.121  21.939  0.00  0.00    +0.000 NA
ATOM     21  C   UNL     1      -0.590  13.119  22.444  0.00  0.00    +0.000 C 
ATOM     22  C   UNL     1      -1.239  14.486  22.667  0.00  0.00    +0.000 C 
ATOM     23  C   UNL     1      -1.902  14.992  21.394  0.00  0.00    +0.000 C 
ATOM     24  C   UNL     1      -2.892  13.953  20.888  0.00  0.00    +0.000 C 
ATOM     25  C   UNL     1      -2.215  12.594  20.709  0.00  0.00    +0.000 C 
ENDBRANCH  19  20
ENDBRANCH   7  19
TORSDOF 3
ENDMDL
MODEL 8
REMARK VINA RESULT:      -6.9      2.289      9.317
REMARK  Name = 
REMARK  4 active torsions:
REMARK  status: ('A' for Active; 'I' for Inactive)
REMARK    1  A    between atoms: C_1  and  C_2
REMARK    2  A    between atoms: C_5  and  N_6
REMARK    3  A    between atoms: C_12  and  C_13
REMARK    4  A    between atoms: C_13  and  N_14
REMARK                            x       y       z     vdW  Elec       q    Type
REMARK                         _______ _______ _______ _____ _____    ______ ____
ROOT
ATOM      1  N   UNL     1       0.746   8.864  20.698  0.00  0.00    +0.000 N 
ATOM      2  C   UNL     1       1.539   8.641  19.600  0.00  0.00    +0.000 C 
ATOM      3  O   UNL     1       1.656   9.432  18.667  0.00  0.00    +0.000 OA
ATOM      4  N   UNL     1       2.251   7.447  19.629  0.00  0.00    +0.000 N 
ATOM      5  C   UNL     1       3.267   7.240  18.600  0.00  0.00    +0.000 C 
ATOM      6  C   UNL     1       2.919   6.028  17.743  0.00  0.00    +0.000 C 
ATOM      7  C   UNL     1       2.741   4.761  18.600  0.00  0.00    +0.000 C 
ATOM      8  C   UNL     1       1.671   5.040  19.671  0.00  0.00    +0.000 C 
ATOM      9  C   UNL     1       1.981   6.292  20.497  0.00  0.00    +0.000 C 
ATOM     10  H   UNL     1       1.011   8.377  21.542  0.00  0.00    +0.000 HD
ENDROOT
BRANCH   1  15
ATOM     11  C   UNL     1      -2.759  13.298  21.687  0.00  0.00    +0.000 C 
ATOM     12  C   UNL     1      -1.868  12.127  21.412  0.00  0.00    +0.000 A 
ATOM     13  C   UNL     1      -1.562  11.751  20.100  0.00  0.00    +0.000 A 
ATOM     14  C   UNL     1      -0.711  10.669  19.848  0.00  0.00    +0.000 A 
ATOM     15  C   UNL     1      -0.140   9.949  20.900  0.00  0.00    +0.000 A 
ATOM     16  C   UNL     1      -0.471  10.313  22.216  0.00  0.00    +0.000 A 
ATOM     17 CL   UNL     1       0.179   9.449  23.571  0.00  0.00    +0.000 Cl
ATOM     18  C   UNL     1      -1.320  11.393  22.471  0.00  0.00    +0.000 A 
ENDBRANCH   1  15
BRANCH   7  19
ATOM     19  C   UNL     1       4.093   4.302  19.200  0.00  0.00    +0.000 C 
BRANCH  19  20
ATOM     20  N   UNL     1       5.130   3.947  18.210  0.00  0.00    +0.000 NA
ATOM     21  C   UNL     1       4.595   3.984  16.838  0.00  0.00    +0.000 C 
ATOM     22  C   UNL     1       5.670   3.696  15.789  0.00  0.00    +0.000 C 
ATOM     23  C   UNL     1       6.840   4.660  15.922  0.00  0.00    +0.000 C 
ATOM     24  C   UNL     1       7.384   4.607  17.343  0.00  0.00    +0.000 C 
ATOM     25  C   UNL     1       6.276   4.867  18.363  0.00  0.00    +0.000 C 
ENDBRANCH  19  20
ENDBRANCH   7  19
TORSDOF 3
ENDMDL
MODEL 9
REMARK VINA RESULT:      -6.8      2.725     10.192
REMARK  Name = 
REMARK  4 active torsions:
REMARK  status: ('A' for Active; 'I' for Inactive)
REMARK    1  A    between atoms: C_1  and  C_2
REMARK    2  A    between atoms: C_5  and  N_6
REMARK    3  A    between atoms: C_12  and  C_13
REMARK    4  A    between atoms: C_13  and  N_14
REMARK                            x       y       z     vdW  Elec       q    Type
REMARK                         _______ _______ _______ _____ _____    ______ ____
ROOT
ATOM      1  N   UNL     1       2.169   7.561  19.036  0.00  0.00    +0.000 N 
ATOM      2  C   UNL     1       2.742   6.341  19.297  0.00  0.00    +0.000 C 
ATOM      3  O   UNL     1       2.667   5.766  20.381  0.00  0.00    +0.000 OA
ATOM      4  N   UNL     1       3.397   5.762  18.216  0.00  0.00    +0.000 N 
ATOM      5  C   UNL     1       3.849   4.380  18.359  0.00  0.00    +0.000 C 
ATOM      6  C   UNL     1       5.367   4.300  18.237  0.00  0.00    +0.000 C 
ATOM      7  C   UNL     1       5.861   4.902  16.909  0.00  0.00    +0.000 C 
ATOM      8  C   UNL     1       5.347   6.350  16.807  0.00  0.00    +0.000 C 
ATOM      9  C   UNL     1       3.830   6.448  16.990  0.00  0.00    +0.000 C 
ATOM     10  H   UNL     1       1.953   7.750  18.068  0.00  0.00    +0.000 HD
ENDROOT
BRANCH   1  15
ATOM     11  C   UNL     1      -0.584  11.078  22.637  0.00  0.00    +0.000 C 
ATOM     12  C   UNL     1       0.158  10.158  21.719  0.00  0.00    +0.000 A 
ATOM     13  C   UNL     1       0.532   8.876  22.135  0.00  0.00    +0.000 A 
ATOM     14  C   UNL     1       1.207   8.013  21.265  0.00  0.00    +0.000 A 
ATOM     15  C   UNL     1       1.511   8.406  19.961  0.00  0.00    +0.000 A 
ATOM     16  C   UNL     1       1.158   9.704  19.554  0.00  0.00    +0.000 A 
ATOM     17 CL   UNL     1       1.526  10.270  17.958  0.00  0.00    +0.000 Cl
ATOM     18  C   UNL     1       0.484  10.569  20.420  0.00  0.00    +0.000 A 
ENDBRANCH   1  15
BRANCH   7  19
ATOM     19  C   UNL     1       5.434   4.022  15.708  0.00  0.00    +0.000 C 
BRANCH  19  20
ATOM     20  N   UNL     1       6.410   3.954  14.601  0.00  0.00    +0.000 NA
ATOM     21  C   UNL     1       5.762   3.556  13.340  0.00  0.00    +0.000 C 
ATOM     22  C   UNL     1       6.737   3.554  12.162  0.00  0.00    +0.000 C 
ATOM     23  C   UNL     1       7.407   4.911  12.002  0.00  0.00    +0.000 C 
ATOM     24  C   UNL     1       8.076   5.306  13.310  0.00  0.00    +0.000 C 
ATOM     25  C   UNL     1       7.079   5.264  14.468  0.00  0.00    +0.000 C 
ENDBRANCH  19  20
ENDBRANCH   7  19
TORSDOF 3
ENDMDL
