MODEL 1
REMARK VINA RESULT:      -8.5      0.000      0.000
REMARK  Name = 
REMARK  10 active torsions:
REMARK  status: ('A' for Active; 'I' for Inactive)
REMARK    1  A    between atoms: C_1  and  C_2
REMARK    2  A    between atoms: C_2  and  C_3
REMARK    3  A    between atoms: C_2  and  C_4
REMARK    4  A    between atoms: C_4  and  N_5
REMARK    5  A    between atoms: C_4  and  C_14
REMARK    6  A    between atoms: C_6  and  C_8
REMARK    7  A    between atoms: C_14  and  O_16
REMARK    8  A    between atoms: O_16  and  C_17
REMARK    9  A    between atoms: C_17  and  C_18
REMARK   10  A    between atoms: C_18  and  C_20
REMARK                            x       y       z     vdW  Elec       q    Type
REMARK                         _______ _______ _______ _____ _____    ______ ____
ROOT
ATOM      1  C   UNL     1       7.259   5.738  18.620  0.00  0.00    +0.000 C 
ATOM      2  O   UNL     1       7.426   5.501  19.811  0.00  0.00    +0.000 OA
ENDROOT
BRANCH   1   3
ATOM      3  C   UNL     1       6.515   4.812  17.648  0.00  0.00    +0.000 C 
BRANCH   3   4
ATOM      4  N   UNL     1       5.125   4.742  18.110  0.00  0.00    +0.000 N 
ATOM      5  C   UNL     1       4.703   3.776  18.996  0.00  0.00    +0.000 C 
ATOM      6  O   UNL     1       5.416   2.891  19.439  0.00  0.00    +0.000 OA
ATOM      7  H   UNL     1       4.585   5.598  18.046  0.00  0.00    +0.000 HD
BRANCH   5   8
ATOM      8  C   UNL     1       3.300   3.924  19.473  0.00  0.00    +0.000 A 
ATOM      9  C   UNL     1       2.869   5.100  20.100  0.00  0.00    +0.000 A 
ATOM     10  C   UNL     1       1.565   5.193  20.587  0.00  0.00    +0.000 A 
ATOM     11  C   UNL     1       0.688   4.118  20.438  0.00  0.00    +0.000 A 
ATOM     12  C   UNL     1       1.102   2.961  19.779  0.00  0.00    +0.000 A 
ATOM     13  C   UNL     1       2.405   2.864  19.286  0.00  0.00    +0.000 A 
ENDBRANCH   5   8
ENDBRANCH   3   4
BRANCH   3  15
ATOM     14  C   UNL     1       5.282   6.153  15.866  0.00  0.00    +0.000 C 
ATOM     15  C   UNL     1       6.569   5.393  16.214  0.00  0.00    +0.000 C 
ATOM     16  C   UNL     1       6.811   4.307  15.162  0.00  0.00    +0.000 C 
ENDBRANCH   3  15
ENDBRANCH   1   3
BRANCH   1  17
ATOM     17  O   UNL     1       7.778   6.814  17.965  0.00  0.00    +0.000 OA
BRANCH  17  18
ATOM     18  C   UNL     1       8.437   7.767  18.803  0.00  0.00    +0.000 C 
BRANCH  18  19
ATOM     19  C   UNL     1       8.357   9.147  18.170  0.00  0.00    +0.000 C 
ATOM     20  O   UNL     1       7.650   9.378  17.185  0.00  0.00    +0.000 OA
BRANCH  19  21
ATOM     21  C   UNL     1       9.201  10.246  18.722  0.00  0.00    +0.000 A 
ATOM     22  C   UNL     1      10.024  11.059  17.924  0.00  0.00    +0.000 A 
ATOM     23  C   UNL     1      10.663  12.181  18.478  0.00  0.00    +0.000 A 
ATOM     24  C   UNL     1      10.470  12.487  19.819  0.00  0.00    +0.000 A 
ATOM     25  C   UNL     1       9.746  11.612  20.626  0.00  0.00    +0.000 A 
ATOM     26  C   UNL     1       9.104  10.505  20.094  0.00  0.00    +0.000 A 
ATOM     27  N   UNL     1       9.602  11.898  22.002  0.00  0.00    +0.000 N 
ATOM     28  C   UNL     1       9.342  13.239  22.230  0.00  0.00    +0.000 C 
ATOM     29  O   UNL     1       8.511  13.626  23.044  0.00  0.00    +0.000 OA
ATOM     30  C   UNL     1      10.220  14.185  21.400  0.00  0.00    +0.000 C 
ATOM     31  O   UNL     1      10.996  13.647  20.320  0.00  0.00    +0.000 OA
ATOM     32  H   UNL     1      10.524  11.739  22.408  0.00  0.00    +0.000 HD
ENDBRANCH  19  21
ENDBRANCH  18  19
ENDBRANCH  17  18
ENDBRANCH   1  17
TORSDOF 8
ENDMDL
MODEL 2
REMARK VINA RESULT:      -8.3      4.483      7.547
REMARK  Name = 
REMARK  10 active torsions:
REMARK  status: ('A' for Active; 'I' for Inactive)
REMARK    1  A    between atoms: C_1  and  C_2
REMARK    2  A    between atoms: C_2  and  C_3
REMARK    3  A    between atoms: C_2  and  C_4
REMARK    4  A    between atoms: C_4  and  N_5
REMARK    5  A    between atoms: C_4  and  C_14
REMARK    6  A    between atoms: C_6  and  C_8
REMARK    7  A    between atoms: C_14  and  O_16
REMARK    8  A    between atoms: O_16  and  C_17
REMARK    9  A    between atoms: C_17  and  C_18
REMARK   10  A    between atoms: C_18  and  C_20
REMARK                            x       y       z     vdW  Elec       q    Type
REMARK                         _______ _______ _______ _____ _____    ______ ____
ROOT
ATOM      1  C   UNL     1       6.063   4.628  18.322  0.00  0.00    +0.000 C 
ATOM      2  O   UNL     1       6.317   4.731  19.518  0.00  0.00    +0.000 OA
ENDROOT
BRANCH   1   3
ATOM      3  C   UNL     1       7.026   5.019  17.194  0.00  0.00    +0.000 C 
BRANCH   3   4
ATOM      4  N   UNL     1       6.464   4.480  15.952  0.00  0.00    +0.000 N 
ATOM      5  C   UNL     1       7.004   4.782  14.720  0.00  0.00    +0.000 C 
ATOM      6  O   UNL     1       7.950   5.532  14.550  0.00  0.00    +0.000 OA
ATOM      7  H   UNL     1       5.915   3.631  16.035  0.00  0.00    +0.000 HD
BRANCH   5   8
ATOM      8  C   UNL     1       6.406   4.048  13.570  0.00  0.00    +0.000 A 
ATOM      9  C   UNL     1       7.212   3.502  12.564  0.00  0.00    +0.000 A 
ATOM     10  C   UNL     1       6.625   2.867  11.468  0.00  0.00    +0.000 A 
ATOM     11  C   UNL     1       5.236   2.767  11.384  0.00  0.00    +0.000 A 
ATOM     12  C   UNL     1       4.433   3.276  12.405  0.00  0.00    +0.000 A 
ATOM     13  C   UNL     1       5.015   3.909  13.504  0.00  0.00    +0.000 A 
ENDBRANCH   5   8
ENDBRANCH   3   4
BRANCH   3  15
ATOM     14  C   UNL     1       8.000   7.132  18.233  0.00  0.00    +0.000 C 
ATOM     15  C   UNL     1       7.138   6.561  17.101  0.00  0.00    +0.000 C 
ATOM     16  C   UNL     1       5.765   7.238  17.123  0.00  0.00    +0.000 C 
ENDBRANCH   3  15
ENDBRANCH   1   3
BRANCH   1  17
ATOM     17  O   UNL     1       4.861   4.229  17.820  0.00  0.00    +0.000 OA
BRANCH  17  18
ATOM     18  C   UNL     1       3.975   3.639  18.775  0.00  0.00    +0.000 C 
BRANCH  18  19
ATOM     19  C   UNL     1       2.589   4.249  18.631  0.00  0.00    +0.000 C 
ATOM     20  O   UNL     1       1.598   3.570  18.353  0.00  0.00    +0.000 OA
BRANCH  19  21
ATOM     21  C   UNL     1       2.431   5.725  18.776  0.00  0.00    +0.000 A 
ATOM     22  C   UNL     1       2.437   6.610  17.685  0.00  0.00    +0.000 A 
ATOM     23  C   UNL     1       2.116   7.965  17.870  0.00  0.00    +0.000 A 
ATOM     24  C   UNL     1       1.784   8.424  19.138  0.00  0.00    +0.000 A 
ATOM     25  C   UNL     1       1.892   7.565  20.229  0.00  0.00    +0.000 A 
ATOM     26  C   UNL     1       2.200   6.224  20.063  0.00  0.00    +0.000 A 
ATOM     27  N   UNL     1       1.608   8.052  21.525  0.00  0.00    +0.000 N 
ATOM     28  C   UNL     1       0.487   8.865  21.542  0.00  0.00    +0.000 C 
ATOM     29  O   UNL     1      -0.365   8.805  22.421  0.00  0.00    +0.000 OA
ATOM     30  C   UNL     1       0.440   9.870  20.383  0.00  0.00    +0.000 C 
ATOM     31  O   UNL     1       1.354   9.715  19.288  0.00  0.00    +0.000 OA
ATOM     32  H   UNL     1       2.384   8.675  21.754  0.00  0.00    +0.000 HD
ENDBRANCH  19  21
ENDBRANCH  18  19
ENDBRANCH  17  18
ENDBRANCH   1  17
TORSDOF 8
ENDMDL
MODEL 3
REMARK VINA RESULT:      -8.3      1.008      1.250
REMARK  Name = 
REMARK  10 active torsions:
REMARK  status: ('A' for Active; 'I' for Inactive)
REMARK    1  A    between atoms: C_1  and  C_2
REMARK    2  A    between atoms: C_2  and  C_3
REMARK    3  A    between atoms: C_2  and  C_4
REMARK    4  A    between atoms: C_4  and  N_5
REMARK    5  A    between atoms: C_4  and  C_14
REMARK    6  A    between atoms: C_6  and  C_8
REMARK    7  A    between atoms: C_14  and  O_16
REMARK    8  A    between atoms: O_16  and  C_17
REMARK    9  A    between atoms: C_17  and  C_18
REMARK   10  A    between atoms: C_18  and  C_20
REMARK                            x       y       z     vdW  Elec       q    Type
REMARK                         _______ _______ _______ _____ _____    ______ ____
ROOT
ATOM      1  C   UNL     1       6.833   5.855  18.508  0.00  0.00    +0.000 C 
ATOM      2  O   UNL     1       7.011   5.401  19.633  0.00  0.00    +0.000 OA
ENDROOT
BRANCH   1   3
ATOM      3  C   UNL     1       5.622   5.529  17.623  0.00  0.00    +0.000 C 
BRANCH   3   4
ATOM      4  N   UNL     1       4.559   5.058  18.517  0.00  0.00    +0.000 N 
ATOM      5  C   UNL     1       3.967   3.825  18.354  0.00  0.00    +0.000 C 
ATOM      6  O   UNL     1       4.238   3.046  17.455  0.00  0.00    +0.000 OA
ATOM      7  H   UNL     1       4.518   5.488  19.435  0.00  0.00    +0.000 HD
BRANCH   5   8
ATOM      8  C   UNL     1       3.004   3.438  19.422  0.00  0.00    +0.000 A 
ATOM      9  C   UNL     1       1.679   3.889  19.398  0.00  0.00    +0.000 A 
ATOM     10  C   UNL     1       0.811   3.559  20.440  0.00  0.00    +0.000 A 
ATOM     11  C   UNL     1       1.262   2.770  21.498  0.00  0.00    +0.000 A 
ATOM     12  C   UNL     1       2.571   2.287  21.504  0.00  0.00    +0.000 A 
ATOM     13  C   UNL     1       3.442   2.612  20.463  0.00  0.00    +0.000 A 
ENDBRANCH   5   8
ENDBRANCH   3   4
BRANCH   3  15
ATOM     14  C   UNL     1       3.848   7.349  17.449  0.00  0.00    +0.000 C 
ATOM     15  C   UNL     1       5.157   6.799  16.869  0.00  0.00    +0.000 C 
ATOM     16  C   UNL     1       4.976   6.543  15.370  0.00  0.00    +0.000 C 
ENDBRANCH   3  15
ENDBRANCH   1   3
BRANCH   1  17
ATOM     17  O   UNL     1       7.720   6.649  17.845  0.00  0.00    +0.000 OA
BRANCH  17  18
ATOM     18  C   UNL     1       8.427   7.580  18.669  0.00  0.00    +0.000 C 
BRANCH  18  19
ATOM     19  C   UNL     1       8.225   8.989  18.137  0.00  0.00    +0.000 C 
ATOM     20  O   UNL     1       7.372   9.255  17.286  0.00  0.00    +0.000 OA
BRANCH  19  21
ATOM     21  C   UNL     1       9.125  10.078  18.616  0.00  0.00    +0.000 A 
ATOM     22  C   UNL     1       9.948  10.830  17.759  0.00  0.00    +0.000 A 
ATOM     23  C   UNL     1      10.643  11.948  18.247  0.00  0.00    +0.000 A 
ATOM     24  C   UNL     1      10.507  12.314  19.580  0.00  0.00    +0.000 A 
ATOM     25  C   UNL     1       9.782  11.497  20.444  0.00  0.00    +0.000 A 
ATOM     26  C   UNL     1       9.084  10.394  19.979  0.00  0.00    +0.000 A 
ATOM     27  N   UNL     1       9.694  11.842  21.812  0.00  0.00    +0.000 N 
ATOM     28  C   UNL     1       9.489  13.199  21.995  0.00  0.00    +0.000 C 
ATOM     29  O   UNL     1       8.700  13.647  22.819  0.00  0.00    +0.000 OA
ATOM     30  C   UNL     1      10.369  14.080  21.099  0.00  0.00    +0.000 C 
ATOM     31  O   UNL     1      11.089  13.473  20.016  0.00  0.00    +0.000 OA
ATOM     32  H   UNL     1      10.624  11.666  22.194  0.00  0.00    +0.000 HD
ENDBRANCH  19  21
ENDBRANCH  18  19
ENDBRANCH  17  18
ENDBRANCH   1  17
TORSDOF 8
ENDMDL
MODEL 4
REMARK VINA RESULT:      -8.2      1.771      2.507
REMARK  Name = 
REMARK  10 active torsions:
REMARK  status: ('A' for Active; 'I' for Inactive)
REMARK    1  A    between atoms: C_1  and  C_2
REMARK    2  A    between atoms: C_2  and  C_3
REMARK    3  A    between atoms: C_2  and  C_4
REMARK    4  A    between atoms: C_4  and  N_5
REMARK    5  A    between atoms: C_4  and  C_14
REMARK    6  A    between atoms: C_6  and  C_8
REMARK    7  A    between atoms: C_14  and  O_16
REMARK    8  A    between atoms: O_16  and  C_17
REMARK    9  A    between atoms: C_17  and  C_18
REMARK   10  A    between atoms: C_18  and  C_20
REMARK                            x       y       z     vdW  Elec       q    Type
REMARK                         _______ _______ _______ _____ _____    ______ ____
ROOT
ATOM      1  C   UNL     1       6.996   5.269  18.193  0.00  0.00    +0.000 C 
ATOM      2  O   UNL     1       7.905   4.447  18.155  0.00  0.00    +0.000 OA
ENDROOT
BRANCH   1   3
ATOM      3  C   UNL     1       5.688   5.153  17.399  0.00  0.00    +0.000 C 
BRANCH   3   4
ATOM      4  N   UNL     1       4.642   4.783  18.358  0.00  0.00    +0.000 N 
ATOM      5  C   UNL     1       3.946   3.599  18.252  0.00  0.00    +0.000 C 
ATOM      6  O   UNL     1       4.105   2.787  17.357  0.00  0.00    +0.000 OA
ATOM      7  H   UNL     1       4.686   5.230  19.268  0.00  0.00    +0.000 HD
BRANCH   5   8
ATOM      8  C   UNL     1       3.016   3.309  19.379  0.00  0.00    +0.000 A 
ATOM      9  C   UNL     1       1.684   3.741  19.346  0.00  0.00    +0.000 A 
ATOM     10  C   UNL     1       0.848   3.505  20.438  0.00  0.00    +0.000 A 
ATOM     11  C   UNL     1       1.337   2.828  21.556  0.00  0.00    +0.000 A 
ATOM     12  C   UNL     1       2.652   2.362  21.574  0.00  0.00    +0.000 A 
ATOM     13  C   UNL     1       3.491   2.593  20.483  0.00  0.00    +0.000 A 
ENDBRANCH   5   8
ENDBRANCH   3   4
BRANCH   3  15
ATOM     14  C   UNL     1       4.045   7.098  17.299  0.00  0.00    +0.000 C 
ATOM     15  C   UNL     1       5.345   6.510  16.737  0.00  0.00    +0.000 C 
ATOM     16  C   UNL     1       5.229   6.394  15.215  0.00  0.00    +0.000 C 
ENDBRANCH   3  15
ENDBRANCH   1   3
BRANCH   1  17
ATOM     17  O   UNL     1       7.046   6.445  18.879  0.00  0.00    +0.000 OA
BRANCH  17  18
ATOM     18  C   UNL     1       8.313   7.107  18.848  0.00  0.00    +0.000 C 
BRANCH  18  19
ATOM     19  C   UNL     1       8.210   8.369  18.006  0.00  0.00    +0.000 C 
ATOM     20  O   UNL     1       7.790   8.353  16.846  0.00  0.00    +0.000 OA
BRANCH  19  21
ATOM     21  C   UNL     1       8.684   9.662  18.581  0.00  0.00    +0.000 A 
ATOM     22  C   UNL     1       9.080   9.809  19.921  0.00  0.00    +0.000 A 
ATOM     23  C   UNL     1       9.673  11.005  20.357  0.00  0.00    +0.000 A 
ATOM     24  C   UNL     1       9.873  12.040  19.453  0.00  0.00    +0.000 A 
ATOM     25  C   UNL     1       9.375  11.927  18.157  0.00  0.00    +0.000 A 
ATOM     26  C   UNL     1       8.794  10.751  17.709  0.00  0.00    +0.000 A 
ATOM     27  N   UNL     1       9.531  13.006  17.259  0.00  0.00    +0.000 N 
ATOM     28  C   UNL     1      10.790  13.575  17.342  0.00  0.00    +0.000 C 
ATOM     29  O   UNL     1      11.435  13.911  16.355  0.00  0.00    +0.000 OA
ATOM     30  C   UNL     1      11.278  13.779  18.782  0.00  0.00    +0.000 C 
ATOM     31  O   UNL     1      10.562  13.153  19.856  0.00  0.00    +0.000 OA
ATOM     32  H   UNL     1       8.895  13.730  17.595  0.00  0.00    +0.000 HD
ENDBRANCH  19  21
ENDBRANCH  18  19
ENDBRANCH  17  18
ENDBRANCH   1  17
TORSDOF 8
ENDMDL
MODEL 5
REMARK VINA RESULT:      -8.2      1.566      2.405
REMARK  Name = 
REMARK  10 active torsions:
REMARK  status: ('A' for Active; 'I' for Inactive)
REMARK    1  A    between atoms: C_1  and  C_2
REMARK    2  A    between atoms: C_2  and  C_3
REMARK    3  A    between atoms: C_2  and  C_4
REMARK    4  A    between atoms: C_4  and  N_5
REMARK    5  A    between atoms: C_4  and  C_14
REMARK    6  A    between atoms: C_6  and  C_8
REMARK    7  A    between atoms: C_14  and  O_16
REMARK    8  A    between atoms: O_16  and  C_17
REMARK    9  A    between atoms: C_17  and  C_18
REMARK   10  A    between atoms: C_18  and  C_20
REMARK                            x       y       z     vdW  Elec       q    Type
REMARK                         _______ _______ _______ _____ _____    ______ ____
ROOT
ATOM      1  C   UNL     1       7.462   5.375  18.404  0.00  0.00    +0.000 C 
ATOM      2  O   UNL     1       8.408   4.743  18.861  0.00  0.00    +0.000 OA
ENDROOT
BRANCH   1   3
ATOM      3  C   UNL     1       6.422   4.799  17.433  0.00  0.00    +0.000 C 
BRANCH   3   4
ATOM      4  N   UNL     1       5.155   4.722  18.165  0.00  0.00    +0.000 N 
ATOM      5  C   UNL     1       4.237   3.724  17.925  0.00  0.00    +0.000 C 
ATOM      6  O   UNL     1       4.372   2.855  17.080  0.00  0.00    +0.000 OA
ATOM      7  H   UNL     1       5.124   5.190  19.065  0.00  0.00    +0.000 HD
BRANCH   5   8
ATOM      8  C   UNL     1       3.065   3.706  18.845  0.00  0.00    +0.000 A 
ATOM      9  C   UNL     1       2.395   2.512  19.139  0.00  0.00    +0.000 A 
ATOM     10  C   UNL     1       1.267   2.529  19.959  0.00  0.00    +0.000 A 
ATOM     11  C   UNL     1       0.815   3.736  20.496  0.00  0.00    +0.000 A 
ATOM     12  C   UNL     1       1.504   4.920  20.236  0.00  0.00    +0.000 A 
ATOM     13  C   UNL     1       2.635   4.907  19.418  0.00  0.00    +0.000 A 
ENDBRANCH   5   8
ENDBRANCH   3   4
BRANCH   3  15
ATOM     14  C   UNL     1       4.967   6.536  16.268  0.00  0.00    +0.000 C 
ATOM     15  C   UNL     1       6.270   5.729  16.204  0.00  0.00    +0.000 C 
ATOM     16  C   UNL     1       6.317   4.952  14.886  0.00  0.00    +0.000 C 
ENDBRANCH   3  15
ENDBRANCH   1   3
BRANCH   1  17
ATOM     17  O   UNL     1       7.239   6.700  18.626  0.00  0.00    +0.000 OA
BRANCH  17  18
ATOM     18  C   UNL     1       8.418   7.507  18.687  0.00  0.00    +0.000 C 
BRANCH  18  19
ATOM     19  C   UNL     1       8.149   8.855  18.036  0.00  0.00    +0.000 C 
ATOM     20  O   UNL     1       7.478   8.967  17.008  0.00  0.00    +0.000 OA
BRANCH  19  21
ATOM     21  C   UNL     1       8.763  10.079  18.630  0.00  0.00    +0.000 A 
ATOM     22  C   UNL     1       9.311  10.115  19.923  0.00  0.00    +0.000 A 
ATOM     23  C   UNL     1      10.021  11.245  20.360  0.00  0.00    +0.000 A 
ATOM     24  C   UNL     1      10.188  12.324  19.502  0.00  0.00    +0.000 A 
ATOM     25  C   UNL     1       9.546  12.324  18.266  0.00  0.00    +0.000 A 
ATOM     26  C   UNL     1       8.847  11.215  17.817  0.00  0.00    +0.000 A 
ATOM     27  N   UNL     1       9.673  13.449  17.420  0.00  0.00    +0.000 N 
ATOM     28  C   UNL     1      10.967  13.939  17.395  0.00  0.00    +0.000 C 
ATOM     29  O   UNL     1      11.521  14.303  16.364  0.00  0.00    +0.000 OA
ATOM     30  C   UNL     1      11.619  14.021  18.781  0.00  0.00    +0.000 C 
ATOM     31  O   UNL     1      10.985  13.367  19.890  0.00  0.00    +0.000 OA
ATOM     32  H   UNL     1       9.124  14.185  17.867  0.00  0.00    +0.000 HD
ENDBRANCH  19  21
ENDBRANCH  18  19
ENDBRANCH  17  18
ENDBRANCH   1  17
TORSDOF 8
ENDMDL
MODEL 6
REMARK VINA RESULT:      -8.2      0.498      1.013
REMARK  Name = 
REMARK  10 active torsions:
REMARK  status: ('A' for Active; 'I' for Inactive)
REMARK    1  A    between atoms: C_1  and  C_2
REMARK    2  A    between atoms: C_2  and  C_3
REMARK    3  A    between atoms: C_2  and  C_4
REMARK    4  A    between atoms: C_4  and  N_5
REMARK    5  A    between atoms: C_4  and  C_14
REMARK    6  A    between atoms: C_6  and  C_8
REMARK    7  A    between atoms: C_14  and  O_16
REMARK    8  A    between atoms: O_16  and  C_17
REMARK    9  A    between atoms: C_17  and  C_18
REMARK   10  A    between atoms: C_18  and  C_20
REMARK                            x       y       z     vdW  Elec       q    Type
REMARK                         _______ _______ _______ _____ _____    ______ ____
ROOT
ATOM      1  C   UNL     1       7.442   5.793  18.582  0.00  0.00    +0.000 C 
ATOM      2  O   UNL     1       7.938   5.437  19.645  0.00  0.00    +0.000 OA
ENDROOT
BRANCH   1   3
ATOM      3  C   UNL     1       6.551   4.908  17.701  0.00  0.00    +0.000 C 
BRANCH   3   4
ATOM      4  N   UNL     1       5.228   4.876  18.333  0.00  0.00    +0.000 N 
ATOM      5  C   UNL     1       4.349   3.837  18.123  0.00  0.00    +0.000 C 
ATOM      6  O   UNL     1       4.567   2.890  17.386  0.00  0.00    +0.000 OA
ATOM      7  H   UNL     1       5.116   5.432  19.174  0.00  0.00    +0.000 HD
BRANCH   5   8
ATOM      8  C   UNL     1       3.106   3.885  18.943  0.00  0.00    +0.000 A 
ATOM      9  C   UNL     1       2.187   2.828  18.924  0.00  0.00    +0.000 A 
ATOM     10  C   UNL     1       1.003   2.921  19.657  0.00  0.00    +0.000 A 
ATOM     11  C   UNL     1       0.742   4.061  20.417  0.00  0.00    +0.000 A 
ATOM     12  C   UNL     1       1.675   5.098  20.469  0.00  0.00    +0.000 A 
ATOM     13  C   UNL     1       2.862   5.008  19.739  0.00  0.00    +0.000 A 
ENDBRANCH   5   8
ENDBRANCH   3   4
BRANCH   3  15
ATOM     14  C   UNL     1       5.091   6.198  16.058  0.00  0.00    +0.000 C 
ATOM     15  C   UNL     1       6.445   5.510  16.278  0.00  0.00    +0.000 C 
ATOM     16  C   UNL     1       6.655   4.453  15.190  0.00  0.00    +0.000 C 
ENDBRANCH   3  15
ENDBRANCH   1   3
BRANCH   1  17
ATOM     17  O   UNL     1       7.673   6.997  17.987  0.00  0.00    +0.000 OA
BRANCH  17  18
ATOM     18  C   UNL     1       8.490   7.895  18.742  0.00  0.00    +0.000 C 
BRANCH  18  19
ATOM     19  C   UNL     1       8.355   9.302  18.184  0.00  0.00    +0.000 C 
ATOM     20  O   UNL     1       7.592   9.569  17.252  0.00  0.00    +0.000 OA
BRANCH  19  21
ATOM     21  C   UNL     1       9.212  10.388  18.743  0.00  0.00    +0.000 A 
ATOM     22  C   UNL     1      10.035  11.204  17.949  0.00  0.00    +0.000 A 
ATOM     23  C   UNL     1      10.688  12.313  18.512  0.00  0.00    +0.000 A 
ATOM     24  C   UNL     1      10.508  12.604  19.858  0.00  0.00    +0.000 A 
ATOM     25  C   UNL     1       9.782  11.725  20.660  0.00  0.00    +0.000 A 
ATOM     26  C   UNL     1       9.127  10.630  20.119  0.00  0.00    +0.000 A 
ATOM     27  N   UNL     1       9.650  11.996  22.040  0.00  0.00    +0.000 N 
ATOM     28  C   UNL     1       9.403  13.335  22.287  0.00  0.00    +0.000 C 
ATOM     29  O   UNL     1       8.582  13.719  23.112  0.00  0.00    +0.000 OA
ATOM     30  C   UNL     1      10.283  14.284  21.463  0.00  0.00    +0.000 C 
ATOM     31  O   UNL     1      11.047  13.754  20.369  0.00  0.00    +0.000 OA
ATOM     32  H   UNL     1      10.575  11.824  22.438  0.00  0.00    +0.000 HD
ENDBRANCH  19  21
ENDBRANCH  18  19
ENDBRANCH  17  18
ENDBRANCH   1  17
TORSDOF 8
ENDMDL
MODEL 7
REMARK VINA RESULT:      -8.2      1.377      4.212
REMARK  Name = 
REMARK  10 active torsions:
REMARK  status: ('A' for Active; 'I' for Inactive)
REMARK    1  A    between atoms: C_1  and  C_2
REMARK    2  A    between atoms: C_2  and  C_3
REMARK    3  A    between atoms: C_2  and  C_4
REMARK    4  A    between atoms: C_4  and  N_5
REMARK    5  A    between atoms: C_4  and  C_14
REMARK    6  A    between atoms: C_6  and  C_8
REMARK    7  A    between atoms: C_14  and  O_16
REMARK    8  A    between atoms: O_16  and  C_17
REMARK    9  A    between atoms: C_17  and  C_18
REMARK   10  A    between atoms: C_18  and  C_20
REMARK                            x       y       z     vdW  Elec       q    Type
REMARK                         _______ _______ _______ _____ _____    ______ ____
ROOT
ATOM      1  C   UNL     1       6.854   5.735  18.792  0.00  0.00    +0.000 C 
ATOM      2  O   UNL     1       7.153   5.185  19.846  0.00  0.00    +0.000 OA
ENDROOT
BRANCH   1   3
ATOM      3  C   UNL     1       5.511   5.555  18.071  0.00  0.00    +0.000 C 
BRANCH   3   4
ATOM      4  N   UNL     1       5.810   4.982  16.756  0.00  0.00    +0.000 N 
ATOM      5  C   UNL     1       5.673   5.714  15.597  0.00  0.00    +0.000 C 
ATOM      6  O   UNL     1       5.268   6.864  15.555  0.00  0.00    +0.000 OA
ATOM      7  H   UNL     1       6.435   4.183  16.743  0.00  0.00    +0.000 HD
BRANCH   5   8
ATOM      8  C   UNL     1       6.146   5.034  14.359  0.00  0.00    +0.000 A 
ATOM      9  C   UNL     1       7.373   5.370  13.774  0.00  0.00    +0.000 A 
ATOM     10  C   UNL     1       7.769   4.759  12.584  0.00  0.00    +0.000 A 
ATOM     11  C   UNL     1       6.946   3.804  11.985  0.00  0.00    +0.000 A 
ATOM     12  C   UNL     1       5.742   3.440  12.587  0.00  0.00    +0.000 A 
ATOM     13  C   UNL     1       5.343   4.046  13.779  0.00  0.00    +0.000 A 
ENDBRANCH   5   8
ENDBRANCH   3   4
BRANCH   3  15
ATOM     14  C   UNL     1       4.103   3.433  18.006  0.00  0.00    +0.000 C 
ATOM     15  C   UNL     1       4.601   4.595  18.875  0.00  0.00    +0.000 C 
ATOM     16  C   UNL     1       3.397   5.319  19.485  0.00  0.00    +0.000 C 
ENDBRANCH   3  15
ENDBRANCH   1   3
BRANCH   1  17
ATOM     17  O   UNL     1       7.696   6.520  18.064  0.00  0.00    +0.000 OA
BRANCH  17  18
ATOM     18  C   UNL     1       8.407   7.503  18.821  0.00  0.00    +0.000 C 
BRANCH  18  19
ATOM     19  C   UNL     1       8.281   8.859  18.145  0.00  0.00    +0.000 C 
ATOM     20  O   UNL     1       7.546   9.042  17.171  0.00  0.00    +0.000 OA
BRANCH  19  21
ATOM     21  C   UNL     1       9.114   9.994  18.641  0.00  0.00    +0.000 A 
ATOM     22  C   UNL     1       9.861  10.828  17.791  0.00  0.00    +0.000 A 
ATOM     23  C   UNL     1      10.488  11.977  18.300  0.00  0.00    +0.000 A 
ATOM     24  C   UNL     1      10.359  12.290  19.646  0.00  0.00    +0.000 A 
ATOM     25  C   UNL     1       9.712  11.398  20.500  0.00  0.00    +0.000 A 
ATOM     26  C   UNL     1       9.082  10.263  20.014  0.00  0.00    +0.000 A 
ATOM     27  N   UNL     1       9.633  11.694  21.879  0.00  0.00    +0.000 N 
ATOM     28  C   UNL     1       9.338  13.026  22.111  0.00  0.00    +0.000 C 
ATOM     29  O   UNL     1       8.539  13.392  22.965  0.00  0.00    +0.000 OA
ATOM     30  C   UNL     1      10.133  13.994  21.225  0.00  0.00    +0.000 C 
ATOM     31  O   UNL     1      10.868  13.474  20.108  0.00  0.00    +0.000 OA
ATOM     32  H   UNL     1      10.582  11.572  22.235  0.00  0.00    +0.000 HD
ENDBRANCH  19  21
ENDBRANCH  18  19
ENDBRANCH  17  18
ENDBRANCH   1  17
TORSDOF 8
ENDMDL
MODEL 8
REMARK VINA RESULT:      -8.1      1.131      1.184
REMARK  Name = 
REMARK  10 active torsions:
REMARK  status: ('A' for Active; 'I' for Inactive)
REMARK    1  A    between atoms: C_1  and  C_2
REMARK    2  A    between atoms: C_2  and  C_3
REMARK    3  A    between atoms: C_2  and  C_4
REMARK    4  A    between atoms: C_4  and  N_5
REMARK    5  A    between atoms: C_4  and  C_14
REMARK    6  A    between atoms: C_6  and  C_8
REMARK    7  A    between atoms: C_14  and  O_16
REMARK    8  A    between atoms: O_16  and  C_17
REMARK    9  A    between atoms: C_17  and  C_18
REMARK   10  A    between atoms: C_18  and  C_20
REMARK                            x       y       z     vdW  Elec       q    Type
REMARK                         _______ _______ _______ _____ _____    ______ ____
ROOT
ATOM      1  C   UNL     1       7.481   4.949  17.965  0.00  0.00    +0.000 C 
ATOM      2  O   UNL     1       8.600   4.452  18.028  0.00  0.00    +0.000 OA
ENDROOT
BRANCH   1   3
ATOM      3  C   UNL     1       6.338   4.404  17.098  0.00  0.00    +0.000 C 
BRANCH   3   4
ATOM      4  N   UNL     1       5.101   4.585  17.864  0.00  0.00    +0.000 N 
ATOM      5  C   UNL     1       4.095   3.644  17.851  0.00  0.00    +0.000 C 
ATOM      6  O   UNL     1       4.122   2.619  17.192  0.00  0.00    +0.000 OA
ATOM      7  H   UNL     1       5.149   5.221  18.653  0.00  0.00    +0.000 HD
BRANCH   5   8
ATOM      8  C   UNL     1       2.967   3.911  18.787  0.00  0.00    +0.000 A 
ATOM      9  C   UNL     1       2.888   5.115  19.499  0.00  0.00    +0.000 A 
ATOM     10  C   UNL     1       1.852   5.318  20.411  0.00  0.00    +0.000 A 
ATOM     11  C   UNL     1       0.889   4.327  20.603  0.00  0.00    +0.000 A 
ATOM     12  C   UNL     1       0.944   3.144  19.866  0.00  0.00    +0.000 A 
ATOM     13  C   UNL     1       1.977   2.937  18.950  0.00  0.00    +0.000 A 
ENDBRANCH   5   8
ENDBRANCH   3   4
BRANCH   3  15
ATOM     14  C   UNL     1       5.074   6.166  15.761  0.00  0.00    +0.000 C 
ATOM     15  C   UNL     1       6.258   5.191  15.767  0.00  0.00    +0.000 C 
ATOM     16  C   UNL     1       6.152   4.262  14.555  0.00  0.00    +0.000 C 
ENDBRANCH   3  15
ENDBRANCH   1   3
BRANCH   1  17
ATOM     17  O   UNL     1       7.111   6.101  18.590  0.00  0.00    +0.000 OA
BRANCH  17  18
ATOM     18  C   UNL     1       8.173   7.032  18.816  0.00  0.00    +0.000 C 
BRANCH  18  19
ATOM     19  C   UNL     1       8.017   8.223  17.884  0.00  0.00    +0.000 C 
ATOM     20  O   UNL     1       7.492   8.123  16.773  0.00  0.00    +0.000 OA
BRANCH  19  21
ATOM     21  C   UNL     1       8.567   9.545  18.303  0.00  0.00    +0.000 A 
ATOM     22  C   UNL     1       8.643  10.654  17.443  0.00  0.00    +0.000 A 
ATOM     23  C   UNL     1       9.013  11.913  17.943  0.00  0.00    +0.000 A 
ATOM     24  C   UNL     1       9.295  12.059  19.295  0.00  0.00    +0.000 A 
ATOM     25  C   UNL     1       9.327  10.933  20.115  0.00  0.00    +0.000 A 
ATOM     26  C   UNL     1       8.958   9.685  19.640  0.00  0.00    +0.000 A 
ATOM     27  N   UNL     1       9.670  11.079  21.478  0.00  0.00    +0.000 N 
ATOM     28  C   UNL     1       9.074  12.190  22.050  0.00  0.00    +0.000 C 
ATOM     29  O   UNL     1       8.573  12.174  23.169  0.00  0.00    +0.000 OA
ATOM     30  C   UNL     1       9.137  13.443  21.168  0.00  0.00    +0.000 C 
ATOM     31  O   UNL     1       9.534  13.311  19.795  0.00  0.00    +0.000 OA
ATOM     32  H   UNL     1      10.669  11.289  21.483  0.00  0.00    +0.000 HD
ENDBRANCH  19  21
ENDBRANCH  18  19
ENDBRANCH  17  18
ENDBRANCH   1  17
TORSDOF 8
ENDMDL
MODEL 9
REMARK VINA RESULT:      -8.0      1.690      2.725
REMARK  Name = 
REMARK  10 active torsions:
REMARK  status: ('A' for Active; 'I' for Inactive)
REMARK    1  A    between atoms: C_1  and  C_2
REMARK    2  A    between atoms: C_2  and  C_3
REMARK    3  A    between atoms: C_2  and  C_4
REMARK    4  A    between atoms: C_4  and  N_5
REMARK    5  A    between atoms: C_4  and  C_14
REMARK    6  A    between atoms: C_6  and  C_8
REMARK    7  A    between atoms: C_14  and  O_16
REMARK    8  A    between atoms: O_16  and  C_17
REMARK    9  A    between atoms: C_17  and  C_18
REMARK   10  A    between atoms: C_18  and  C_20
REMARK                            x       y       z     vdW  Elec       q    Type
REMARK                         _______ _______ _______ _____ _____    ______ ____
ROOT
ATOM      1  C   UNL     1       6.280   6.332  16.721  0.00  0.00    +0.000 C 
ATOM      2  O   UNL     1       5.254   6.998  16.634  0.00  0.00    +0.000 OA
ENDROOT
BRANCH   1   3
ATOM      3  C   UNL     1       6.318   4.798  16.756  0.00  0.00    +0.000 C 
BRANCH   3   4
ATOM      4  N   UNL     1       5.062   4.358  17.372  0.00  0.00    +0.000 N 
ATOM      5  C   UNL     1       4.941   4.191  18.735  0.00  0.00    +0.000 C 
ATOM      6  O   UNL     1       5.852   4.355  19.530  0.00  0.00    +0.000 OA
ATOM      7  H   UNL     1       4.216   4.516  16.836  0.00  0.00    +0.000 HD
BRANCH   5   8
ATOM      8  C   UNL     1       3.568   3.874  19.214  0.00  0.00    +0.000 A 
ATOM      9  C   UNL     1       2.882   2.745  18.750  0.00  0.00    +0.000 A 
ATOM     10  C   UNL     1       1.575   2.500  19.172  0.00  0.00    +0.000 A 
ATOM     11  C   UNL     1       0.957   3.374  20.066  0.00  0.00    +0.000 A 
ATOM     12  C   UNL     1       1.652   4.478  20.561  0.00  0.00    +0.000 A 
ATOM     13  C   UNL     1       2.961   4.726  20.144  0.00  0.00    +0.000 A 
ENDBRANCH   5   8
ENDBRANCH   3   4
BRANCH   3  15
ATOM     14  C   UNL     1       7.377   5.079  14.456  0.00  0.00    +0.000 C 
ATOM     15  C   UNL     1       6.429   4.235  15.318  0.00  0.00    +0.000 C 
ATOM     16  C   UNL     1       5.064   4.149  14.628  0.00  0.00    +0.000 C 
ENDBRANCH   3  15
ENDBRANCH   1   3
BRANCH   1  17
ATOM     17  O   UNL     1       7.529   6.853  16.880  0.00  0.00    +0.000 OA
BRANCH  17  18
ATOM     18  C   UNL     1       7.562   8.235  17.247  0.00  0.00    +0.000 C 
BRANCH  18  19
ATOM     19  C   UNL     1       8.412   8.412  18.495  0.00  0.00    +0.000 C 
ATOM     20  O   UNL     1       8.724   7.463  19.218  0.00  0.00    +0.000 OA
BRANCH  19  21
ATOM     21  C   UNL     1       8.838   9.787  18.890  0.00  0.00    +0.000 A 
ATOM     22  C   UNL     1       9.191  10.134  20.205  0.00  0.00    +0.000 A 
ATOM     23  C   UNL     1       9.742  11.397  20.480  0.00  0.00    +0.000 A 
ATOM     24  C   UNL     1       9.944  12.298  19.442  0.00  0.00    +0.000 A 
ATOM     25  C   UNL     1       9.486  11.986  18.164  0.00  0.00    +0.000 A 
ATOM     26  C   UNL     1       8.947  10.743  17.874  0.00  0.00    +0.000 A 
ATOM     27  N   UNL     1       9.643  12.930  17.124  0.00  0.00    +0.000 N 
ATOM     28  C   UNL     1      10.885  13.540  17.156  0.00  0.00    +0.000 C 
ATOM     29  O   UNL     1      11.550  13.750  16.148  0.00  0.00    +0.000 OA
ATOM     30  C   UNL     1      11.325  13.962  18.564  0.00  0.00    +0.000 C 
ATOM     31  O   UNL     1      10.593  13.475  19.699  0.00  0.00    +0.000 OA
ATOM     32  H   UNL     1       8.980  13.677  17.336  0.00  0.00    +0.000 HD
ENDBRANCH  19  21
ENDBRANCH  18  19
ENDBRANCH  17  18
ENDBRANCH   1  17
TORSDOF 8
ENDMDL
