MODEL 1
REMARK VINA RESULT:      -8.0      0.000      0.000
REMARK  Name = 
REMARK  6 active torsions:
REMARK  status: ('A' for Active; 'I' for Inactive)
REMARK    1  A    between atoms: C_2  and  O_3
REMARK    2  A    between atoms: C_2  and  C_18
REMARK    3  A    between atoms: O_3  and  C_4
REMARK    4  A    between atoms: C_4  and  C_5
REMARK    5  A    between atoms: C_10  and  C_11
REMARK    6  A    between atoms: C_11  and  N_12
REMARK                            x       y       z     vdW  Elec       q    Type
REMARK                         _______ _______ _______ _____ _____    ______ ____
ROOT
ATOM      1  C   UNL     1       2.376   4.803  19.179  0.00  0.00    +0.000 A 
ATOM      2  C   UNL     1       1.550   4.714  20.328  0.00  0.00    +0.000 A 
ATOM      3  C   UNL     1       1.674   3.669  21.253  0.00  0.00    +0.000 A 
ATOM      4  C   UNL     1       2.676   2.730  21.103  0.00  0.00    +0.000 A 
ATOM      5  C   UNL     1       3.530   2.819  20.012  0.00  0.00    +0.000 A 
ATOM      6  C   UNL     1       3.353   3.795  19.006  0.00  0.00    +0.000 A 
ENDROOT
BRANCH   1   7
ATOM      7  C   UNL     1       2.116   6.016  18.275  0.00  0.00    +0.000 C 
BRANCH   7   8
ATOM      8  O   UNL     1       2.910   7.209  18.431  0.00  0.00    +0.000 OA
BRANCH   8  10
ATOM      9  O   UNL     1       2.363   8.975  17.067  0.00  0.00    +0.000 OA
ATOM     10  C   UNL     1       2.304   8.389  18.136  0.00  0.00    +0.000 C 
BRANCH  10  11
ATOM     11  C   UNL     1       1.466   8.885  19.276  0.00  0.00    +0.000 A 
ATOM     12  C   UNL     1       0.553   9.930  19.141  0.00  0.00    +0.000 A 
ATOM     13  C   UNL     1      -0.176  10.385  20.253  0.00  0.00    +0.000 A 
ATOM     14  C   UNL     1       0.008   9.794  21.501  0.00  0.00    +0.000 A 
ATOM     15 BR   UNL     1      -0.924  10.453  23.010  0.00  0.00    +0.000 Br
ATOM     16  C   UNL     1       0.891   8.720  21.641  0.00  0.00    +0.000 A 
ATOM     17  C   UNL     1       1.618   8.269  20.532  0.00  0.00    +0.000 A 
ENDBRANCH  10  11
ENDBRANCH   8  10
ENDBRANCH   7   8
ENDBRANCH   1   7
BRANCH   6  18
ATOM     18  C   UNL     1       4.120   3.556  17.719  0.00  0.00    +0.000 C 
BRANCH  18  19
ATOM     19  N   UNL     1       4.964   4.706  17.394  0.00  0.00    +0.000 NA
ATOM     20  C   UNL     1       5.280   4.917  15.975  0.00  0.00    +0.000 C 
ATOM     21  C   UNL     1       6.595   4.293  15.512  0.00  0.00    +0.000 C 
ATOM     22  O   UNL     1       7.674   4.839  16.264  0.00  0.00    +0.000 OA
ATOM     23  C   UNL     1       7.534   4.573  17.658  0.00  0.00    +0.000 C 
ATOM     24  C   UNL     1       6.137   4.844  18.257  0.00  0.00    +0.000 C 
ENDBRANCH  18  19
ENDBRANCH   6  18
TORSDOF 6
ENDMDL
MODEL 2
REMARK VINA RESULT:      -7.9      0.645      1.172
REMARK  Name = 
REMARK  6 active torsions:
REMARK  status: ('A' for Active; 'I' for Inactive)
REMARK    1  A    between atoms: C_2  and  O_3
REMARK    2  A    between atoms: C_2  and  C_18
REMARK    3  A    between atoms: O_3  and  C_4
REMARK    4  A    between atoms: C_4  and  C_5
REMARK    5  A    between atoms: C_10  and  C_11
REMARK    6  A    between atoms: C_11  and  N_12
REMARK                            x       y       z     vdW  Elec       q    Type
REMARK                         _______ _______ _______ _____ _____    ______ ____
ROOT
ATOM      1  C   UNL     1       2.269   4.639  18.545  0.00  0.00    +0.000 A 
ATOM      2  C   UNL     1       1.273   4.412  19.529  0.00  0.00    +0.000 A 
ATOM      3  C   UNL     1       1.144   3.180  20.183  0.00  0.00    +0.000 A 
ATOM      4  C   UNL     1       2.051   2.168  19.936  0.00  0.00    +0.000 A 
ATOM      5  C   UNL     1       3.066   2.379  19.011  0.00  0.00    +0.000 A 
ATOM      6  C   UNL     1       3.148   3.570  18.256  0.00  0.00    +0.000 A 
ENDROOT
BRANCH   1   7
ATOM      7  C   UNL     1       2.280   6.048  17.934  0.00  0.00    +0.000 C 
BRANCH   7   8
ATOM      8  O   UNL     1       2.657   7.177  18.746  0.00  0.00    +0.000 OA
BRANCH   8  10
ATOM      9  O   UNL     1       2.135   8.899  17.317  0.00  0.00    +0.000 OA
ATOM     10  C   UNL     1       2.106   8.376  18.419  0.00  0.00    +0.000 C 
BRANCH  10  11
ATOM     11  C   UNL     1       1.370   8.984  19.576  0.00  0.00    +0.000 A 
ATOM     12  C   UNL     1       1.353   8.407  20.845  0.00  0.00    +0.000 A 
ATOM     13  C   UNL     1       0.612   8.996  21.884  0.00  0.00    +0.000 A 
ATOM     14  C   UNL     1      -0.112  10.163  21.652  0.00  0.00    +0.000 A 
ATOM     15 BR   UNL     1      -1.164  10.916  23.033  0.00  0.00    +0.000 Br
ATOM     16  C   UNL     1      -0.071  10.773  20.396  0.00  0.00    +0.000 A 
ATOM     17  C   UNL     1       0.667  10.183  19.361  0.00  0.00    +0.000 A 
ENDBRANCH  10  11
ENDBRANCH   8  10
ENDBRANCH   7   8
ENDBRANCH   1   7
BRANCH   6  18
ATOM     18  C   UNL     1       4.072   3.520  17.054  0.00  0.00    +0.000 C 
BRANCH  18  19
ATOM     19  N   UNL     1       4.944   4.694  17.018  0.00  0.00    +0.000 NA
ATOM     20  C   UNL     1       5.386   5.152  15.694  0.00  0.00    +0.000 C 
ATOM     21  C   UNL     1       6.735   4.598  15.242  0.00  0.00    +0.000 C 
ATOM     22  O   UNL     1       7.744   4.980  16.172  0.00  0.00    +0.000 OA
ATOM     23  C   UNL     1       7.480   4.470  17.477  0.00  0.00    +0.000 C 
ATOM     24  C   UNL     1       6.036   4.654  17.991  0.00  0.00    +0.000 C 
ENDBRANCH  18  19
ENDBRANCH   6  18
TORSDOF 6
ENDMDL
MODEL 3
REMARK VINA RESULT:      -7.8      1.015      1.405
REMARK  Name = 
REMARK  6 active torsions:
REMARK  status: ('A' for Active; 'I' for Inactive)
REMARK    1  A    between atoms: C_2  and  O_3
REMARK    2  A    between atoms: C_2  and  C_18
REMARK    3  A    between atoms: O_3  and  C_4
REMARK    4  A    between atoms: C_4  and  C_5
REMARK    5  A    between atoms: C_10  and  C_11
REMARK    6  A    between atoms: C_11  and  N_12
REMARK                            x       y       z     vdW  Elec       q    Type
REMARK                         _______ _______ _______ _____ _____    ______ ____
ROOT
ATOM      1  C   UNL     1       2.631   5.092  18.579  0.00  0.00    +0.000 A 
ATOM      2  C   UNL     1       1.804   4.827  19.702  0.00  0.00    +0.000 A 
ATOM      3  C   UNL     1       1.600   3.527  20.183  0.00  0.00    +0.000 A 
ATOM      4  C   UNL     1       2.275   2.466  19.613  0.00  0.00    +0.000 A 
ATOM      5  C   UNL     1       3.128   2.702  18.543  0.00  0.00    +0.000 A 
ATOM      6  C   UNL     1       3.262   3.984  17.967  0.00  0.00    +0.000 A 
ENDROOT
BRANCH   1   7
ATOM      7  C   UNL     1       2.756   6.571  18.190  0.00  0.00    +0.000 C 
BRANCH   7   8
ATOM      8  O   UNL     1       2.380   7.594  19.133  0.00  0.00    +0.000 OA
BRANCH   8  10
ATOM      9  O   UNL     1       1.994   9.137  17.474  0.00  0.00    +0.000 OA
ATOM     10  C   UNL     1       1.850   8.735  18.617  0.00  0.00    +0.000 C 
BRANCH  10  11
ATOM     11  C   UNL     1       0.980   9.443  19.613  0.00  0.00    +0.000 A 
ATOM     12  C   UNL     1       0.288  10.615  19.308  0.00  0.00    +0.000 A 
ATOM     13  C   UNL     1      -0.480  11.263  20.291  0.00  0.00    +0.000 A 
ATOM     14  C   UNL     1      -0.556  10.738  21.579  0.00  0.00    +0.000 A 
ATOM     15 BR   UNL     1      -1.534  11.648  22.919  0.00  0.00    +0.000 Br
ATOM     16  C   UNL     1       0.100   9.543  21.885  0.00  0.00    +0.000 A 
ATOM     17  C   UNL     1       0.867   8.900  20.905  0.00  0.00    +0.000 A 
ENDBRANCH  10  11
ENDBRANCH   8  10
ENDBRANCH   7   8
ENDBRANCH   1   7
BRANCH   6  18
ATOM     18  C   UNL     1       3.936   4.026  16.608  0.00  0.00    +0.000 C 
BRANCH  18  19
ATOM     19  N   UNL     1       5.389   3.929  16.743  0.00  0.00    +0.000 NA
ATOM     20  C   UNL     1       6.043   4.926  17.601  0.00  0.00    +0.000 C 
ATOM     21  C   UNL     1       6.567   6.158  16.866  0.00  0.00    +0.000 C 
ATOM     22  O   UNL     1       7.522   5.761  15.888  0.00  0.00    +0.000 OA
ATOM     23  C   UNL     1       6.951   4.886  14.917  0.00  0.00    +0.000 C 
ATOM     24  C   UNL     1       6.092   3.732  15.475  0.00  0.00    +0.000 C 
ENDBRANCH  18  19
ENDBRANCH   6  18
TORSDOF 6
ENDMDL
MODEL 4
REMARK VINA RESULT:      -7.7      1.766      4.115
REMARK  Name = 
REMARK  6 active torsions:
REMARK  status: ('A' for Active; 'I' for Inactive)
REMARK    1  A    between atoms: C_2  and  O_3
REMARK    2  A    between atoms: C_2  and  C_18
REMARK    3  A    between atoms: O_3  and  C_4
REMARK    4  A    between atoms: C_4  and  C_5
REMARK    5  A    between atoms: C_10  and  C_11
REMARK    6  A    between atoms: C_11  and  N_12
REMARK                            x       y       z     vdW  Elec       q    Type
REMARK                         _______ _______ _______ _____ _____    ______ ____
ROOT
ATOM      1  C   UNL     1       4.569   6.080  17.173  0.00  0.00    +0.000 A 
ATOM      2  C   UNL     1       5.144   6.401  15.917  0.00  0.00    +0.000 A 
ATOM      3  C   UNL     1       5.654   5.416  15.061  0.00  0.00    +0.000 A 
ATOM      4  C   UNL     1       5.532   4.081  15.394  0.00  0.00    +0.000 A 
ATOM      5  C   UNL     1       4.930   3.736  16.597  0.00  0.00    +0.000 A 
ATOM      6  C   UNL     1       4.513   4.712  17.528  0.00  0.00    +0.000 A 
ENDROOT
BRANCH   1   7
ATOM      7  C   UNL     1       4.049   7.277  17.982  0.00  0.00    +0.000 C 
BRANCH   7   8
ATOM      8  O   UNL     1       2.636   7.414  18.230  0.00  0.00    +0.000 OA
BRANCH   8  10
ATOM      9  O   UNL     1       2.195   9.346  17.067  0.00  0.00    +0.000 OA
ATOM     10  C   UNL     1       2.104   8.654  18.069  0.00  0.00    +0.000 C 
BRANCH  10  11
ATOM     11  C   UNL     1       1.306   9.078  19.266  0.00  0.00    +0.000 A 
ATOM     12  C   UNL     1       0.410  10.145  19.234  0.00  0.00    +0.000 A 
ATOM     13  C   UNL     1      -0.282  10.528  20.395  0.00  0.00    +0.000 A 
ATOM     14  C   UNL     1      -0.077   9.841  21.590  0.00  0.00    +0.000 A 
ATOM     15 BR   UNL     1      -0.958  10.401  23.169  0.00  0.00    +0.000 Br
ATOM     16  C   UNL     1       0.787   8.744  21.626  0.00  0.00    +0.000 A 
ATOM     17  C   UNL     1       1.477   8.366  20.467  0.00  0.00    +0.000 A 
ENDBRANCH  10  11
ENDBRANCH   8  10
ENDBRANCH   7   8
ENDBRANCH   1   7
BRANCH   6  18
ATOM     18  C   UNL     1       4.209   4.201  18.924  0.00  0.00    +0.000 C 
BRANCH  18  19
ATOM     19  N   UNL     1       2.793   4.377  19.247  0.00  0.00    +0.000 NA
ATOM     20  C   UNL     1       2.468   4.724  20.636  0.00  0.00    +0.000 C 
ATOM     21  C   UNL     1       2.141   3.533  21.534  0.00  0.00    +0.000 C 
ATOM     22  O   UNL     1       1.019   2.831  21.008  0.00  0.00    +0.000 OA
ATOM     23  C   UNL     1       1.277   2.330  19.698  0.00  0.00    +0.000 C 
ATOM     24  C   UNL     1       1.927   3.326  18.713  0.00  0.00    +0.000 C 
ENDBRANCH  18  19
ENDBRANCH   6  18
TORSDOF 6
ENDMDL
MODEL 5
REMARK VINA RESULT:      -7.7      1.449      1.578
REMARK  Name = 
REMARK  6 active torsions:
REMARK  status: ('A' for Active; 'I' for Inactive)
REMARK    1  A    between atoms: C_2  and  O_3
REMARK    2  A    between atoms: C_2  and  C_18
REMARK    3  A    between atoms: O_3  and  C_4
REMARK    4  A    between atoms: C_4  and  C_5
REMARK    5  A    between atoms: C_10  and  C_11
REMARK    6  A    between atoms: C_11  and  N_12
REMARK                            x       y       z     vdW  Elec       q    Type
REMARK                         _______ _______ _______ _____ _____    ______ ____
ROOT
ATOM      1  C   UNL     1       2.394   4.501  18.090  0.00  0.00    +0.000 A 
ATOM      2  C   UNL     1       1.317   3.657  18.464  0.00  0.00    +0.000 A 
ATOM      3  C   UNL     1       1.504   2.297  18.745  0.00  0.00    +0.000 A 
ATOM      4  C   UNL     1       2.776   1.758  18.740  0.00  0.00    +0.000 A 
ATOM      5  C   UNL     1       3.855   2.574  18.423  0.00  0.00    +0.000 A 
ATOM      6  C   UNL     1       3.681   3.918  18.026  0.00  0.00    +0.000 A 
ENDROOT
BRANCH   1   7
ATOM      7  C   UNL     1       2.019   5.967  17.829  0.00  0.00    +0.000 C 
BRANCH   7   8
ATOM      8  O   UNL     1       2.520   7.000  18.700  0.00  0.00    +0.000 OA
BRANCH   8  10
ATOM      9  O   UNL     1       2.465   8.856  17.347  0.00  0.00    +0.000 OA
ATOM     10  C   UNL     1       2.186   8.280  18.386  0.00  0.00    +0.000 C 
BRANCH  10  11
ATOM     11  C   UNL     1       1.348   8.915  19.455  0.00  0.00    +0.000 A 
ATOM     12  C   UNL     1       0.612  10.080  19.242  0.00  0.00    +0.000 A 
ATOM     13  C   UNL     1      -0.123  10.659  20.290  0.00  0.00    +0.000 A 
ATOM     14  C   UNL     1      -0.122  10.071  21.553  0.00  0.00    +0.000 A 
ATOM     15 BR   UNL     1      -1.057  10.888  22.981  0.00  0.00    +0.000 Br
ATOM     16  C   UNL     1       0.578   8.881  21.769  0.00  0.00    +0.000 A 
ATOM     17  C   UNL     1       1.312   8.308  20.723  0.00  0.00    +0.000 A 
ENDBRANCH  10  11
ENDBRANCH   8  10
ENDBRANCH   7   8
ENDBRANCH   1   7
BRANCH   6  18
ATOM     18  C   UNL     1       4.886   4.571  17.376  0.00  0.00    +0.000 C 
BRANCH  18  19
ATOM     19  N   UNL     1       5.352   5.710  18.167  0.00  0.00    +0.000 NA
ATOM     20  C   UNL     1       5.816   6.888  17.424  0.00  0.00    +0.000 C 
ATOM     21  C   UNL     1       7.321   6.930  17.164  0.00  0.00    +0.000 C 
ATOM     22  O   UNL     1       8.021   6.918  18.404  0.00  0.00    +0.000 OA
ATOM     23  C   UNL     1       7.742   5.739  19.157  0.00  0.00    +0.000 C 
ATOM     24  C   UNL     1       6.254   5.344  19.260  0.00  0.00    +0.000 C 
ENDBRANCH  18  19
ENDBRANCH   6  18
TORSDOF 6
ENDMDL
MODEL 6
REMARK VINA RESULT:      -7.7      1.245      1.942
REMARK  Name = 
REMARK  6 active torsions:
REMARK  status: ('A' for Active; 'I' for Inactive)
REMARK    1  A    between atoms: C_2  and  O_3
REMARK    2  A    between atoms: C_2  and  C_18
REMARK    3  A    between atoms: O_3  and  C_4
REMARK    4  A    between atoms: C_4  and  C_5
REMARK    5  A    between atoms: C_10  and  C_11
REMARK    6  A    between atoms: C_11  and  N_12
REMARK                            x       y       z     vdW  Elec       q    Type
REMARK                         _______ _______ _______ _____ _____    ______ ____
ROOT
ATOM      1  C   UNL     1       2.605   4.877  18.342  0.00  0.00    +0.000 A 
ATOM      2  C   UNL     1       1.610   3.940  17.961  0.00  0.00    +0.000 A 
ATOM      3  C   UNL     1       1.713   2.579  18.277  0.00  0.00    +0.000 A 
ATOM      4  C   UNL     1       2.764   2.126  19.049  0.00  0.00    +0.000 A 
ATOM      5  C   UNL     1       3.728   3.031  19.477  0.00  0.00    +0.000 A 
ATOM      6  C   UNL     1       3.709   4.385  19.076  0.00  0.00    +0.000 A 
ENDROOT
BRANCH   1   7
ATOM      7  C   UNL     1       2.333   6.329  17.926  0.00  0.00    +0.000 C 
BRANCH   7   8
ATOM      8  O   UNL     1       2.404   7.381  18.909  0.00  0.00    +0.000 OA
BRANCH   8  10
ATOM      9  O   UNL     1       2.023   9.098  17.431  0.00  0.00    +0.000 OA
ATOM     10  C   UNL     1       1.923   8.597  18.539  0.00  0.00    +0.000 C 
BRANCH  10  11
ATOM     11  C   UNL     1       1.167   9.259  19.653  0.00  0.00    +0.000 A 
ATOM     12  C   UNL     1       1.104   8.728  20.940  0.00  0.00    +0.000 A 
ATOM     13  C   UNL     1       0.346   9.365  21.937  0.00  0.00    +0.000 A 
ATOM     14  C   UNL     1      -0.349  10.537  21.645  0.00  0.00    +0.000 A 
ATOM     15 BR   UNL     1      -1.424  11.358  22.968  0.00  0.00    +0.000 Br
ATOM     16  C   UNL     1      -0.261  11.101  20.370  0.00  0.00    +0.000 A 
ATOM     17  C   UNL     1       0.493  10.462  19.377  0.00  0.00    +0.000 A 
ENDBRANCH  10  11
ENDBRANCH   8  10
ENDBRANCH   7   8
ENDBRANCH   1   7
BRANCH   6  18
ATOM     18  C   UNL     1       4.991   5.158  19.317  0.00  0.00    +0.000 C 
BRANCH  18  19
ATOM     19  N   UNL     1       6.040   4.731  18.391  0.00  0.00    +0.000 NA
ATOM     20  C   UNL     1       7.345   5.393  18.514  0.00  0.00    +0.000 C 
ATOM     21  C   UNL     1       7.542   6.597  17.595  0.00  0.00    +0.000 C 
ATOM     22  O   UNL     1       7.410   6.188  16.237  0.00  0.00    +0.000 OA
ATOM     23  C   UNL     1       6.119   5.644  15.972  0.00  0.00    +0.000 C 
ATOM     24  C   UNL     1       5.596   4.620  17.001  0.00  0.00    +0.000 C 
ENDBRANCH  18  19
ENDBRANCH   6  18
TORSDOF 6
ENDMDL
MODEL 7
REMARK VINA RESULT:      -7.7      1.674      4.081
REMARK  Name = 
REMARK  6 active torsions:
REMARK  status: ('A' for Active; 'I' for Inactive)
REMARK    1  A    between atoms: C_2  and  O_3
REMARK    2  A    between atoms: C_2  and  C_18
REMARK    3  A    between atoms: O_3  and  C_4
REMARK    4  A    between atoms: C_4  and  C_5
REMARK    5  A    between atoms: C_10  and  C_11
REMARK    6  A    between atoms: C_11  and  N_12
REMARK                            x       y       z     vdW  Elec       q    Type
REMARK                         _______ _______ _______ _____ _____    ______ ____
ROOT
ATOM      1  C   UNL     1       4.660   6.040  17.267  0.00  0.00    +0.000 A 
ATOM      2  C   UNL     1       5.085   6.363  15.953  0.00  0.00    +0.000 A 
ATOM      3  C   UNL     1       5.568   5.390  15.069  0.00  0.00    +0.000 A 
ATOM      4  C   UNL     1       5.564   4.059  15.438  0.00  0.00    +0.000 A 
ATOM      5  C   UNL     1       5.109   3.708  16.703  0.00  0.00    +0.000 A 
ATOM      6  C   UNL     1       4.725   4.681  17.652  0.00  0.00    +0.000 A 
ENDROOT
BRANCH   1   7
ATOM      7  C   UNL     1       4.148   7.223  18.102  0.00  0.00    +0.000 C 
BRANCH   7   8
ATOM      8  O   UNL     1       2.741   7.344  18.385  0.00  0.00    +0.000 OA
BRANCH   8  10
ATOM      9  O   UNL     1       2.183   9.174  17.112  0.00  0.00    +0.000 OA
ATOM     10  C   UNL     1       2.176   8.561  18.168  0.00  0.00    +0.000 C 
BRANCH  10  11
ATOM     11  C   UNL     1       1.456   9.066  19.383  0.00  0.00    +0.000 A 
ATOM     12  C   UNL     1       1.407   8.353  20.580  0.00  0.00    +0.000 A 
ATOM     13  C   UNL     1       0.682   8.851  21.675  0.00  0.00    +0.000 A 
ATOM     14  C   UNL     1       0.005  10.065  21.573  0.00  0.00    +0.000 A 
ATOM     15 BR   UNL     1      -1.026  10.702  23.026  0.00  0.00    +0.000 Br
ATOM     16  C   UNL     1       0.080  10.808  20.393  0.00  0.00    +0.000 A 
ATOM     17  C   UNL     1       0.801  10.308  19.301  0.00  0.00    +0.000 A 
ENDBRANCH  10  11
ENDBRANCH   8  10
ENDBRANCH   7   8
ENDBRANCH   1   7
BRANCH   6  18
ATOM     18  C   UNL     1       4.595   4.187  19.081  0.00  0.00    +0.000 C 
BRANCH  18  19
ATOM     19  N   UNL     1       3.444   3.295  19.221  0.00  0.00    +0.000 NA
ATOM     20  C   UNL     1       2.121   3.872  18.948  0.00  0.00    +0.000 C 
ATOM     21  C   UNL     1       1.388   4.403  20.178  0.00  0.00    +0.000 C 
ATOM     22  O   UNL     1       1.195   3.347  21.113  0.00  0.00    +0.000 OA
ATOM     23  C   UNL     1       2.437   2.797  21.551  0.00  0.00    +0.000 C 
ATOM     24  C   UNL     1       3.463   2.488  20.441  0.00  0.00    +0.000 C 
ENDBRANCH  18  19
ENDBRANCH   6  18
TORSDOF 6
ENDMDL
MODEL 8
REMARK VINA RESULT:      -7.6      1.854      3.692
REMARK  Name = 
REMARK  6 active torsions:
REMARK  status: ('A' for Active; 'I' for Inactive)
REMARK    1  A    between atoms: C_2  and  O_3
REMARK    2  A    between atoms: C_2  and  C_18
REMARK    3  A    between atoms: O_3  and  C_4
REMARK    4  A    between atoms: C_4  and  C_5
REMARK    5  A    between atoms: C_10  and  C_11
REMARK    6  A    between atoms: C_11  and  N_12
REMARK                            x       y       z     vdW  Elec       q    Type
REMARK                         _______ _______ _______ _____ _____    ______ ____
ROOT
ATOM      1  C   UNL     1       5.106   6.523  17.817  0.00  0.00    +0.000 A 
ATOM      2  C   UNL     1       6.262   7.156  17.293  0.00  0.00    +0.000 A 
ATOM      3  C   UNL     1       7.546   6.874  17.776  0.00  0.00    +0.000 A 
ATOM      4  C   UNL     1       7.724   5.895  18.735  0.00  0.00    +0.000 A 
ATOM      5  C   UNL     1       6.614   5.225  19.232  0.00  0.00    +0.000 A 
ATOM      6  C   UNL     1       5.300   5.571  18.845  0.00  0.00    +0.000 A 
ENDROOT
BRANCH   1   7
ATOM      7  C   UNL     1       3.778   6.938  17.169  0.00  0.00    +0.000 C 
BRANCH   7   8
ATOM      8  O   UNL     1       2.645   7.262  17.999  0.00  0.00    +0.000 OA
BRANCH   8  10
ATOM      9  O   UNL     1       2.400   9.355  17.082  0.00  0.00    +0.000 OA
ATOM     10  C   UNL     1       2.231   8.556  17.990  0.00  0.00    +0.000 C 
BRANCH  10  11
ATOM     11  C   UNL     1       1.454   8.901  19.225  0.00  0.00    +0.000 A 
ATOM     12  C   UNL     1       0.503   9.920  19.257  0.00  0.00    +0.000 A 
ATOM     13  C   UNL     1      -0.167  10.231  20.453  0.00  0.00    +0.000 A 
ATOM     14  C   UNL     1       0.115   9.520  21.618  0.00  0.00    +0.000 A 
ATOM     15 BR   UNL     1      -0.738   9.985  23.242  0.00  0.00    +0.000 Br
ATOM     16  C   UNL     1       1.036   8.470  21.590  0.00  0.00    +0.000 A 
ATOM     17  C   UNL     1       1.704   8.164  20.397  0.00  0.00    +0.000 A 
ENDBRANCH  10  11
ENDBRANCH   8  10
ENDBRANCH   7   8
ENDBRANCH   1   7
BRANCH   6  18
ATOM     18  C   UNL     1       4.191   5.013  19.718  0.00  0.00    +0.000 C 
BRANCH  18  19
ATOM     19  N   UNL     1       3.898   3.624  19.363  0.00  0.00    +0.000 NA
ATOM     20  C   UNL     1       3.792   3.314  17.931  0.00  0.00    +0.000 C 
ATOM     21  C   UNL     1       2.374   3.367  17.367  0.00  0.00    +0.000 C 
ATOM     22  O   UNL     1       1.550   2.432  18.057  0.00  0.00    +0.000 OA
ATOM     23  C   UNL     1       1.475   2.723  19.451  0.00  0.00    +0.000 C 
ATOM     24  C   UNL     1       2.818   3.026  20.148  0.00  0.00    +0.000 C 
ENDBRANCH  18  19
ENDBRANCH   6  18
TORSDOF 6
ENDMDL
MODEL 9
REMARK VINA RESULT:      -7.6      1.531      2.071
REMARK  Name = 
REMARK  6 active torsions:
REMARK  status: ('A' for Active; 'I' for Inactive)
REMARK    1  A    between atoms: C_2  and  O_3
REMARK    2  A    between atoms: C_2  and  C_18
REMARK    3  A    between atoms: O_3  and  C_4
REMARK    4  A    between atoms: C_4  and  C_5
REMARK    5  A    between atoms: C_10  and  C_11
REMARK    6  A    between atoms: C_11  and  N_12
REMARK                            x       y       z     vdW  Elec       q    Type
REMARK                         _______ _______ _______ _____ _____    ______ ____
ROOT
ATOM      1  C   UNL     1       2.408   4.187  19.899  0.00  0.00    +0.000 A 
ATOM      2  C   UNL     1       1.134   3.610  19.658  0.00  0.00    +0.000 A 
ATOM      3  C   UNL     1       0.963   2.529  18.784  0.00  0.00    +0.000 A 
ATOM      4  C   UNL     1       2.061   1.940  18.189  0.00  0.00    +0.000 A 
ATOM      5  C   UNL     1       3.326   2.454  18.445  0.00  0.00    +0.000 A 
ATOM      6  C   UNL     1       3.514   3.613  19.230  0.00  0.00    +0.000 A 
ENDROOT
BRANCH   1   7
ATOM      7  C   UNL     1       2.422   5.357  20.892  0.00  0.00    +0.000 C 
BRANCH   7   8
ATOM      8  O   UNL     1       1.395   6.366  20.824  0.00  0.00    +0.000 OA
BRANCH   8  10
ATOM      9  O   UNL     1       2.487   7.646  19.258  0.00  0.00    +0.000 OA
ATOM     10  C   UNL     1       1.723   7.530  20.204  0.00  0.00    +0.000 C 
BRANCH  10  11
ATOM     11  C   UNL     1       0.971   8.696  20.773  0.00  0.00    +0.000 A 
ATOM     12  C   UNL     1       0.615   9.808  20.011  0.00  0.00    +0.000 A 
ATOM     13  C   UNL     1      -0.052  10.893  20.603  0.00  0.00    +0.000 A 
ATOM     14  C   UNL     1      -0.365  10.865  21.961  0.00  0.00    +0.000 A 
ATOM     15 BR   UNL     1      -1.203  12.355  22.772  0.00  0.00    +0.000 Br
ATOM     16  C   UNL     1      -0.051   9.740  22.727  0.00  0.00    +0.000 A 
ATOM     17  C   UNL     1       0.617   8.660  22.134  0.00  0.00    +0.000 A 
ENDBRANCH  10  11
ENDBRANCH   8  10
ENDBRANCH   7   8
ENDBRANCH   1   7
BRANCH   6  18
ATOM     18  C   UNL     1       4.884   4.257  19.131  0.00  0.00    +0.000 C 
BRANCH  18  19
ATOM     19  N   UNL     1       5.257   4.476  17.734  0.00  0.00    +0.000 NA
ATOM     20  C   UNL     1       6.692   4.595  17.441  0.00  0.00    +0.000 C 
ATOM     21  C   UNL     1       7.225   6.026  17.420  0.00  0.00    +0.000 C 
ATOM     22  O   UNL     1       6.535   6.778  16.427  0.00  0.00    +0.000 OA
ATOM     23  C   UNL     1       5.135   6.840  16.690  0.00  0.00    +0.000 C 
ATOM     24  C   UNL     1       4.461   5.502  17.060  0.00  0.00    +0.000 C 
ENDBRANCH  18  19
ENDBRANCH   6  18
TORSDOF 6
ENDMDL
