MODEL 1
REMARK VINA RESULT:      -6.3      0.000      0.000
REMARK  Name = 
REMARK  7 active torsions:
REMARK  status: ('A' for Active; 'I' for Inactive)
REMARK    1  A    between atoms: C_2  and  O_3
REMARK    2  A    between atoms: C_2  and  C_13
REMARK    3  A    between atoms: O_3  and  C_4
REMARK    4  A    between atoms: C_4  and  C_5
REMARK    5  A    between atoms: C_5  and  C_6
REMARK    6  A    between atoms: C_6  and  N_7
REMARK    7  A    between atoms: C_16  and  O_17
REMARK                            x       y       z     vdW  Elec       q    Type
REMARK                         _______ _______ _______ _____ _____    ______ ____
ROOT
ATOM      1  O   UNL     1       0.074   2.207  18.478  0.00  0.00    +0.000 OA
ATOM      2  C   UNL     1       1.197   2.684  18.421  0.00  0.00    +0.000 C 
ENDROOT
BRANCH   2   3
ATOM      3  C   UNL     1       1.525   4.033  18.966  0.00  0.00    +0.000 A 
ATOM      4  C   UNL     1       1.972   5.012  18.064  0.00  0.00    +0.000 A 
ATOM      5  C   UNL     1       2.262   6.306  18.506  0.00  0.00    +0.000 A 
ATOM      6  C   UNL     1       2.104   6.617  19.851  0.00  0.00    +0.000 A 
ATOM      7  C   UNL     1       1.676   5.655  20.760  0.00  0.00    +0.000 A 
ATOM      8  C   UNL     1       1.388   4.359  20.321  0.00  0.00    +0.000 A 
BRANCH   6   9
ATOM      9  O   UNL     1       2.360   7.869  20.324  0.00  0.00    +0.000 OA
ATOM     10  H   UNL     1       3.080   7.818  20.976  0.00  0.00    +0.000 HD
ENDBRANCH   6   9
ENDBRANCH   2   3
BRANCH   2  11
ATOM     11  O   UNL     1       2.291   2.088  17.887  0.00  0.00    +0.000 OA
BRANCH  11  12
ATOM     12  C   UNL     1       3.354   1.801  18.819  0.00  0.00    +0.000 C 
BRANCH  12  13
ATOM     13  C   UNL     1       4.671   2.389  18.321  0.00  0.00    +0.000 C 
BRANCH  13  14
ATOM     14  C   UNL     1       5.111   3.634  19.101  0.00  0.00    +0.000 C 
BRANCH  14  15
ATOM     15  N   UNL     1       6.203   4.406  18.480  0.00  0.00    +0.000 NA
ATOM     16  C   UNL     1       5.790   4.983  17.188  0.00  0.00    +0.000 C 
ATOM     17  C   UNL     1       6.897   5.818  16.545  0.00  0.00    +0.000 C 
ATOM     18  C   UNL     1       7.376   6.913  17.486  0.00  0.00    +0.000 C 
ATOM     19  C   UNL     1       7.795   6.297  18.814  0.00  0.00    +0.000 C 
ATOM     20  C   UNL     1       6.666   5.454  19.408  0.00  0.00    +0.000 C 
ENDBRANCH  14  15
ENDBRANCH  13  14
ENDBRANCH  12  13
ENDBRANCH  11  12
ENDBRANCH   2  11
TORSDOF 7
ENDMDL
MODEL 2
REMARK VINA RESULT:      -6.2      2.274      5.084
REMARK  Name = 
REMARK  7 active torsions:
REMARK  status: ('A' for Active; 'I' for Inactive)
REMARK    1  A    between atoms: C_2  and  O_3
REMARK    2  A    between atoms: C_2  and  C_13
REMARK    3  A    between atoms: O_3  and  C_4
REMARK    4  A    between atoms: C_4  and  C_5
REMARK    5  A    between atoms: C_5  and  C_6
REMARK    6  A    between atoms: C_6  and  N_7
REMARK    7  A    between atoms: C_16  and  O_17
REMARK                            x       y       z     vdW  Elec       q    Type
REMARK                         _______ _______ _______ _____ _____    ______ ____
ROOT
ATOM      1  O   UNL     1       2.494   7.342  18.868  0.00  0.00    +0.000 OA
ATOM      2  C   UNL     1       3.222   6.412  19.178  0.00  0.00    +0.000 C 
ENDROOT
BRANCH   2   3
ATOM      3  C   UNL     1       4.397   6.003  18.355  0.00  0.00    +0.000 A 
ATOM      4  C   UNL     1       5.454   5.345  19.006  0.00  0.00    +0.000 A 
ATOM      5  C   UNL     1       6.567   4.904  18.284  0.00  0.00    +0.000 A 
ATOM      6  C   UNL     1       6.621   5.123  16.913  0.00  0.00    +0.000 A 
ATOM      7  C   UNL     1       5.589   5.786  16.256  0.00  0.00    +0.000 A 
ATOM      8  C   UNL     1       4.475   6.231  16.976  0.00  0.00    +0.000 A 
BRANCH   6   9
ATOM      9  O   UNL     1       7.679   4.697  16.168  0.00  0.00    +0.000 OA
ATOM     10  H   UNL     1       7.851   3.762  16.372  0.00  0.00    +0.000 HD
ENDBRANCH   6   9
ENDBRANCH   2   3
BRANCH   2  11
ATOM     11  O   UNL     1       3.100   5.636  20.283  0.00  0.00    +0.000 OA
BRANCH  11  12
ATOM     12  C   UNL     1       1.752   5.453  20.762  0.00  0.00    +0.000 C 
BRANCH  12  13
ATOM     13  C   UNL     1       1.509   3.990  21.120  0.00  0.00    +0.000 C 
BRANCH  13  14
ATOM     14  C   UNL     1       0.713   3.230  20.052  0.00  0.00    +0.000 C 
BRANCH  14  15
ATOM     15  N   UNL     1       1.526   2.621  18.982  0.00  0.00    +0.000 NA
ATOM     16  C   UNL     1       1.743   3.560  17.867  0.00  0.00    +0.000 C 
ATOM     17  C   UNL     1       2.615   2.960  16.764  0.00  0.00    +0.000 C 
ATOM     18  C   UNL     1       3.947   2.477  17.319  0.00  0.00    +0.000 C 
ATOM     19  C   UNL     1       3.701   1.512  18.470  0.00  0.00    +0.000 C 
ATOM     20  C   UNL     1       2.808   2.147  19.537  0.00  0.00    +0.000 C 
ENDBRANCH  14  15
ENDBRANCH  13  14
ENDBRANCH  12  13
ENDBRANCH  11  12
ENDBRANCH   2  11
TORSDOF 7
ENDMDL
MODEL 3
REMARK VINA RESULT:      -6.2      0.620      1.259
REMARK  Name = 
REMARK  7 active torsions:
REMARK  status: ('A' for Active; 'I' for Inactive)
REMARK    1  A    between atoms: C_2  and  O_3
REMARK    2  A    between atoms: C_2  and  C_13
REMARK    3  A    between atoms: O_3  and  C_4
REMARK    4  A    between atoms: C_4  and  C_5
REMARK    5  A    between atoms: C_5  and  C_6
REMARK    6  A    between atoms: C_6  and  N_7
REMARK    7  A    between atoms: C_16  and  O_17
REMARK                            x       y       z     vdW  Elec       q    Type
REMARK                         _______ _______ _______ _____ _____    ______ ____
ROOT
ATOM      1  O   UNL     1       0.102   2.138  18.709  0.00  0.00    +0.000 OA
ATOM      2  C   UNL     1       1.183   2.575  19.073  0.00  0.00    +0.000 C 
ENDROOT
BRANCH   2   3
ATOM      3  C   UNL     1       1.478   4.035  19.140  0.00  0.00    +0.000 A 
ATOM      4  C   UNL     1       1.393   4.663  20.394  0.00  0.00    +0.000 A 
ATOM      5  C   UNL     1       1.693   6.021  20.530  0.00  0.00    +0.000 A 
ATOM      6  C   UNL     1       2.077   6.750  19.410  0.00  0.00    +0.000 A 
ATOM      7  C   UNL     1       2.152   6.147  18.159  0.00  0.00    +0.000 A 
ATOM      8  C   UNL     1       1.850   4.788  18.019  0.00  0.00    +0.000 A 
BRANCH   6   9
ATOM      9  O   UNL     1       2.392   8.072  19.498  0.00  0.00    +0.000 OA
ATOM     10  H   UNL     1       3.308   8.197  19.194  0.00  0.00    +0.000 HD
ENDBRANCH   6   9
ENDBRANCH   2   3
BRANCH   2  11
ATOM     11  O   UNL     1       2.248   1.838  19.474  0.00  0.00    +0.000 OA
BRANCH  11  12
ATOM     12  C   UNL     1       3.369   1.830  18.566  0.00  0.00    +0.000 C 
BRANCH  12  13
ATOM     13  C   UNL     1       4.656   2.177  19.310  0.00  0.00    +0.000 C 
BRANCH  13  14
ATOM     14  C   UNL     1       4.870   3.686  19.477  0.00  0.00    +0.000 C 
BRANCH  14  15
ATOM     15  N   UNL     1       6.006   4.244  18.719  0.00  0.00    +0.000 NA
ATOM     16  C   UNL     1       5.648   4.486  17.309  0.00  0.00    +0.000 C 
ATOM     17  C   UNL     1       6.802   5.098  16.515  0.00  0.00    +0.000 C 
ATOM     18  C   UNL     1       7.296   6.382  17.166  0.00  0.00    +0.000 C 
ATOM     19  C   UNL     1       7.657   6.111  18.620  0.00  0.00    +0.000 C 
ATOM     20  C   UNL     1       6.482   5.480  19.368  0.00  0.00    +0.000 C 
ENDBRANCH  14  15
ENDBRANCH  13  14
ENDBRANCH  12  13
ENDBRANCH  11  12
ENDBRANCH   2  11
TORSDOF 7
ENDMDL
MODEL 4
REMARK VINA RESULT:      -6.2      2.209      5.423
REMARK  Name = 
REMARK  7 active torsions:
REMARK  status: ('A' for Active; 'I' for Inactive)
REMARK    1  A    between atoms: C_2  and  O_3
REMARK    2  A    between atoms: C_2  and  C_13
REMARK    3  A    between atoms: O_3  and  C_4
REMARK    4  A    between atoms: C_4  and  C_5
REMARK    5  A    between atoms: C_5  and  C_6
REMARK    6  A    between atoms: C_6  and  N_7
REMARK    7  A    between atoms: C_16  and  O_17
REMARK                            x       y       z     vdW  Elec       q    Type
REMARK                         _______ _______ _______ _____ _____    ______ ____
ROOT
ATOM      1  O   UNL     1       3.101   8.249  17.148  0.00  0.00    +0.000 OA
ATOM      2  C   UNL     1       3.270   7.143  17.636  0.00  0.00    +0.000 C 
ENDROOT
BRANCH   2   3
ATOM      3  C   UNL     1       4.534   6.371  17.458  0.00  0.00    +0.000 A 
ATOM      4  C   UNL     1       4.432   5.041  17.019  0.00  0.00    +0.000 A 
ATOM      5  C   UNL     1       5.581   4.276  16.797  0.00  0.00    +0.000 A 
ATOM      6  C   UNL     1       6.830   4.843  17.017  0.00  0.00    +0.000 A 
ATOM      7  C   UNL     1       6.948   6.155  17.466  0.00  0.00    +0.000 A 
ATOM      8  C   UNL     1       5.800   6.922  17.691  0.00  0.00    +0.000 A 
BRANCH   6   9
ATOM      9  O   UNL     1       7.977   4.140  16.800  0.00  0.00    +0.000 OA
ATOM     10  H   UNL     1       8.579   4.282  17.551  0.00  0.00    +0.000 HD
ENDBRANCH   6   9
ENDBRANCH   2   3
BRANCH   2  11
ATOM     11  O   UNL     1       2.381   6.463  18.401  0.00  0.00    +0.000 OA
BRANCH  11  12
ATOM     12  C   UNL     1       2.642   6.489  19.820  0.00  0.00    +0.000 C 
BRANCH  12  13
ATOM     13  C   UNL     1       1.441   5.947  20.590  0.00  0.00    +0.000 C 
BRANCH  13  14
ATOM     14  C   UNL     1       1.378   4.415  20.611  0.00  0.00    +0.000 C 
BRANCH  14  15
ATOM     15  N   UNL     1       2.321   3.738  19.700  0.00  0.00    +0.000 NA
ATOM     16  C   UNL     1       3.278   2.896  20.441  0.00  0.00    +0.000 C 
ATOM     17  C   UNL     1       4.241   2.158  19.512  0.00  0.00    +0.000 C 
ATOM     18  C   UNL     1       3.486   1.327  18.486  0.00  0.00    +0.000 C 
ATOM     19  C   UNL     1       2.502   2.214  17.735  0.00  0.00    +0.000 C 
ATOM     20  C   UNL     1       1.575   2.948  18.704  0.00  0.00    +0.000 C 
ENDBRANCH  14  15
ENDBRANCH  13  14
ENDBRANCH  12  13
ENDBRANCH  11  12
ENDBRANCH   2  11
TORSDOF 7
ENDMDL
MODEL 5
REMARK VINA RESULT:      -6.2      0.513      1.617
REMARK  Name = 
REMARK  7 active torsions:
REMARK  status: ('A' for Active; 'I' for Inactive)
REMARK    1  A    between atoms: C_2  and  O_3
REMARK    2  A    between atoms: C_2  and  C_13
REMARK    3  A    between atoms: O_3  and  C_4
REMARK    4  A    between atoms: C_4  and  C_5
REMARK    5  A    between atoms: C_5  and  C_6
REMARK    6  A    between atoms: C_6  and  N_7
REMARK    7  A    between atoms: C_16  and  O_17
REMARK                            x       y       z     vdW  Elec       q    Type
REMARK                         _______ _______ _______ _____ _____    ______ ____
ROOT
ATOM      1  O   UNL     1       0.298   2.074  18.716  0.00  0.00    +0.000 OA
ATOM      2  C   UNL     1       1.302   2.704  18.421  0.00  0.00    +0.000 C 
ENDROOT
BRANCH   2   3
ATOM      3  C   UNL     1       1.552   4.091  18.909  0.00  0.00    +0.000 A 
ATOM      4  C   UNL     1       1.479   4.321  20.293  0.00  0.00    +0.000 A 
ATOM      5  C   UNL     1       1.740   5.590  20.816  0.00  0.00    +0.000 A 
ATOM      6  C   UNL     1       2.072   6.628  19.953  0.00  0.00    +0.000 A 
ATOM      7  C   UNL     1       2.134   6.420  18.579  0.00  0.00    +0.000 A 
ATOM      8  C   UNL     1       1.872   5.151  18.052  0.00  0.00    +0.000 A 
BRANCH   6   9
ATOM      9  O   UNL     1       2.348   7.878  20.420  0.00  0.00    +0.000 OA
ATOM     10  H   UNL     1       1.744   8.079  21.155  0.00  0.00    +0.000 HD
ENDBRANCH   6   9
ENDBRANCH   2   3
BRANCH   2  11
ATOM     11  O   UNL     1       2.321   2.262  17.644  0.00  0.00    +0.000 OA
BRANCH  11  12
ATOM     12  C   UNL     1       3.529   1.912  18.352  0.00  0.00    +0.000 C 
BRANCH  12  13
ATOM     13  C   UNL     1       4.659   2.867  17.978  0.00  0.00    +0.000 C 
BRANCH  13  14
ATOM     14  C   UNL     1       5.086   3.779  19.135  0.00  0.00    +0.000 C 
BRANCH  14  15
ATOM     15  N   UNL     1       5.602   5.101  18.730  0.00  0.00    +0.000 NA
ATOM     16  C   UNL     1       7.047   5.221  18.995  0.00  0.00    +0.000 C 
ATOM     17  C   UNL     1       7.609   6.571  18.548  0.00  0.00    +0.000 C 
ATOM     18  C   UNL     1       7.315   6.828  17.077  0.00  0.00    +0.000 C 
ATOM     19  C   UNL     1       5.819   6.696  16.825  0.00  0.00    +0.000 C 
ATOM     20  C   UNL     1       5.299   5.341  17.307  0.00  0.00    +0.000 C 
ENDBRANCH  14  15
ENDBRANCH  13  14
ENDBRANCH  12  13
ENDBRANCH  11  12
ENDBRANCH   2  11
TORSDOF 7
ENDMDL
MODEL 6
REMARK VINA RESULT:      -6.2      3.175      6.644
REMARK  Name = 
REMARK  7 active torsions:
REMARK  status: ('A' for Active; 'I' for Inactive)
REMARK    1  A    between atoms: C_2  and  O_3
REMARK    2  A    between atoms: C_2  and  C_13
REMARK    3  A    between atoms: O_3  and  C_4
REMARK    4  A    between atoms: C_4  and  C_5
REMARK    5  A    between atoms: C_5  and  C_6
REMARK    6  A    between atoms: C_6  and  N_7
REMARK    7  A    between atoms: C_16  and  O_17
REMARK                            x       y       z     vdW  Elec       q    Type
REMARK                         _______ _______ _______ _____ _____    ______ ____
ROOT
ATOM      1  O   UNL     1       7.580   6.928  16.669  0.00  0.00    +0.000 OA
ATOM      2  C   UNL     1       7.326   5.734  16.640  0.00  0.00    +0.000 C 
ENDROOT
BRANCH   2   3
ATOM      3  C   UNL     1       6.887   5.036  15.396  0.00  0.00    +0.000 A 
ATOM      4  C   UNL     1       5.731   4.240  15.466  0.00  0.00    +0.000 A 
ATOM      5  C   UNL     1       5.247   3.590  14.327  0.00  0.00    +0.000 A 
ATOM      6  C   UNL     1       5.922   3.736  13.121  0.00  0.00    +0.000 A 
ATOM      7  C   UNL     1       7.075   4.509  13.038  0.00  0.00    +0.000 A 
ATOM      8  C   UNL     1       7.564   5.159  14.177  0.00  0.00    +0.000 A 
BRANCH   6   9
ATOM      9  O   UNL     1       5.478   3.133  11.983  0.00  0.00    +0.000 OA
ATOM     10  H   UNL     1       5.084   3.807  11.403  0.00  0.00    +0.000 HD
ENDBRANCH   6   9
ENDBRANCH   2   3
BRANCH   2  11
ATOM     11  O   UNL     1       7.408   4.874  17.684  0.00  0.00    +0.000 OA
BRANCH  11  12
ATOM     12  C   UNL     1       6.971   5.401  18.954  0.00  0.00    +0.000 C 
BRANCH  12  13
ATOM     13  C   UNL     1       5.447   5.418  19.025  0.00  0.00    +0.000 C 
BRANCH  13  14
ATOM     14  C   UNL     1       4.831   4.017  19.134  0.00  0.00    +0.000 C 
BRANCH  14  15
ATOM     15  N   UNL     1       3.358   3.975  19.062  0.00  0.00    +0.000 NA
ATOM     16  C   UNL     1       2.876   2.647  18.639  0.00  0.00    +0.000 C 
ATOM     17  C   UNL     1       1.350   2.572  18.593  0.00  0.00    +0.000 C 
ATOM     18  C   UNL     1       0.741   2.957  19.933  0.00  0.00    +0.000 C 
ATOM     19  C   UNL     1       1.253   4.328  20.352  0.00  0.00    +0.000 C 
ATOM     20  C   UNL     1       2.782   4.362  20.363  0.00  0.00    +0.000 C 
ENDBRANCH  14  15
ENDBRANCH  13  14
ENDBRANCH  12  13
ENDBRANCH  11  12
ENDBRANCH   2  11
TORSDOF 7
ENDMDL
MODEL 7
REMARK VINA RESULT:      -6.1      2.214      3.394
REMARK  Name = 
REMARK  7 active torsions:
REMARK  status: ('A' for Active; 'I' for Inactive)
REMARK    1  A    between atoms: C_2  and  O_3
REMARK    2  A    between atoms: C_2  and  C_13
REMARK    3  A    between atoms: O_3  and  C_4
REMARK    4  A    between atoms: C_4  and  C_5
REMARK    5  A    between atoms: C_5  and  C_6
REMARK    6  A    between atoms: C_6  and  N_7
REMARK    7  A    between atoms: C_16  and  O_17
REMARK                            x       y       z     vdW  Elec       q    Type
REMARK                         _______ _______ _______ _____ _____    ______ ____
ROOT
ATOM      1  O   UNL     1       3.859   7.146  17.337  0.00  0.00    +0.000 OA
ATOM      2  C   UNL     1       3.026   6.938  18.205  0.00  0.00    +0.000 C 
ENDROOT
BRANCH   2   3
ATOM      3  C   UNL     1       2.122   8.006  18.723  0.00  0.00    +0.000 A 
ATOM      4  C   UNL     1       1.780   7.970  20.085  0.00  0.00    +0.000 A 
ATOM      5  C   UNL     1       0.966   8.962  20.639  0.00  0.00    +0.000 A 
ATOM      6  C   UNL     1       0.494   9.988  19.828  0.00  0.00    +0.000 A 
ATOM      7  C   UNL     1       0.811  10.029  18.475  0.00  0.00    +0.000 A 
ATOM      8  C   UNL     1       1.624   9.037  17.917  0.00  0.00    +0.000 A 
BRANCH   6   9
ATOM      9  O   UNL     1      -0.289  10.984  20.329  0.00  0.00    +0.000 OA
ATOM     10  H   UNL     1      -0.405  10.843  21.284  0.00  0.00    +0.000 HD
ENDBRANCH   6   9
ENDBRANCH   2   3
BRANCH   2  11
ATOM     11  O   UNL     1       2.783   5.750  18.811  0.00  0.00    +0.000 OA
BRANCH  11  12
ATOM     12  C   UNL     1       2.325   4.696  17.940  0.00  0.00    +0.000 C 
BRANCH  12  13
ATOM     13  C   UNL     1       3.373   3.591  17.847  0.00  0.00    +0.000 C 
BRANCH  13  14
ATOM     14  C   UNL     1       4.411   3.645  18.975  0.00  0.00    +0.000 C 
BRANCH  14  15
ATOM     15  N   UNL     1       5.750   4.115  18.570  0.00  0.00    +0.000 NA
ATOM     16  C   UNL     1       5.813   4.381  17.122  0.00  0.00    +0.000 C 
ATOM     17  C   UNL     1       7.183   4.904  16.688  0.00  0.00    +0.000 C 
ATOM     18  C   UNL     1       7.571   6.147  17.474  0.00  0.00    +0.000 C 
ATOM     19  C   UNL     1       7.496   5.851  18.966  0.00  0.00    +0.000 C 
ATOM     20  C   UNL     1       6.117   5.311  19.350  0.00  0.00    +0.000 C 
ENDBRANCH  14  15
ENDBRANCH  13  14
ENDBRANCH  12  13
ENDBRANCH  11  12
ENDBRANCH   2  11
TORSDOF 7
ENDMDL
MODEL 8
REMARK VINA RESULT:      -6.1      2.670      4.431
REMARK  Name = 
REMARK  7 active torsions:
REMARK  status: ('A' for Active; 'I' for Inactive)
REMARK    1  A    between atoms: C_2  and  O_3
REMARK    2  A    between atoms: C_2  and  C_13
REMARK    3  A    between atoms: O_3  and  C_4
REMARK    4  A    between atoms: C_4  and  C_5
REMARK    5  A    between atoms: C_5  and  C_6
REMARK    6  A    between atoms: C_6  and  N_7
REMARK    7  A    between atoms: C_16  and  O_17
REMARK                            x       y       z     vdW  Elec       q    Type
REMARK                         _______ _______ _______ _____ _____    ______ ____
ROOT
ATOM      1  O   UNL     1       3.172   7.800  17.417  0.00  0.00    +0.000 OA
ATOM      2  C   UNL     1       3.550   6.669  17.678  0.00  0.00    +0.000 C 
ENDROOT
BRANCH   2   3
ATOM      3  C   UNL     1       2.741   5.720  18.497  0.00  0.00    +0.000 A 
ATOM      4  C   UNL     1       2.127   4.643  17.835  0.00  0.00    +0.000 A 
ATOM      5  C   UNL     1       1.386   3.699  18.551  0.00  0.00    +0.000 A 
ATOM      6  C   UNL     1       1.259   3.835  19.929  0.00  0.00    +0.000 A 
ATOM      7  C   UNL     1       1.848   4.903  20.597  0.00  0.00    +0.000 A 
ATOM      8  C   UNL     1       2.589   5.851  19.882  0.00  0.00    +0.000 A 
BRANCH   6   9
ATOM      9  O   UNL     1       0.559   2.930  20.669  0.00  0.00    +0.000 OA
ATOM     10  H   UNL     1      -0.338   3.274  20.819  0.00  0.00    +0.000 HD
ENDBRANCH   6   9
ENDBRANCH   2   3
BRANCH   2  11
ATOM     11  O   UNL     1       4.713   6.102  17.273  0.00  0.00    +0.000 OA
BRANCH  11  12
ATOM     12  C   UNL     1       5.833   7.005  17.163  0.00  0.00    +0.000 C 
BRANCH  12  13
ATOM     13  C   UNL     1       7.111   6.229  16.858  0.00  0.00    +0.000 C 
BRANCH  13  14
ATOM     14  C   UNL     1       6.850   4.860  16.217  0.00  0.00    +0.000 C 
BRANCH  14  15
ATOM     15  N   UNL     1       6.600   4.889  14.763  0.00  0.00    +0.000 NA
ATOM     16  C   UNL     1       7.829   5.200  14.010  0.00  0.00    +0.000 C 
ATOM     17  C   UNL     1       7.599   5.199  12.499  0.00  0.00    +0.000 C 
ATOM     18  C   UNL     1       7.011   3.875  12.034  0.00  0.00    +0.000 C 
ATOM     19  C   UNL     1       5.746   3.572  12.825  0.00  0.00    +0.000 C 
ATOM     20  C   UNL     1       6.019   3.605  14.330  0.00  0.00    +0.000 C 
ENDBRANCH  14  15
ENDBRANCH  13  14
ENDBRANCH  12  13
ENDBRANCH  11  12
ENDBRANCH   2  11
TORSDOF 7
ENDMDL
MODEL 9
REMARK VINA RESULT:      -6.1      2.549      4.692
REMARK  Name = 
REMARK  7 active torsions:
REMARK  status: ('A' for Active; 'I' for Inactive)
REMARK    1  A    between atoms: C_2  and  O_3
REMARK    2  A    between atoms: C_2  and  C_13
REMARK    3  A    between atoms: O_3  and  C_4
REMARK    4  A    between atoms: C_4  and  C_5
REMARK    5  A    between atoms: C_5  and  C_6
REMARK    6  A    between atoms: C_6  and  N_7
REMARK    7  A    between atoms: C_16  and  O_17
REMARK                            x       y       z     vdW  Elec       q    Type
REMARK                         _______ _______ _______ _____ _____    ______ ____
ROOT
ATOM      1  O   UNL     1       6.111   4.887  19.167  0.00  0.00    +0.000 OA
ATOM      2  C   UNL     1       5.364   5.168  18.244  0.00  0.00    +0.000 C 
ENDROOT
BRANCH   2   3
ATOM      3  C   UNL     1       4.255   6.157  18.381  0.00  0.00    +0.000 A 
ATOM      4  C   UNL     1       3.413   6.044  19.500  0.00  0.00    +0.000 A 
ATOM      5  C   UNL     1       2.378   6.961  19.705  0.00  0.00    +0.000 A 
ATOM      6  C   UNL     1       2.187   7.989  18.789  0.00  0.00    +0.000 A 
ATOM      7  C   UNL     1       3.003   8.106  17.668  0.00  0.00    +0.000 A 
ATOM      8  C   UNL     1       4.038   7.188  17.459  0.00  0.00    +0.000 A 
BRANCH   6   9
ATOM      9  O   UNL     1       1.201   8.914  18.956  0.00  0.00    +0.000 OA
ATOM     10  H   UNL     1       1.550   9.653  19.484  0.00  0.00    +0.000 HD
ENDBRANCH   6   9
ENDBRANCH   2   3
BRANCH   2  11
ATOM     11  O   UNL     1       5.420   4.663  16.987  0.00  0.00    +0.000 OA
BRANCH  11  12
ATOM     12  C   UNL     1       4.280   3.874  16.588  0.00  0.00    +0.000 C 
BRANCH  12  13
ATOM     13  C   UNL     1       4.215   2.585  17.402  0.00  0.00    +0.000 C 
BRANCH  13  14
ATOM     14  C   UNL     1       2.784   2.075  17.614  0.00  0.00    +0.000 C 
BRANCH  14  15
ATOM     15  N   UNL     1       2.286   2.170  18.999  0.00  0.00    +0.000 NA
ATOM     16  C   UNL     1       3.381   2.440  19.949  0.00  0.00    +0.000 C 
ATOM     17  C   UNL     1       2.880   2.578  21.387  0.00  0.00    +0.000 C 
ATOM     18  C   UNL     1       1.807   3.652  21.493  0.00  0.00    +0.000 C 
ATOM     19  C   UNL     1       0.689   3.357  20.503  0.00  0.00    +0.000 C 
ATOM     20  C   UNL     1       1.239   3.205  19.084  0.00  0.00    +0.000 C 
ENDBRANCH  14  15
ENDBRANCH  13  14
ENDBRANCH  12  13
ENDBRANCH  11  12
ENDBRANCH   2  11
TORSDOF 7
ENDMDL
