MODEL 1
REMARK VINA RESULT:      -7.7      0.000      0.000
REMARK  Name = 
REMARK  6 active torsions:
REMARK  status: ('A' for Active; 'I' for Inactive)
REMARK    1  A    between atoms: C_1  and  O_2
REMARK    2  A    between atoms: O_2  and  C_3
REMARK    3  A    between atoms: C_8  and  C_9
REMARK    4  A    between atoms: C_14  and  N_15
REMARK    5  A    between atoms: N_15  and  C_16
REMARK    6  A    between atoms: C_16  and  C_17
REMARK                            x       y       z     vdW  Elec       q    Type
REMARK                         _______ _______ _______ _____ _____    ______ ____
ROOT
ATOM      1  C   UNL     1       3.717   3.535  17.785  0.00  0.00    +0.000 A 
ATOM      2  C   UNL     1       3.634   2.158  18.022  0.00  0.00    +0.000 A 
ATOM      3  N   UNL     1       2.591   1.501  18.568  0.00  0.00    +0.000 NA
ATOM      4  C   UNL     1       1.566   2.278  18.911  0.00  0.00    +0.000 A 
ATOM      5  N   UNL     1       1.507   3.605  18.759  0.00  0.00    +0.000 NA
ATOM      6  C   UNL     1       2.575   4.230  18.209  0.00  0.00    +0.000 A 
ENDROOT
BRANCH   1  12
ATOM      7  C   UNL     1       6.120   4.523  17.661  0.00  0.00    +0.000 A 
ATOM      8  C   UNL     1       7.243   4.831  16.863  0.00  0.00    +0.000 A 
ATOM      9  C   UNL     1       7.184   4.770  15.474  0.00  0.00    +0.000 A 
ATOM     10  C   UNL     1       5.995   4.424  14.860  0.00  0.00    +0.000 A 
ATOM     11  C   UNL     1       4.886   4.093  15.644  0.00  0.00    +0.000 A 
ATOM     12  C   UNL     1       4.919   4.074  17.066  0.00  0.00    +0.000 A 
BRANCH   7  14
ATOM     13  C   UNL     1       7.202   5.552  19.478  0.00  0.00    +0.000 C 
ATOM     14  O   UNL     1       6.225   4.599  19.033  0.00  0.00    +0.000 OA
ENDBRANCH   7  14
ENDBRANCH   1  12
BRANCH   6  15
ATOM     15  N   UNL     1       2.466   5.607  18.031  0.00  0.00    +0.000 N 
ATOM     16  H   UNL     1       2.702   5.865  17.075  0.00  0.00    +0.000 HD
BRANCH  15  17
ATOM     17  C   UNL     1       2.897   6.515  19.075  0.00  0.00    +0.000 C 
BRANCH  17  18
ATOM     18  C   UNL     1       2.198   7.845  19.154  0.00  0.00    +0.000 A 
ATOM     19  C   UNL     1       2.035   8.609  17.983  0.00  0.00    +0.000 A 
ATOM     20  C   UNL     1       1.259   9.758  17.986  0.00  0.00    +0.000 A 
ATOM     21  C   UNL     1       0.652  10.131  19.172  0.00  0.00    +0.000 A 
ATOM     22  N   UNL     1       0.786   9.444  20.327  0.00  0.00    +0.000 NA
ATOM     23  C   UNL     1       1.541   8.310  20.287  0.00  0.00    +0.000 A 
ENDBRANCH  17  18
ENDBRANCH  15  17
ENDBRANCH   6  15
TORSDOF 5
ENDMDL
MODEL 2
REMARK VINA RESULT:      -7.6      1.007      1.408
REMARK  Name = 
REMARK  6 active torsions:
REMARK  status: ('A' for Active; 'I' for Inactive)
REMARK    1  A    between atoms: C_1  and  O_2
REMARK    2  A    between atoms: O_2  and  C_3
REMARK    3  A    between atoms: C_8  and  C_9
REMARK    4  A    between atoms: C_14  and  N_15
REMARK    5  A    between atoms: N_15  and  C_16
REMARK    6  A    between atoms: C_16  and  C_17
REMARK                            x       y       z     vdW  Elec       q    Type
REMARK                         _______ _______ _______ _____ _____    ______ ____
ROOT
ATOM      1  C   UNL     1       3.826   3.722  18.613  0.00  0.00    +0.000 A 
ATOM      2  C   UNL     1       3.337   2.412  18.551  0.00  0.00    +0.000 A 
ATOM      3  N   UNL     1       2.302   1.909  19.254  0.00  0.00    +0.000 NA
ATOM      4  C   UNL     1       1.727   2.774  20.086  0.00  0.00    +0.000 A 
ATOM      5  N   UNL     1       2.092   4.048  20.263  0.00  0.00    +0.000 NA
ATOM      6  C   UNL     1       3.136   4.516  19.539  0.00  0.00    +0.000 A 
ENDROOT
BRANCH   1  12
ATOM      7  C   UNL     1       6.208   4.593  18.032  0.00  0.00    +0.000 A 
ATOM      8  C   UNL     1       7.207   4.766  17.050  0.00  0.00    +0.000 A 
ATOM      9  C   UNL     1       6.941   4.557  15.700  0.00  0.00    +0.000 A 
ATOM     10  C   UNL     1       5.667   4.194  15.308  0.00  0.00    +0.000 A 
ATOM     11  C   UNL     1       4.678   3.996  16.276  0.00  0.00    +0.000 A 
ATOM     12  C   UNL     1       4.921   4.130  17.671  0.00  0.00    +0.000 A 
BRANCH   7  14
ATOM     13  C   UNL     1       7.637   5.690  19.542  0.00  0.00    +0.000 C 
ATOM     14  O   UNL     1       6.515   4.813  19.357  0.00  0.00    +0.000 OA
ENDBRANCH   7  14
ENDBRANCH   1  12
BRANCH   6  15
ATOM     15  N   UNL     1       3.467   5.858  19.721  0.00  0.00    +0.000 N 
ATOM     16  H   UNL     1       3.516   6.083  20.712  0.00  0.00    +0.000 HD
BRANCH  15  17
ATOM     17  C   UNL     1       2.911   6.872  18.849  0.00  0.00    +0.000 C 
BRANCH  17  18
ATOM     18  C   UNL     1       1.958   7.857  19.469  0.00  0.00    +0.000 A 
ATOM     19  C   UNL     1       1.561   7.682  20.809  0.00  0.00    +0.000 A 
ATOM     20  C   UNL     1       0.815   8.652  21.461  0.00  0.00    +0.000 A 
ATOM     21  C   UNL     1       0.472   9.793  20.757  0.00  0.00    +0.000 A 
ATOM     22  N   UNL     1       0.812  10.005  19.468  0.00  0.00    +0.000 NA
ATOM     23  C   UNL     1       1.559   9.041  18.860  0.00  0.00    +0.000 A 
ENDBRANCH  17  18
ENDBRANCH  15  17
ENDBRANCH   6  15
TORSDOF 5
ENDMDL
MODEL 3
REMARK VINA RESULT:      -7.6      1.042      1.296
REMARK  Name = 
REMARK  6 active torsions:
REMARK  status: ('A' for Active; 'I' for Inactive)
REMARK    1  A    between atoms: C_1  and  O_2
REMARK    2  A    between atoms: O_2  and  C_3
REMARK    3  A    between atoms: C_8  and  C_9
REMARK    4  A    between atoms: C_14  and  N_15
REMARK    5  A    between atoms: N_15  and  C_16
REMARK    6  A    between atoms: C_16  and  C_17
REMARK                            x       y       z     vdW  Elec       q    Type
REMARK                         _______ _______ _______ _____ _____    ______ ____
ROOT
ATOM      1  C   UNL     1       3.999   3.606  18.267  0.00  0.00    +0.000 A 
ATOM      2  C   UNL     1       3.556   2.296  18.049  0.00  0.00    +0.000 A 
ATOM      3  N   UNL     1       2.572   1.663  18.718  0.00  0.00    +0.000 NA
ATOM      4  C   UNL     1       2.000   2.385  19.678  0.00  0.00    +0.000 A 
ATOM      5  N   UNL     1       2.325   3.640  20.009  0.00  0.00    +0.000 NA
ATOM      6  C   UNL     1       3.320   4.242  19.316  0.00  0.00    +0.000 A 
ENDROOT
BRANCH   1  12
ATOM      7  C   UNL     1       6.339   4.597  17.709  0.00  0.00    +0.000 A 
ATOM      8  C   UNL     1       7.280   4.945  16.716  0.00  0.00    +0.000 A 
ATOM      9  C   UNL     1       6.940   4.958  15.367  0.00  0.00    +0.000 A 
ATOM     10  C   UNL     1       5.647   4.646  14.990  0.00  0.00    +0.000 A 
ATOM     11  C   UNL     1       4.716   4.276  15.965  0.00  0.00    +0.000 A 
ATOM     12  C   UNL     1       5.036   4.181  17.347  0.00  0.00    +0.000 A 
BRANCH   7  14
ATOM     13  C   UNL     1       7.536   5.726  19.388  0.00  0.00    +0.000 C 
ATOM     14  O   UNL     1       6.719   4.599  19.033  0.00  0.00    +0.000 OA
ENDBRANCH   7  14
ENDBRANCH   1  12
BRANCH   6  15
ATOM     15  N   UNL     1       3.608   5.561  19.661  0.00  0.00    +0.000 N 
ATOM     16  H   UNL     1       4.544   5.631  20.055  0.00  0.00    +0.000 HD
BRANCH  15  17
ATOM     17  C   UNL     1       2.588   6.401  20.255  0.00  0.00    +0.000 C 
BRANCH  17  18
ATOM     18  C   UNL     1       2.119   7.579  19.445  0.00  0.00    +0.000 A 
ATOM     19  C   UNL     1       1.340   8.576  20.064  0.00  0.00    +0.000 A 
ATOM     20  C   UNL     1       1.027   9.749  19.396  0.00  0.00    +0.000 A 
ATOM     21  C   UNL     1       1.500   9.911  18.105  0.00  0.00    +0.000 A 
ATOM     22  N   UNL     1       2.238   8.983  17.460  0.00  0.00    +0.000 NA
ATOM     23  C   UNL     1       2.543   7.848  18.149  0.00  0.00    +0.000 A 
ENDBRANCH  17  18
ENDBRANCH  15  17
ENDBRANCH   6  15
TORSDOF 5
ENDMDL
MODEL 4
REMARK VINA RESULT:      -7.5      1.124      1.149
REMARK  Name = 
REMARK  6 active torsions:
REMARK  status: ('A' for Active; 'I' for Inactive)
REMARK    1  A    between atoms: C_1  and  O_2
REMARK    2  A    between atoms: O_2  and  C_3
REMARK    3  A    between atoms: C_8  and  C_9
REMARK    4  A    between atoms: C_14  and  N_15
REMARK    5  A    between atoms: N_15  and  C_16
REMARK    6  A    between atoms: C_16  and  C_17
REMARK                            x       y       z     vdW  Elec       q    Type
REMARK                         _______ _______ _______ _____ _____    ______ ____
ROOT
ATOM      1  C   UNL     1       3.852   3.927  19.002  0.00  0.00    +0.000 A 
ATOM      2  C   UNL     1       3.412   2.612  19.194  0.00  0.00    +0.000 A 
ATOM      3  N   UNL     1       2.416   2.211  20.009  0.00  0.00    +0.000 NA
ATOM      4  C   UNL     1       1.828   3.193  20.687  0.00  0.00    +0.000 A 
ATOM      5  N   UNL     1       2.147   4.490  20.619  0.00  0.00    +0.000 NA
ATOM      6  C   UNL     1       3.154   4.853  19.790  0.00  0.00    +0.000 A 
ENDROOT
BRANCH   1  12
ATOM      7  C   UNL     1       6.216   4.668  18.210  0.00  0.00    +0.000 A 
ATOM      8  C   UNL     1       7.169   4.698  17.169  0.00  0.00    +0.000 A 
ATOM      9  C   UNL     1       6.835   4.333  15.868  0.00  0.00    +0.000 A 
ATOM     10  C   UNL     1       5.537   3.953  15.583  0.00  0.00    +0.000 A 
ATOM     11  C   UNL     1       4.593   3.896  16.613  0.00  0.00    +0.000 A 
ATOM     12  C   UNL     1       4.906   4.194  17.968  0.00  0.00    +0.000 A 
BRANCH   7  14
ATOM     13  C   UNL     1       7.829   5.767  19.520  0.00  0.00    +0.000 C 
ATOM     14  O   UNL     1       6.591   5.040  19.482  0.00  0.00    +0.000 OA
ENDBRANCH   7  14
ENDBRANCH   1  12
BRANCH   6  15
ATOM     15  N   UNL     1       3.437   6.216  19.714  0.00  0.00    +0.000 N 
ATOM     16  H   UNL     1       3.443   6.632  20.643  0.00  0.00    +0.000 HD
BRANCH  15  17
ATOM     17  C   UNL     1       2.880   7.019  18.645  0.00  0.00    +0.000 C 
BRANCH  17  18
ATOM     18  C   UNL     1       2.010   8.179  19.045  0.00  0.00    +0.000 A 
ATOM     19  C   UNL     1       1.575   9.088  18.062  0.00  0.00    +0.000 A 
ATOM     20  C   UNL     1       0.646  10.071  18.365  0.00  0.00    +0.000 A 
ATOM     21  C   UNL     1       0.161  10.133  19.659  0.00  0.00    +0.000 A 
ATOM     22  N   UNL     1       0.554   9.298  20.644  0.00  0.00    +0.000 NA
ATOM     23  C   UNL     1       1.456   8.332  20.311  0.00  0.00    +0.000 A 
ENDBRANCH  17  18
ENDBRANCH  15  17
ENDBRANCH   6  15
TORSDOF 5
ENDMDL
MODEL 5
REMARK VINA RESULT:      -7.5      2.033      3.941
REMARK  Name = 
REMARK  6 active torsions:
REMARK  status: ('A' for Active; 'I' for Inactive)
REMARK    1  A    between atoms: C_1  and  O_2
REMARK    2  A    between atoms: O_2  and  C_3
REMARK    3  A    between atoms: C_8  and  C_9
REMARK    4  A    between atoms: C_14  and  N_15
REMARK    5  A    between atoms: N_15  and  C_16
REMARK    6  A    between atoms: C_16  and  C_17
REMARK                            x       y       z     vdW  Elec       q    Type
REMARK                         _______ _______ _______ _____ _____    ______ ____
ROOT
ATOM      1  C   UNL     1       4.555   4.463  17.016  0.00  0.00    +0.000 A 
ATOM      2  C   UNL     1       5.212   3.584  16.146  0.00  0.00    +0.000 A 
ATOM      3  N   UNL     1       6.264   3.877  15.357  0.00  0.00    +0.000 NA
ATOM      4  C   UNL     1       6.679   5.139  15.432  0.00  0.00    +0.000 A 
ATOM      5  N   UNL     1       6.144   6.092  16.203  0.00  0.00    +0.000 NA
ATOM      6  C   UNL     1       5.088   5.760  16.982  0.00  0.00    +0.000 A 
ENDROOT
BRANCH   1  12
ATOM      7  C   UNL     1       3.642   3.297  19.155  0.00  0.00    +0.000 A 
ATOM      8  C   UNL     1       2.527   3.009  19.971  0.00  0.00    +0.000 A 
ATOM      9  C   UNL     1       1.229   3.268  19.544  0.00  0.00    +0.000 A 
ATOM     10  C   UNL     1       1.022   3.799  18.285  0.00  0.00    +0.000 A 
ATOM     11  C   UNL     1       2.122   4.111  17.480  0.00  0.00    +0.000 A 
ATOM     12  C   UNL     1       3.468   3.928  17.901  0.00  0.00    +0.000 A 
BRANCH   7  14
ATOM     13  C   UNL     1       4.964   1.873  20.478  0.00  0.00    +0.000 C 
ATOM     14  O   UNL     1       4.910   3.022  19.618  0.00  0.00    +0.000 OA
ENDBRANCH   7  14
ENDBRANCH   1  12
BRANCH   6  15
ATOM     15  N   UNL     1       4.577   6.766  17.800  0.00  0.00    +0.000 N 
ATOM     16  H   UNL     1       4.641   6.498  18.779  0.00  0.00    +0.000 HD
BRANCH  15  17
ATOM     17  C   UNL     1       3.394   7.503  17.401  0.00  0.00    +0.000 C 
BRANCH  17  18
ATOM     18  C   UNL     1       2.432   7.887  18.492  0.00  0.00    +0.000 A 
ATOM     19  C   UNL     1       2.352   7.095  19.653  0.00  0.00    +0.000 A 
ATOM     20  C   UNL     1       1.598   7.504  20.742  0.00  0.00    +0.000 A 
ATOM     21  C   UNL     1       0.928   8.712  20.653  0.00  0.00    +0.000 A 
ATOM     22  N   UNL     1       0.957   9.503  19.560  0.00  0.00    +0.000 NA
ATOM     23  C   UNL     1       1.720   9.081  18.513  0.00  0.00    +0.000 A 
ENDBRANCH  17  18
ENDBRANCH  15  17
ENDBRANCH   6  15
TORSDOF 5
ENDMDL
MODEL 6
REMARK VINA RESULT:      -7.5      2.877      6.607
REMARK  Name = 
REMARK  6 active torsions:
REMARK  status: ('A' for Active; 'I' for Inactive)
REMARK    1  A    between atoms: C_1  and  O_2
REMARK    2  A    between atoms: O_2  and  C_3
REMARK    3  A    between atoms: C_8  and  C_9
REMARK    4  A    between atoms: C_14  and  N_15
REMARK    5  A    between atoms: N_15  and  C_16
REMARK    6  A    between atoms: C_16  and  C_17
REMARK                            x       y       z     vdW  Elec       q    Type
REMARK                         _______ _______ _______ _____ _____    ______ ____
ROOT
ATOM      1  C   UNL     1       5.284   4.364  18.580  0.00  0.00    +0.000 A 
ATOM      2  C   UNL     1       5.826   5.125  19.622  0.00  0.00    +0.000 A 
ATOM      3  N   UNL     1       7.085   5.601  19.695  0.00  0.00    +0.000 NA
ATOM      4  C   UNL     1       7.858   5.283  18.659  0.00  0.00    +0.000 A 
ATOM      5  N   UNL     1       7.485   4.554  17.602  0.00  0.00    +0.000 NA
ATOM      6  C   UNL     1       6.213   4.092  17.566  0.00  0.00    +0.000 A 
ENDROOT
BRANCH   1  12
ATOM      7  C   UNL     1       2.759   4.804  18.132  0.00  0.00    +0.000 A 
ATOM      8  C   UNL     1       1.451   4.278  18.064  0.00  0.00    +0.000 A 
ATOM      9  C   UNL     1       1.157   3.003  18.538  0.00  0.00    +0.000 A 
ATOM     10  C   UNL     1       2.161   2.243  19.108  0.00  0.00    +0.000 A 
ATOM     11  C   UNL     1       3.464   2.746  19.156  0.00  0.00    +0.000 A 
ATOM     12  C   UNL     1       3.825   4.014  18.623  0.00  0.00    +0.000 A 
BRANCH   7  14
ATOM     13  C   UNL     1       2.430   7.108  18.465  0.00  0.00    +0.000 C 
ATOM     14  O   UNL     1       3.004   6.072  17.653  0.00  0.00    +0.000 OA
ENDBRANCH   7  14
ENDBRANCH   1  12
BRANCH   6  15
ATOM     15  N   UNL     1       5.846   3.367  16.433  0.00  0.00    +0.000 N 
ATOM     16  H   UNL     1       6.513   2.618  16.256  0.00  0.00    +0.000 HD
BRANCH  15  17
ATOM     17  C   UNL     1       5.307   4.047  15.273  0.00  0.00    +0.000 C 
BRANCH  17  18
ATOM     18  C   UNL     1       6.231   4.230  14.100  0.00  0.00    +0.000 A 
ATOM     19  C   UNL     1       6.013   3.483  12.927  0.00  0.00    +0.000 A 
ATOM     20  C   UNL     1       6.742   3.740  11.776  0.00  0.00    +0.000 A 
ATOM     21  C   UNL     1       7.688   4.749  11.815  0.00  0.00    +0.000 A 
ATOM     22  N   UNL     1       7.949   5.485  12.916  0.00  0.00    +0.000 NA
ATOM     23  C   UNL     1       7.205   5.220  14.026  0.00  0.00    +0.000 A 
ENDBRANCH  17  18
ENDBRANCH  15  17
ENDBRANCH   6  15
TORSDOF 5
ENDMDL
MODEL 7
REMARK VINA RESULT:      -7.4      1.449      2.350
REMARK  Name = 
REMARK  6 active torsions:
REMARK  status: ('A' for Active; 'I' for Inactive)
REMARK    1  A    between atoms: C_1  and  O_2
REMARK    2  A    between atoms: O_2  and  C_3
REMARK    3  A    between atoms: C_8  and  C_9
REMARK    4  A    between atoms: C_14  and  N_15
REMARK    5  A    between atoms: N_15  and  C_16
REMARK    6  A    between atoms: C_16  and  C_17
REMARK                            x       y       z     vdW  Elec       q    Type
REMARK                         _______ _______ _______ _____ _____    ______ ____
ROOT
ATOM      1  C   UNL     1       4.189   4.436  18.413  0.00  0.00    +0.000 A 
ATOM      2  C   UNL     1       3.948   3.343  17.572  0.00  0.00    +0.000 A 
ATOM      3  N   UNL     1       2.813   2.619  17.504  0.00  0.00    +0.000 NA
ATOM      4  C   UNL     1       1.858   3.007  18.345  0.00  0.00    +0.000 A 
ATOM      5  N   UNL     1       1.947   4.020  19.214  0.00  0.00    +0.000 NA
ATOM      6  C   UNL     1       3.104   4.723  19.253  0.00  0.00    +0.000 A 
ENDROOT
BRANCH   1  12
ATOM      7  C   UNL     1       5.819   6.076  17.222  0.00  0.00    +0.000 A 
ATOM      8  C   UNL     1       6.988   6.864  17.304  0.00  0.00    +0.000 A 
ATOM      9  C   UNL     1       7.871   6.744  18.372  0.00  0.00    +0.000 A 
ATOM     10  C   UNL     1       7.611   5.818  19.365  0.00  0.00    +0.000 A 
ATOM     11  C   UNL     1       6.443   5.052  19.305  0.00  0.00    +0.000 A 
ATOM     12  C   UNL     1       5.478   5.189  18.270  0.00  0.00    +0.000 A 
BRANCH   7  14
ATOM     13  C   UNL     1       5.441   5.566  14.959  0.00  0.00    +0.000 C 
ATOM     14  O   UNL     1       4.975   6.228  16.144  0.00  0.00    +0.000 OA
ENDBRANCH   7  14
ENDBRANCH   1  12
BRANCH   6  15
ATOM     15  N   UNL     1       3.150   5.795  20.143  0.00  0.00    +0.000 N 
ATOM     16  H   UNL     1       3.761   5.581  20.929  0.00  0.00    +0.000 HD
BRANCH  15  17
ATOM     17  C   UNL     1       1.951   6.553  20.437  0.00  0.00    +0.000 C 
BRANCH  17  18
ATOM     18  C   UNL     1       1.826   7.906  19.793  0.00  0.00    +0.000 A 
ATOM     19  C   UNL     1       2.276   8.085  18.471  0.00  0.00    +0.000 A 
ATOM     20  C   UNL     1       2.032   9.269  17.791  0.00  0.00    +0.000 A 
ATOM     21  C   UNL     1       1.336  10.267  18.450  0.00  0.00    +0.000 A 
ATOM     22  N   UNL     1       0.895  10.155  19.721  0.00  0.00    +0.000 NA
ATOM     23  C   UNL     1       1.136   8.974  20.356  0.00  0.00    +0.000 A 
ENDBRANCH  17  18
ENDBRANCH  15  17
ENDBRANCH   6  15
TORSDOF 5
ENDMDL
MODEL 8
REMARK VINA RESULT:      -7.3      2.070      4.031
REMARK  Name = 
REMARK  6 active torsions:
REMARK  status: ('A' for Active; 'I' for Inactive)
REMARK    1  A    between atoms: C_1  and  O_2
REMARK    2  A    between atoms: O_2  and  C_3
REMARK    3  A    between atoms: C_8  and  C_9
REMARK    4  A    between atoms: C_14  and  N_15
REMARK    5  A    between atoms: N_15  and  C_16
REMARK    6  A    between atoms: C_16  and  C_17
REMARK                            x       y       z     vdW  Elec       q    Type
REMARK                         _______ _______ _______ _____ _____    ______ ____
ROOT
ATOM      1  C   UNL     1       3.821   4.562  17.717  0.00  0.00    +0.000 A 
ATOM      2  C   UNL     1       4.369   3.708  16.752  0.00  0.00    +0.000 A 
ATOM      3  N   UNL     1       5.180   4.064  15.735  0.00  0.00    +0.000 NA
ATOM      4  C   UNL     1       5.450   5.365  15.672  0.00  0.00    +0.000 A 
ATOM      5  N   UNL     1       4.990   6.300  16.511  0.00  0.00    +0.000 NA
ATOM      6  C   UNL     1       4.177   5.904  17.519  0.00  0.00    +0.000 A 
ENDROOT
BRANCH   1  12
ATOM      7  C   UNL     1       3.531   3.166  19.893  0.00  0.00    +0.000 A 
ATOM      8  C   UNL     1       2.711   2.826  20.990  0.00  0.00    +0.000 A 
ATOM      9  C   UNL     1       1.373   3.204  21.040  0.00  0.00    +0.000 A 
ATOM     10  C   UNL     1       0.827   3.909  19.984  0.00  0.00    +0.000 A 
ATOM     11  C   UNL     1       1.639   4.272  18.905  0.00  0.00    +0.000 A 
ATOM     12  C   UNL     1       3.027   3.967  18.842  0.00  0.00    +0.000 A 
BRANCH   7  14
ATOM     13  C   UNL     1       5.088   1.573  20.644  0.00  0.00    +0.000 C 
ATOM     14  O   UNL     1       4.850   2.769  19.885  0.00  0.00    +0.000 OA
ENDBRANCH   7  14
ENDBRANCH   1  12
BRANCH   6  15
ATOM     15  N   UNL     1       3.745   6.897  18.396  0.00  0.00    +0.000 N 
ATOM     16  H   UNL     1       3.559   6.505  19.317  0.00  0.00    +0.000 HD
BRANCH  15  17
ATOM     17  C   UNL     1       2.846   7.937  17.937  0.00  0.00    +0.000 C 
BRANCH  17  18
ATOM     18  C   UNL     1       1.826   8.439  18.922  0.00  0.00    +0.000 A 
ATOM     19  C   UNL     1       1.752   7.851  20.200  0.00  0.00    +0.000 A 
ATOM     20  C   UNL     1       0.939   8.391  21.184  0.00  0.00    +0.000 A 
ATOM     21  C   UNL     1       0.202   9.521  20.874  0.00  0.00    +0.000 A 
ATOM     22  N   UNL     1       0.223  10.116  19.662  0.00  0.00    +0.000 NA
ATOM     23  C   UNL     1       1.045   9.571  18.721  0.00  0.00    +0.000 A 
ENDBRANCH  17  18
ENDBRANCH  15  17
ENDBRANCH   6  15
TORSDOF 5
ENDMDL
MODEL 9
REMARK VINA RESULT:      -7.3      1.609      1.854
REMARK  Name = 
REMARK  6 active torsions:
REMARK  status: ('A' for Active; 'I' for Inactive)
REMARK    1  A    between atoms: C_1  and  O_2
REMARK    2  A    between atoms: O_2  and  C_3
REMARK    3  A    between atoms: C_8  and  C_9
REMARK    4  A    between atoms: C_14  and  N_15
REMARK    5  A    between atoms: N_15  and  C_16
REMARK    6  A    between atoms: C_16  and  C_17
REMARK                            x       y       z     vdW  Elec       q    Type
REMARK                         _______ _______ _______ _____ _____    ______ ____
ROOT
ATOM      1  C   UNL     1       3.935   4.006  19.526  0.00  0.00    +0.000 A 
ATOM      2  C   UNL     1       3.847   2.698  20.016  0.00  0.00    +0.000 A 
ATOM      3  N   UNL     1       3.015   2.259  20.983  0.00  0.00    +0.000 NA
ATOM      4  C   UNL     1       2.228   3.197  21.503  0.00  0.00    +0.000 A 
ATOM      5  N   UNL     1       2.209   4.486  21.147  0.00  0.00    +0.000 NA
ATOM      6  C   UNL     1       3.060   4.889  20.174  0.00  0.00    +0.000 A 
ENDROOT
BRANCH   1  12
ATOM      7  C   UNL     1       6.169   4.778  18.440  0.00  0.00    +0.000 A 
ATOM      8  C   UNL     1       6.983   4.818  17.288  0.00  0.00    +0.000 A 
ATOM      9  C   UNL     1       6.494   4.443  16.040  0.00  0.00    +0.000 A 
ATOM     10  C   UNL     1       5.176   4.043  15.922  0.00  0.00    +0.000 A 
ATOM     11  C   UNL     1       4.370   3.976  17.062  0.00  0.00    +0.000 A 
ATOM     12  C   UNL     1       4.846   4.284  18.367  0.00  0.00    +0.000 A 
BRANCH   7  14
ATOM     13  C   UNL     1       7.990   5.773  19.545  0.00  0.00    +0.000 C 
ATOM     14  O   UNL     1       6.696   5.161  19.655  0.00  0.00    +0.000 OA
ENDBRANCH   7  14
ENDBRANCH   1  12
BRANCH   6  15
ATOM     15  N   UNL     1       2.989   6.230  19.802  0.00  0.00    +0.000 N 
ATOM     16  H   UNL     1       3.918   6.644  19.777  0.00  0.00    +0.000 HD
BRANCH  15  17
ATOM     17  C   UNL     1       1.915   7.069  20.293  0.00  0.00    +0.000 C 
BRANCH  17  18
ATOM     18  C   UNL     1       1.644   8.342  19.537  0.00  0.00    +0.000 A 
ATOM     19  C   UNL     1       0.988   9.404  20.188  0.00  0.00    +0.000 A 
ATOM     20  C   UNL     1       0.865  10.643  19.578  0.00  0.00    +0.000 A 
ATOM     21  C   UNL     1       1.405  10.804  18.314  0.00  0.00    +0.000 A 
ATOM     22  N   UNL     1       2.031   9.816  17.639  0.00  0.00    +0.000 NA
ATOM     23  C   UNL     1       2.150   8.615  18.272  0.00  0.00    +0.000 A 
ENDBRANCH  17  18
ENDBRANCH  15  17
ENDBRANCH   6  15
TORSDOF 5
ENDMDL
