MODEL 1
REMARK VINA RESULT:      -8.3      0.000      0.000
REMARK  Name = 
REMARK  2 active torsions:
REMARK  status: ('A' for Active; 'I' for Inactive)
REMARK    1  A    between atoms: C_3  and  C_4
REMARK    2  A    between atoms: C_12  and  C_13
REMARK                            x       y       z     vdW  Elec       q    Type
REMARK                         _______ _______ _______ _____ _____    ______ ____
ROOT
ATOM      1  O   UNL     1       3.187   6.189  19.535  0.00  0.00    +0.000 OA
ATOM      2  C   UNL     1       3.568   5.328  18.758  0.00  0.00    +0.000 A 
ATOM      3  C   UNL     1       3.397   3.830  18.941  0.00  0.00    +0.000 A 
ATOM      4  N   UNL     1       3.848   2.960  18.072  0.00  0.00    +0.000 NA
ATOM      5  N   UNL     1       4.490   3.401  16.961  0.00  0.00    +0.000 N 
ATOM      6  C   UNL     1       4.683   4.702  16.672  0.00  0.00    +0.000 A 
ATOM      7  C   UNL     1       5.276   5.395  15.637  0.00  0.00    +0.000 A 
ATOM      8  C   UNL     1       5.160   6.749  16.039  0.00  0.00    +0.000 A 
ATOM      9  N   UNL     1       4.525   6.902  17.203  0.00  0.00    +0.000 NA
ATOM     10  N   UNL     1       4.231   5.626  17.577  0.00  0.00    +0.000 N 
ATOM     11  H   UNL     1       4.887   2.668  16.369  0.00  0.00    +0.000 HD
ENDROOT
BRANCH   7  12
ATOM     12  C   UNL     1       5.904   4.817  14.459  0.00  0.00    +0.000 A 
ATOM     13  C   UNL     1       7.207   5.176  14.077  0.00  0.00    +0.000 A 
ATOM     14  C   UNL     1       7.781   4.644  12.920  0.00  0.00    +0.000 A 
ATOM     15  C   UNL     1       7.068   3.728  12.161  0.00  0.00    +0.000 A 
ATOM     16  F   UNL     1       7.621   3.216  11.054  0.00  0.00    +0.000 F 
ATOM     17  C   UNL     1       5.792   3.329  12.538  0.00  0.00    +0.000 A 
ATOM     18  C   UNL     1       5.208   3.875  13.685  0.00  0.00    +0.000 A 
ENDBRANCH   7  12
BRANCH   3  19
ATOM     19  C   UNL     1       2.710   3.297  20.128  0.00  0.00    +0.000 A 
ATOM     20  C   UNL     1       1.333   3.393  20.480  0.00  0.00    +0.000 A 
ATOM     21  C   UNL     1       1.205   2.742  21.681  0.00  0.00    +0.000 A 
ATOM     22  N   UNL     1       2.450   2.295  21.994  0.00  0.00    +0.000 N 
ATOM     23  N   UNL     1       3.376   2.611  21.080  0.00  0.00    +0.000 NA
ATOM     24  H   UNL     1       2.743   1.770  22.812  0.00  0.00    +0.000 HD
ENDBRANCH   3  19
TORSDOF 2
ENDMDL
MODEL 2
REMARK VINA RESULT:      -8.3      0.050      1.031
REMARK  Name = 
REMARK  2 active torsions:
REMARK  status: ('A' for Active; 'I' for Inactive)
REMARK    1  A    between atoms: C_3  and  C_4
REMARK    2  A    between atoms: C_12  and  C_13
REMARK                            x       y       z     vdW  Elec       q    Type
REMARK                         _______ _______ _______ _____ _____    ______ ____
ROOT
ATOM      1  O   UNL     1       3.252   6.186  19.535  0.00  0.00    +0.000 OA
ATOM      2  C   UNL     1       3.603   5.325  18.745  0.00  0.00    +0.000 A 
ATOM      3  C   UNL     1       3.399   3.829  18.915  0.00  0.00    +0.000 A 
ATOM      4  N   UNL     1       3.818   2.958  18.033  0.00  0.00    +0.000 NA
ATOM      5  N   UNL     1       4.456   3.394  16.918  0.00  0.00    +0.000 N 
ATOM      6  C   UNL     1       4.675   4.694  16.638  0.00  0.00    +0.000 A 
ATOM      7  C   UNL     1       5.270   5.382  15.603  0.00  0.00    +0.000 A 
ATOM      8  C   UNL     1       5.192   6.734  16.018  0.00  0.00    +0.000 A 
ATOM      9  N   UNL     1       4.576   6.892  17.193  0.00  0.00    +0.000 NA
ATOM     10  N   UNL     1       4.257   5.618  17.558  0.00  0.00    +0.000 N 
ATOM     11  H   UNL     1       4.829   2.658  16.313  0.00  0.00    +0.000 HD
ENDROOT
BRANCH   7  12
ATOM     12  C   UNL     1       5.870   4.802  14.411  0.00  0.00    +0.000 A 
ATOM     13  C   UNL     1       5.175   3.869  13.625  0.00  0.00    +0.000 A 
ATOM     14  C   UNL     1       5.779   3.291  12.506  0.00  0.00    +0.000 A 
ATOM     15  C   UNL     1       7.066   3.667  12.152  0.00  0.00    +0.000 A 
ATOM     16  F   UNL     1       7.643   3.115  11.077  0.00  0.00    +0.000 F 
ATOM     17  C   UNL     1       7.761   4.616  12.891  0.00  0.00    +0.000 A 
ATOM     18  C   UNL     1       7.165   5.181  14.022  0.00  0.00    +0.000 A 
ENDBRANCH   7  12
BRANCH   3  19
ATOM     19  C   UNL     1       2.716   3.300  20.107  0.00  0.00    +0.000 A 
ATOM     20  C   UNL     1       1.339   3.396  20.461  0.00  0.00    +0.000 A 
ATOM     21  C   UNL     1       1.215   2.750  21.665  0.00  0.00    +0.000 A 
ATOM     22  N   UNL     1       2.461   2.307  21.978  0.00  0.00    +0.000 N 
ATOM     23  N   UNL     1       3.385   2.621  21.061  0.00  0.00    +0.000 NA
ATOM     24  H   UNL     1       2.757   1.786  22.798  0.00  0.00    +0.000 HD
ENDBRANCH   3  19
TORSDOF 2
ENDMDL
MODEL 3
REMARK VINA RESULT:      -8.1      5.514      7.962
REMARK  Name = 
REMARK  2 active torsions:
REMARK  status: ('A' for Active; 'I' for Inactive)
REMARK    1  A    between atoms: C_3  and  C_4
REMARK    2  A    between atoms: C_12  and  C_13
REMARK                            x       y       z     vdW  Elec       q    Type
REMARK                         _______ _______ _______ _____ _____    ______ ____
ROOT
ATOM      1  O   UNL     1       3.793   5.572  17.247  0.00  0.00    +0.000 OA
ATOM      2  C   UNL     1       3.212   5.775  18.301  0.00  0.00    +0.000 A 
ATOM      3  C   UNL     1       3.001   4.757  19.408  0.00  0.00    +0.000 A 
ATOM      4  N   UNL     1       2.350   5.040  20.508  0.00  0.00    +0.000 NA
ATOM      5  N   UNL     1       1.843   6.286  20.679  0.00  0.00    +0.000 N 
ATOM      6  C   UNL     1       1.985   7.284  19.785  0.00  0.00    +0.000 A 
ATOM      7  C   UNL     1       1.589   8.603  19.724  0.00  0.00    +0.000 A 
ATOM      8  C   UNL     1       2.039   9.023  18.448  0.00  0.00    +0.000 A 
ATOM      9  N   UNL     1       2.687   8.068  17.776  0.00  0.00    +0.000 NA
ATOM     10  N   UNL     1       2.650   7.001  18.622  0.00  0.00    +0.000 N 
ATOM     11  H   UNL     1       1.277   6.414  21.522  0.00  0.00    +0.000 HD
ENDROOT
BRANCH   7  12
ATOM     12  C   UNL     1       0.841   9.329  20.739  0.00  0.00    +0.000 A 
ATOM     13  C   UNL     1       0.814   8.897  22.074  0.00  0.00    +0.000 A 
ATOM     14  C   UNL     1       0.058   9.581  23.029  0.00  0.00    +0.000 A 
ATOM     15  C   UNL     1      -0.646  10.718  22.658  0.00  0.00    +0.000 A 
ATOM     16  F   UNL     1      -1.368  11.375  23.575  0.00  0.00    +0.000 F 
ATOM     17  C   UNL     1      -0.605  11.187  21.351  0.00  0.00    +0.000 A 
ATOM     18  C   UNL     1       0.135  10.492  20.391  0.00  0.00    +0.000 A 
ENDBRANCH   7  12
BRANCH   3  19
ATOM     19  C   UNL     1       3.527   3.389  19.274  0.00  0.00    +0.000 A 
ATOM     20  C   UNL     1       2.978   2.289  18.554  0.00  0.00    +0.000 A 
ATOM     21  C   UNL     1       3.841   1.241  18.752  0.00  0.00    +0.000 A 
ATOM     22  N   UNL     1       4.834   1.724  19.544  0.00  0.00    +0.000 N 
ATOM     23  N   UNL     1       4.675   3.012  19.874  0.00  0.00    +0.000 NA
ATOM     24  H   UNL     1       5.650   1.234  19.900  0.00  0.00    +0.000 HD
ENDBRANCH   3  19
TORSDOF 2
ENDMDL
MODEL 4
REMARK VINA RESULT:      -8.1      5.497      7.936
REMARK  Name = 
REMARK  2 active torsions:
REMARK  status: ('A' for Active; 'I' for Inactive)
REMARK    1  A    between atoms: C_3  and  C_4
REMARK    2  A    between atoms: C_12  and  C_13
REMARK                            x       y       z     vdW  Elec       q    Type
REMARK                         _______ _______ _______ _____ _____    ______ ____
ROOT
ATOM      1  O   UNL     1       3.862   5.574  17.235  0.00  0.00    +0.000 OA
ATOM      2  C   UNL     1       3.257   5.777  18.275  0.00  0.00    +0.000 A 
ATOM      3  C   UNL     1       3.033   4.763  19.383  0.00  0.00    +0.000 A 
ATOM      4  N   UNL     1       2.357   5.045  20.468  0.00  0.00    +0.000 NA
ATOM      5  N   UNL     1       1.835   6.288  20.623  0.00  0.00    +0.000 N 
ATOM      6  C   UNL     1       1.986   7.282  19.726  0.00  0.00    +0.000 A 
ATOM      7  C   UNL     1       1.579   8.597  19.650  0.00  0.00    +0.000 A 
ATOM      8  C   UNL     1       2.051   9.015  18.381  0.00  0.00    +0.000 A 
ATOM      9  N   UNL     1       2.722   8.063  17.727  0.00  0.00    +0.000 NA
ATOM     10  N   UNL     1       2.677   7.000  18.578  0.00  0.00    +0.000 N 
ATOM     11  H   UNL     1       1.251   6.414  21.453  0.00  0.00    +0.000 HD
ENDROOT
BRANCH   7  12
ATOM     12  C   UNL     1       0.803   9.321  20.645  0.00  0.00    +0.000 A 
ATOM     13  C   UNL     1      -0.012  10.407  20.287  0.00  0.00    +0.000 A 
ATOM     14  C   UNL     1      -0.719  11.117  21.259  0.00  0.00    +0.000 A 
ATOM     15  C   UNL     1      -0.638  10.725  22.587  0.00  0.00    +0.000 A 
ATOM     16  F   UNL     1      -1.319  11.405  23.519  0.00  0.00    +0.000 F 
ATOM     17  C   UNL     1       0.133   9.632  22.963  0.00  0.00    +0.000 A 
ATOM     18  C   UNL     1       0.856   8.932  21.993  0.00  0.00    +0.000 A 
ENDBRANCH   7  12
BRANCH   3  19
ATOM     19  C   UNL     1       3.574   3.399  19.267  0.00  0.00    +0.000 A 
ATOM     20  C   UNL     1       3.066   2.299  18.518  0.00  0.00    +0.000 A 
ATOM     21  C   UNL     1       3.927   1.256  18.750  0.00  0.00    +0.000 A 
ATOM     22  N   UNL     1       4.880   1.742  19.589  0.00  0.00    +0.000 N 
ATOM     23  N   UNL     1       4.697   3.027  19.917  0.00  0.00    +0.000 NA
ATOM     24  H   UNL     1       5.682   1.257  19.979  0.00  0.00    +0.000 HD
ENDBRANCH   3  19
TORSDOF 2
ENDMDL
MODEL 5
REMARK VINA RESULT:      -8.0      4.637      7.940
REMARK  Name = 
REMARK  2 active torsions:
REMARK  status: ('A' for Active; 'I' for Inactive)
REMARK    1  A    between atoms: C_3  and  C_4
REMARK    2  A    between atoms: C_12  and  C_13
REMARK                            x       y       z     vdW  Elec       q    Type
REMARK                         _______ _______ _______ _____ _____    ______ ____
ROOT
ATOM      1  O   UNL     1       4.650   3.625  17.926  0.00  0.00    +0.000 OA
ATOM      2  C   UNL     1       4.342   4.805  17.865  0.00  0.00    +0.000 A 
ATOM      3  C   UNL     1       4.850   5.802  16.838  0.00  0.00    +0.000 A 
ATOM      4  N   UNL     1       4.490   7.061  16.844  0.00  0.00    +0.000 NA
ATOM      5  N   UNL     1       3.629   7.503  17.795  0.00  0.00    +0.000 N 
ATOM      6  C   UNL     1       3.089   6.714  18.744  0.00  0.00    +0.000 A 
ATOM      7  C   UNL     1       2.208   6.905  19.787  0.00  0.00    +0.000 A 
ATOM      8  C   UNL     1       2.148   5.631  20.405  0.00  0.00    +0.000 A 
ATOM      9  N   UNL     1       2.897   4.710  19.792  0.00  0.00    +0.000 NA
ATOM     10  N   UNL     1       3.466   5.397  18.762  0.00  0.00    +0.000 N 
ATOM     11  H   UNL     1       3.456   8.511  17.791  0.00  0.00    +0.000 HD
ENDROOT
BRANCH   7  12
ATOM     12  C   UNL     1       1.561   8.155  20.154  0.00  0.00    +0.000 A 
ATOM     13  C   UNL     1       1.277   9.139  19.193  0.00  0.00    +0.000 A 
ATOM     14  C   UNL     1       0.692  10.351  19.568  0.00  0.00    +0.000 A 
ATOM     15  C   UNL     1       0.360  10.569  20.897  0.00  0.00    +0.000 A 
ATOM     16  F   UNL     1      -0.204  11.730  21.254  0.00  0.00    +0.000 F 
ATOM     17  C   UNL     1       0.596   9.596  21.860  0.00  0.00    +0.000 A 
ATOM     18  C   UNL     1       1.199   8.391  21.490  0.00  0.00    +0.000 A 
ENDBRANCH   7  12
BRANCH   3  19
ATOM     19  C   UNL     1       5.787   5.378  15.786  0.00  0.00    +0.000 A 
ATOM     20  C   UNL     1       5.550   4.523  14.672  0.00  0.00    +0.000 A 
ATOM     21  C   UNL     1       6.743   4.438  14.001  0.00  0.00    +0.000 A 
ATOM     22  N   UNL     1       7.617   5.211  14.700  0.00  0.00    +0.000 N 
ATOM     23  N   UNL     1       7.072   5.791  15.777  0.00  0.00    +0.000 NA
ATOM     24  H   UNL     1       8.596   5.388  14.503  0.00  0.00    +0.000 HD
ENDBRANCH   3  19
TORSDOF 2
ENDMDL
MODEL 6
REMARK VINA RESULT:      -8.0      4.630      7.931
REMARK  Name = 
REMARK  2 active torsions:
REMARK  status: ('A' for Active; 'I' for Inactive)
REMARK    1  A    between atoms: C_3  and  C_4
REMARK    2  A    between atoms: C_12  and  C_13
REMARK                            x       y       z     vdW  Elec       q    Type
REMARK                         _______ _______ _______ _____ _____    ______ ____
ROOT
ATOM      1  O   UNL     1       4.644   3.600  17.956  0.00  0.00    +0.000 OA
ATOM      2  C   UNL     1       4.339   4.780  17.893  0.00  0.00    +0.000 A 
ATOM      3  C   UNL     1       4.846   5.774  16.863  0.00  0.00    +0.000 A 
ATOM      4  N   UNL     1       4.488   7.034  16.866  0.00  0.00    +0.000 NA
ATOM      5  N   UNL     1       3.630   7.479  17.817  0.00  0.00    +0.000 N 
ATOM      6  C   UNL     1       3.090   6.694  18.769  0.00  0.00    +0.000 A 
ATOM      7  C   UNL     1       2.212   6.889  19.813  0.00  0.00    +0.000 A 
ATOM      8  C   UNL     1       2.151   5.617  20.435  0.00  0.00    +0.000 A 
ATOM      9  N   UNL     1       2.897   4.694  19.823  0.00  0.00    +0.000 NA
ATOM     10  N   UNL     1       3.466   5.376  18.790  0.00  0.00    +0.000 N 
ATOM     11  H   UNL     1       3.458   8.488  17.810  0.00  0.00    +0.000 HD
ENDROOT
BRANCH   7  12
ATOM     12  C   UNL     1       1.568   8.141  20.178  0.00  0.00    +0.000 A 
ATOM     13  C   UNL     1       1.197   8.412  21.506  0.00  0.00    +0.000 A 
ATOM     14  C   UNL     1       0.543   9.602  21.833  0.00  0.00    +0.000 A 
ATOM     15  C   UNL     1       0.286  10.537  20.842  0.00  0.00    +0.000 A 
ATOM     16  F   UNL     1      -0.338  11.679  21.158  0.00  0.00    +0.000 F 
ATOM     17  C   UNL     1       0.676  10.309  19.528  0.00  0.00    +0.000 A 
ATOM     18  C   UNL     1       1.313   9.111  19.195  0.00  0.00    +0.000 A 
ENDBRANCH   7  12
BRANCH   3  19
ATOM     19  C   UNL     1       5.780   5.346  15.809  0.00  0.00    +0.000 A 
ATOM     20  C   UNL     1       5.544   4.471  14.709  0.00  0.00    +0.000 A 
ATOM     21  C   UNL     1       6.734   4.391  14.031  0.00  0.00    +0.000 A 
ATOM     22  N   UNL     1       7.603   5.183  14.712  0.00  0.00    +0.000 N 
ATOM     23  N   UNL     1       7.060   5.772  15.785  0.00  0.00    +0.000 NA
ATOM     24  H   UNL     1       8.580   5.369  14.506  0.00  0.00    +0.000 HD
ENDBRANCH   3  19
TORSDOF 2
ENDMDL
MODEL 7
REMARK VINA RESULT:      -8.0      3.490      7.332
REMARK  Name = 
REMARK  2 active torsions:
REMARK  status: ('A' for Active; 'I' for Inactive)
REMARK    1  A    between atoms: C_3  and  C_4
REMARK    2  A    between atoms: C_12  and  C_13
REMARK                            x       y       z     vdW  Elec       q    Type
REMARK                         _______ _______ _______ _____ _____    ______ ____
ROOT
ATOM      1  O   UNL     1       5.264   7.193  15.155  0.00  0.00    +0.000 OA
ATOM      2  C   UNL     1       5.064   6.138  15.735  0.00  0.00    +0.000 A 
ATOM      3  C   UNL     1       5.577   4.776  15.301  0.00  0.00    +0.000 A 
ATOM      4  N   UNL     1       5.307   3.680  15.964  0.00  0.00    +0.000 NA
ATOM      5  N   UNL     1       4.546   3.750  17.084  0.00  0.00    +0.000 N 
ATOM      6  C   UNL     1       4.054   4.898  17.587  0.00  0.00    +0.000 A 
ATOM      7  C   UNL     1       3.286   5.235  18.681  0.00  0.00    +0.000 A 
ATOM      8  C   UNL     1       3.104   6.633  18.539  0.00  0.00    +0.000 A 
ATOM      9  N   UNL     1       3.725   7.140  17.471  0.00  0.00    +0.000 NA
ATOM     10  N   UNL     1       4.313   6.053  16.897  0.00  0.00    +0.000 N 
ATOM     11  H   UNL     1       4.306   2.848  17.504  0.00  0.00    +0.000 HD
ENDROOT
BRANCH   7  12
ATOM     12  C   UNL     1       2.767   4.321  19.687  0.00  0.00    +0.000 A 
ATOM     13  C   UNL     1       3.611   3.424  20.363  0.00  0.00    +0.000 A 
ATOM     14  C   UNL     1       3.091   2.525  21.297  0.00  0.00    +0.000 A 
ATOM     15  C   UNL     1       1.734   2.542  21.581  0.00  0.00    +0.000 A 
ATOM     16  F   UNL     1       1.237   1.681  22.480  0.00  0.00    +0.000 F 
ATOM     17  C   UNL     1       0.884   3.444  20.954  0.00  0.00    +0.000 A 
ATOM     18  C   UNL     1       1.399   4.332  20.005  0.00  0.00    +0.000 A 
ENDBRANCH   7  12
BRANCH   3  19
ATOM     19  C   UNL     1       6.405   4.642  14.091  0.00  0.00    +0.000 A 
ATOM     20  C   UNL     1       6.211   3.786  12.968  0.00  0.00    +0.000 A 
ATOM     21  C   UNL     1       7.260   4.035  12.120  0.00  0.00    +0.000 A 
ATOM     22  N   UNL     1       8.013   4.988  12.732  0.00  0.00    +0.000 N 
ATOM     23  N   UNL     1       7.525   5.374  13.917  0.00  0.00    +0.000 NA
ATOM     24  H   UNL     1       8.871   5.420  12.402  0.00  0.00    +0.000 HD
ENDBRANCH   3  19
TORSDOF 2
ENDMDL
MODEL 8
REMARK VINA RESULT:      -7.9      3.489      7.379
REMARK  Name = 
REMARK  2 active torsions:
REMARK  status: ('A' for Active; 'I' for Inactive)
REMARK    1  A    between atoms: C_3  and  C_4
REMARK    2  A    between atoms: C_12  and  C_13
REMARK                            x       y       z     vdW  Elec       q    Type
REMARK                         _______ _______ _______ _____ _____    ______ ____
ROOT
ATOM      1  O   UNL     1       5.251   7.283  15.237  0.00  0.00    +0.000 OA
ATOM      2  C   UNL     1       5.047   6.215  15.792  0.00  0.00    +0.000 A 
ATOM      3  C   UNL     1       5.580   4.866  15.342  0.00  0.00    +0.000 A 
ATOM      4  N   UNL     1       5.306   3.755  15.979  0.00  0.00    +0.000 NA
ATOM      5  N   UNL     1       4.522   3.797  17.085  0.00  0.00    +0.000 N 
ATOM      6  C   UNL     1       4.011   4.932  17.599  0.00  0.00    +0.000 A 
ATOM      7  C   UNL     1       3.219   5.241  18.685  0.00  0.00    +0.000 A 
ATOM      8  C   UNL     1       3.028   6.640  18.565  0.00  0.00    +0.000 A 
ATOM      9  N   UNL     1       3.666   7.173  17.520  0.00  0.00    +0.000 NA
ATOM     10  N   UNL     1       4.274   6.102  16.938  0.00  0.00    +0.000 N 
ATOM     11  H   UNL     1       4.282   2.886  17.483  0.00  0.00    +0.000 HD
ENDROOT
BRANCH   7  12
ATOM     12  C   UNL     1       2.688   4.304  19.663  0.00  0.00    +0.000 A 
ATOM     13  C   UNL     1       1.313   4.243  19.943  0.00  0.00    +0.000 A 
ATOM     14  C   UNL     1       0.824   3.366  20.914  0.00  0.00    +0.000 A 
ATOM     15  C   UNL     1       1.702   2.526  21.583  0.00  0.00    +0.000 A 
ATOM     16  F   UNL     1       1.230   1.683  22.511  0.00  0.00    +0.000 F 
ATOM     17  C   UNL     1       3.061   2.541  21.297  0.00  0.00    +0.000 A 
ATOM     18  C   UNL     1       3.555   3.431  20.340  0.00  0.00    +0.000 A 
ENDBRANCH   7  12
BRANCH   3  19
ATOM     19  C   UNL     1       6.432   4.761  14.147  0.00  0.00    +0.000 A 
ATOM     20  C   UNL     1       6.259   3.938  12.997  0.00  0.00    +0.000 A 
ATOM     21  C   UNL     1       7.327   4.206  12.179  0.00  0.00    +0.000 A 
ATOM     22  N   UNL     1       8.070   5.138  12.832  0.00  0.00    +0.000 N 
ATOM     23  N   UNL     1       7.559   5.493  14.017  0.00  0.00    +0.000 NA
ATOM     24  H   UNL     1       8.936   5.575  12.533  0.00  0.00    +0.000 HD
ENDBRANCH   3  19
TORSDOF 2
ENDMDL
MODEL 9
REMARK VINA RESULT:      -7.7      3.697      7.442
REMARK  Name = 
REMARK  2 active torsions:
REMARK  status: ('A' for Active; 'I' for Inactive)
REMARK    1  A    between atoms: C_3  and  C_4
REMARK    2  A    between atoms: C_12  and  C_13
REMARK                            x       y       z     vdW  Elec       q    Type
REMARK                         _______ _______ _______ _____ _____    ______ ____
ROOT
ATOM      1  O   UNL     1       7.718   5.991  15.915  0.00  0.00    +0.000 OA
ATOM      2  C   UNL     1       6.740   5.303  16.155  0.00  0.00    +0.000 A 
ATOM      3  C   UNL     1       6.013   4.416  15.158  0.00  0.00    +0.000 A 
ATOM      4  N   UNL     1       4.955   3.715  15.482  0.00  0.00    +0.000 NA
ATOM      5  N   UNL     1       4.483   3.772  16.752  0.00  0.00    +0.000 N 
ATOM      6  C   UNL     1       5.051   4.499  17.733  0.00  0.00    +0.000 A 
ATOM      7  C   UNL     1       4.785   4.714  19.068  0.00  0.00    +0.000 A 
ATOM      8  C   UNL     1       5.772   5.654  19.455  0.00  0.00    +0.000 A 
ATOM      9  N   UNL     1       6.608   5.979  18.465  0.00  0.00    +0.000 NA
ATOM     10  N   UNL     1       6.150   5.250  17.408  0.00  0.00    +0.000 N 
ATOM     11  H   UNL     1       3.608   3.267  16.914  0.00  0.00    +0.000 HD
ENDROOT
BRANCH   7  12
ATOM     12  C   UNL     1       3.698   4.128  19.838  0.00  0.00    +0.000 A 
ATOM     13  C   UNL     1       2.479   4.804  20.011  0.00  0.00    +0.000 A 
ATOM     14  C   UNL     1       1.460   4.246  20.787  0.00  0.00    +0.000 A 
ATOM     15  C   UNL     1       1.644   2.998  21.364  0.00  0.00    +0.000 A 
ATOM     16  F   UNL     1       0.665   2.463  22.105  0.00  0.00    +0.000 F 
ATOM     17  C   UNL     1       2.827   2.293  21.177  0.00  0.00    +0.000 A 
ATOM     18  C   UNL     1       3.854   2.858  20.417  0.00  0.00    +0.000 A 
ENDBRANCH   7  12
BRANCH   3  19
ATOM     19  C   UNL     1       6.481   4.319  13.766  0.00  0.00    +0.000 A 
ATOM     20  C   UNL     1       6.108   3.378  12.763  0.00  0.00    +0.000 A 
ATOM     21  C   UNL     1       6.831   3.712  11.646  0.00  0.00    +0.000 A 
ATOM     22  N   UNL     1       7.579   4.792  11.998  0.00  0.00    +0.000 N 
ATOM     23  N   UNL     1       7.390   5.181  13.265  0.00  0.00    +0.000 NA
ATOM     24  H   UNL     1       8.238   5.313  11.429  0.00  0.00    +0.000 HD
ENDBRANCH   3  19
TORSDOF 2
ENDMDL
