MODEL 1
REMARK VINA RESULT:      -8.1      0.000      0.000
REMARK  Name = 
REMARK  7 active torsions:
REMARK  status: ('A' for Active; 'I' for Inactive)
REMARK    1  A    between atoms: C_1  and  N_2
REMARK    2  A    between atoms: C_7  and  C_8
REMARK    3  A    between atoms: C_11  and  N_12
REMARK    4  A    between atoms: N_22  and  C_23
REMARK    5  A    between atoms: C_23  and  C_24
REMARK    6  A    between atoms: C_24  and  C_25
REMARK    7  A    between atoms: C_25  and  O_26
REMARK                            x       y       z     vdW  Elec       q    Type
REMARK                         _______ _______ _______ _____ _____    ______ ____
ROOT
ATOM      1  C   UNL     1      -2.582  13.339  22.667  0.00  0.00    +0.000 C 
ATOM      2  N   UNL     1      -1.694  12.323  22.143  0.00  0.00    +0.000 N 
ATOM      3  C   UNL     1      -0.913  11.581  22.995  0.00  0.00    +0.000 A 
ATOM      4  N   UNL     1      -0.076  10.683  22.619  0.00  0.00    +0.000 NA
ATOM      5  C   UNL     1       0.028  10.414  21.247  0.00  0.00    +0.000 A 
ATOM      6  C   UNL     1       0.887   9.405  20.839  0.00  0.00    +0.000 A 
ATOM      7  C   UNL     1       0.985   9.086  19.493  0.00  0.00    +0.000 A 
ATOM      8  N   UNL     1       0.241   9.721  18.547  0.00  0.00    +0.000 NA
ATOM      9  C   UNL     1      -0.609  10.712  18.939  0.00  0.00    +0.000 A 
ATOM     10  N   UNL     1      -1.434  11.276  17.985  0.00  0.00    +0.000 N 
ATOM     11  C   UNL     1      -0.710  11.095  20.282  0.00  0.00    +0.000 A 
ATOM     12  C   UNL     1      -1.592  12.185  20.762  0.00  0.00    +0.000 A 
ATOM     13  O   UNL     1      -2.158  12.943  19.976  0.00  0.00    +0.000 OA
ATOM     14  H   UNL     1      -1.599  12.278  18.074  0.00  0.00    +0.000 HD
ENDROOT
BRANCH   7  15
ATOM     15  C   UNL     1       1.946   8.060  19.036  0.00  0.00    +0.000 A 
ATOM     16  C   UNL     1       2.218   6.918  19.806  0.00  0.00    +0.000 A 
ATOM     17  C   UNL     1       3.229   6.013  19.453  0.00  0.00    +0.000 A 
ATOM     18  C   UNL     1       4.013   6.188  18.309  0.00  0.00    +0.000 A 
ATOM     19  C   UNL     1       3.693   7.293  17.507  0.00  0.00    +0.000 A 
ATOM     20  C   UNL     1       2.687   8.210  17.859  0.00  0.00    +0.000 A 
BRANCH  18  21
ATOM     21  N   UNL     1       5.041   5.330  17.981  0.00  0.00    +0.000 N 
ATOM     22  C   UNL     1       6.197   5.072  18.854  0.00  0.00    +0.000 C 
ATOM     23  C   UNL     1       7.499   5.488  18.152  0.00  0.00    +0.000 C 
ATOM     24  O   UNL     1       7.637   4.837  16.878  0.00  0.00    +0.000 OA
ATOM     25  C   UNL     1       6.534   5.185  16.022  0.00  0.00    +0.000 C 
ATOM     26  C   UNL     1       5.180   4.770  16.627  0.00  0.00    +0.000 C 
ENDBRANCH  18  21
ENDBRANCH   7  15
BRANCH  10  27
ATOM     27  C   UNL     1      -1.832  10.594  16.778  0.00  0.00    +0.000 C 
BRANCH  27  28
ATOM     28  C   UNL     1      -3.281  10.132  16.848  0.00  0.00    +0.000 C 
BRANCH  28  29
ATOM     29  C   UNL     1      -4.285  11.275  16.785  0.00  0.00    +0.000 C 
BRANCH  29  30
ATOM     30  O   UNL     1      -4.180  12.100  17.936  0.00  0.00    +0.000 OA
ATOM     31  H   UNL     1      -3.691  12.900  17.650  0.00  0.00    +0.000 HD
ENDBRANCH  29  30
ENDBRANCH  28  29
ENDBRANCH  27  28
ENDBRANCH  10  27
TORSDOF 6
ENDMDL
MODEL 2
REMARK VINA RESULT:      -8.0      2.255      9.325
REMARK  Name = 
REMARK  7 active torsions:
REMARK  status: ('A' for Active; 'I' for Inactive)
REMARK    1  A    between atoms: C_1  and  N_2
REMARK    2  A    between atoms: C_7  and  C_8
REMARK    3  A    between atoms: C_11  and  N_12
REMARK    4  A    between atoms: N_22  and  C_23
REMARK    5  A    between atoms: C_23  and  C_24
REMARK    6  A    between atoms: C_24  and  C_25
REMARK    7  A    between atoms: C_25  and  O_26
REMARK                            x       y       z     vdW  Elec       q    Type
REMARK                         _______ _______ _______ _____ _____    ______ ____
ROOT
ATOM      1  C   UNL     1       6.485   4.026  16.136  0.00  0.00    +0.000 C 
ATOM      2  N   UNL     1       5.551   4.977  16.700  0.00  0.00    +0.000 N 
ATOM      3  C   UNL     1       5.360   6.198  16.100  0.00  0.00    +0.000 A 
ATOM      4  N   UNL     1       4.578   7.114  16.545  0.00  0.00    +0.000 NA
ATOM      5  C   UNL     1       3.839   6.840  17.705  0.00  0.00    +0.000 A 
ATOM      6  C   UNL     1       2.949   7.802  18.158  0.00  0.00    +0.000 A 
ATOM      7  C   UNL     1       2.173   7.549  19.280  0.00  0.00    +0.000 A 
ATOM      8  N   UNL     1       2.239   6.366  19.948  0.00  0.00    +0.000 NA
ATOM      9  C   UNL     1       3.109   5.414  19.508  0.00  0.00    +0.000 A 
ATOM     10  N   UNL     1       3.091   4.180  20.130  0.00  0.00    +0.000 N 
ATOM     11  C   UNL     1       3.940   5.640  18.405  0.00  0.00    +0.000 A 
ATOM     12  C   UNL     1       4.926   4.655  17.901  0.00  0.00    +0.000 A 
ATOM     13  O   UNL     1       5.200   3.640  18.540  0.00  0.00    +0.000 OA
ATOM     14  H   UNL     1       3.996   3.726  20.248  0.00  0.00    +0.000 HD
ENDROOT
BRANCH   7  15
ATOM     15  C   UNL     1       1.270   8.591  19.814  0.00  0.00    +0.000 A 
ATOM     16  C   UNL     1       0.859   9.677  19.025  0.00  0.00    +0.000 A 
ATOM     17  C   UNL     1       0.121  10.742  19.561  0.00  0.00    +0.000 A 
ATOM     18  C   UNL     1      -0.259  10.776  20.906  0.00  0.00    +0.000 A 
ATOM     19  C   UNL     1       0.097   9.657  21.674  0.00  0.00    +0.000 A 
ATOM     20  C   UNL     1       0.844   8.590  21.146  0.00  0.00    +0.000 A 
BRANCH  18  21
ATOM     21  N   UNL     1      -0.941  11.842  21.453  0.00  0.00    +0.000 N 
ATOM     22  C   UNL     1      -1.129  12.033  22.900  0.00  0.00    +0.000 C 
ATOM     23  C   UNL     1      -2.625  12.034  23.248  0.00  0.00    +0.000 C 
ATOM     24  O   UNL     1      -3.340  13.018  22.482  0.00  0.00    +0.000 OA
ATOM     25  C   UNL     1      -3.207  12.745  21.076  0.00  0.00    +0.000 C 
ATOM     26  C   UNL     1      -1.735  12.762  20.622  0.00  0.00    +0.000 C 
ENDBRANCH  18  21
ENDBRANCH   7  15
BRANCH  10  27
ATOM     27  C   UNL     1       1.939   3.658  20.824  0.00  0.00    +0.000 C 
BRANCH  27  28
ATOM     28  C   UNL     1       1.180   2.651  19.971  0.00  0.00    +0.000 C 
BRANCH  28  29
ATOM     29  C   UNL     1       1.804   2.428  18.600  0.00  0.00    +0.000 C 
BRANCH  29  30
ATOM     30  O   UNL     1       2.889   1.516  18.684  0.00  0.00    +0.000 OA
ATOM     31  H   UNL     1       2.555   0.668  18.323  0.00  0.00    +0.000 HD
ENDBRANCH  29  30
ENDBRANCH  28  29
ENDBRANCH  27  28
ENDBRANCH  10  27
TORSDOF 6
ENDMDL
MODEL 3
REMARK VINA RESULT:      -7.9      2.197      9.302
REMARK  Name = 
REMARK  7 active torsions:
REMARK  status: ('A' for Active; 'I' for Inactive)
REMARK    1  A    between atoms: C_1  and  N_2
REMARK    2  A    between atoms: C_7  and  C_8
REMARK    3  A    between atoms: C_11  and  N_12
REMARK    4  A    between atoms: N_22  and  C_23
REMARK    5  A    between atoms: C_23  and  C_24
REMARK    6  A    between atoms: C_24  and  C_25
REMARK    7  A    between atoms: C_25  and  O_26
REMARK                            x       y       z     vdW  Elec       q    Type
REMARK                         _______ _______ _______ _____ _____    ______ ____
ROOT
ATOM      1  C   UNL     1       3.829   0.926  18.918  0.00  0.00    +0.000 C 
ATOM      2  N   UNL     1       3.316   2.231  19.278  0.00  0.00    +0.000 N 
ATOM      3  C   UNL     1       2.402   2.357  20.296  0.00  0.00    +0.000 A 
ATOM      4  N   UNL     1       1.871   3.467  20.664  0.00  0.00    +0.000 NA
ATOM      5  C   UNL     1       2.274   4.638  20.006  0.00  0.00    +0.000 A 
ATOM      6  C   UNL     1       1.748   5.846  20.437  0.00  0.00    +0.000 A 
ATOM      7  C   UNL     1       2.154   7.028  19.836  0.00  0.00    +0.000 A 
ATOM      8  N   UNL     1       3.080   7.047  18.840  0.00  0.00    +0.000 NA
ATOM      9  C   UNL     1       3.605   5.865  18.411  0.00  0.00    +0.000 A 
ATOM     10  N   UNL     1       4.619   5.904  17.474  0.00  0.00    +0.000 N 
ATOM     11  C   UNL     1       3.194   4.644  18.961  0.00  0.00    +0.000 A 
ATOM     12  C   UNL     1       3.706   3.327  18.515  0.00  0.00    +0.000 A 
ATOM     13  O   UNL     1       4.395   3.218  17.502  0.00  0.00    +0.000 OA
ATOM     14  H   UNL     1       4.607   5.166  16.771  0.00  0.00    +0.000 HD
ENDROOT
BRANCH   7  15
ATOM     15  C   UNL     1       1.552   8.317  20.238  0.00  0.00    +0.000 A 
ATOM     16  C   UNL     1       1.164   8.560  21.565  0.00  0.00    +0.000 A 
ATOM     17  C   UNL     1       0.464   9.719  21.930  0.00  0.00    +0.000 A 
ATOM     18  C   UNL     1       0.126  10.704  20.997  0.00  0.00    +0.000 A 
ATOM     19  C   UNL     1       0.574  10.488  19.685  0.00  0.00    +0.000 A 
ATOM     20  C   UNL     1       1.268   9.324  19.310  0.00  0.00    +0.000 A 
BRANCH  18  21
ATOM     21  N   UNL     1      -0.605  11.822  21.337  0.00  0.00    +0.000 N 
ATOM     22  C   UNL     1      -0.978  12.164  22.718  0.00  0.00    +0.000 C 
ATOM     23  C   UNL     1      -2.507  12.204  22.864  0.00  0.00    +0.000 C 
ATOM     24  O   UNL     1      -3.099  13.105  21.913  0.00  0.00    +0.000 OA
ATOM     25  C   UNL     1      -2.787  12.687  20.573  0.00  0.00    +0.000 C 
ATOM     26  C   UNL     1      -1.268  12.653  20.317  0.00  0.00    +0.000 C 
ENDBRANCH  18  21
ENDBRANCH   7  15
BRANCH  10  27
ATOM     27  C   UNL     1       5.490   7.040  17.295  0.00  0.00    +0.000 C 
BRANCH  27  28
ATOM     28  C   UNL     1       6.950   6.666  17.512  0.00  0.00    +0.000 C 
BRANCH  28  29
ATOM     29  C   UNL     1       7.152   5.636  18.615  0.00  0.00    +0.000 C 
BRANCH  29  30
ATOM     30  O   UNL     1       7.120   4.319  18.085  0.00  0.00    +0.000 OA
ATOM     31  H   UNL     1       7.074   3.719  18.859  0.00  0.00    +0.000 HD
ENDBRANCH  29  30
ENDBRANCH  28  29
ENDBRANCH  27  28
ENDBRANCH  10  27
TORSDOF 6
ENDMDL
MODEL 4
REMARK VINA RESULT:      -7.9      2.277      9.192
REMARK  Name = 
REMARK  7 active torsions:
REMARK  status: ('A' for Active; 'I' for Inactive)
REMARK    1  A    between atoms: C_1  and  N_2
REMARK    2  A    between atoms: C_7  and  C_8
REMARK    3  A    between atoms: C_11  and  N_12
REMARK    4  A    between atoms: N_22  and  C_23
REMARK    5  A    between atoms: C_23  and  C_24
REMARK    6  A    between atoms: C_24  and  C_25
REMARK    7  A    between atoms: C_25  and  O_26
REMARK                            x       y       z     vdW  Elec       q    Type
REMARK                         _______ _______ _______ _____ _____    ______ ____
ROOT
ATOM      1  C   UNL     1       6.228   3.854  15.922  0.00  0.00    +0.000 C 
ATOM      2  N   UNL     1       5.371   4.867  16.501  0.00  0.00    +0.000 N 
ATOM      3  C   UNL     1       5.211   6.078  15.874  0.00  0.00    +0.000 A 
ATOM      4  N   UNL     1       4.497   7.044  16.328  0.00  0.00    +0.000 NA
ATOM      5  C   UNL     1       3.803   6.841  17.529  0.00  0.00    +0.000 A 
ATOM      6  C   UNL     1       2.984   7.859  17.994  0.00  0.00    +0.000 A 
ATOM      7  C   UNL     1       2.253   7.677  19.158  0.00  0.00    +0.000 A 
ATOM      8  N   UNL     1       2.293   6.511  19.858  0.00  0.00    +0.000 NA
ATOM      9  C   UNL     1       3.092   5.504  19.407  0.00  0.00    +0.000 A 
ATOM     10  N   UNL     1       3.044   4.290  20.066  0.00  0.00    +0.000 N 
ATOM     11  C   UNL     1       3.879   5.658  18.259  0.00  0.00    +0.000 A 
ATOM     12  C   UNL     1       4.790   4.610  17.740  0.00  0.00    +0.000 A 
ATOM     13  O   UNL     1       5.045   3.601  18.395  0.00  0.00    +0.000 OA
ATOM     14  H   UNL     1       3.931   3.795  20.155  0.00  0.00    +0.000 HD
ENDROOT
BRANCH   7  15
ATOM     15  C   UNL     1       1.429   8.777  19.703  0.00  0.00    +0.000 A 
ATOM     16  C   UNL     1       1.176   8.889  21.079  0.00  0.00    +0.000 A 
ATOM     17  C   UNL     1       0.283   9.842  21.591  0.00  0.00    +0.000 A 
ATOM     18  C   UNL     1      -0.395  10.741  20.762  0.00  0.00    +0.000 A 
ATOM     19  C   UNL     1      -0.088  10.669  19.395  0.00  0.00    +0.000 A 
ATOM     20  C   UNL     1       0.799   9.711  18.874  0.00  0.00    +0.000 A 
BRANCH  18  21
ATOM     21  N   UNL     1      -1.312  11.647  21.251  0.00  0.00    +0.000 N 
ATOM     22  C   UNL     1      -1.911  12.718  20.440  0.00  0.00    +0.000 C 
ATOM     23  C   UNL     1      -1.561  14.093  21.030  0.00  0.00    +0.000 C 
ATOM     24  O   UNL     1      -1.953  14.185  22.410  0.00  0.00    +0.000 OA
ATOM     25  C   UNL     1      -1.278  13.179  23.185  0.00  0.00    +0.000 C 
ATOM     26  C   UNL     1      -1.601  11.756  22.691  0.00  0.00    +0.000 C 
ENDBRANCH  18  21
ENDBRANCH   7  15
BRANCH  10  27
ATOM     27  C   UNL     1       1.904   3.847  20.830  0.00  0.00    +0.000 C 
BRANCH  27  28
ATOM     28  C   UNL     1       1.174   2.706  20.135  0.00  0.00    +0.000 C 
BRANCH  28  29
ATOM     29  C   UNL     1       1.827   2.278  18.828  0.00  0.00    +0.000 C 
BRANCH  29  30
ATOM     30  O   UNL     1       1.384   3.095  17.754  0.00  0.00    +0.000 OA
ATOM     31  H   UNL     1       1.337   2.506  16.971  0.00  0.00    +0.000 HD
ENDBRANCH  29  30
ENDBRANCH  28  29
ENDBRANCH  27  28
ENDBRANCH  10  27
TORSDOF 6
ENDMDL
MODEL 5
REMARK VINA RESULT:      -7.8      2.576      9.182
REMARK  Name = 
REMARK  7 active torsions:
REMARK  status: ('A' for Active; 'I' for Inactive)
REMARK    1  A    between atoms: C_1  and  N_2
REMARK    2  A    between atoms: C_7  and  C_8
REMARK    3  A    between atoms: C_11  and  N_12
REMARK    4  A    between atoms: N_22  and  C_23
REMARK    5  A    between atoms: C_23  and  C_24
REMARK    6  A    between atoms: C_24  and  C_25
REMARK    7  A    between atoms: C_25  and  O_26
REMARK                            x       y       z     vdW  Elec       q    Type
REMARK                         _______ _______ _______ _____ _____    ______ ____
ROOT
ATOM      1  C   UNL     1       6.229   3.732  16.068  0.00  0.00    +0.000 C 
ATOM      2  N   UNL     1       5.386   4.800  16.563  0.00  0.00    +0.000 N 
ATOM      3  C   UNL     1       5.324   5.997  15.894  0.00  0.00    +0.000 A 
ATOM      4  N   UNL     1       4.629   7.009  16.274  0.00  0.00    +0.000 NA
ATOM      5  C   UNL     1       3.853   6.874  17.434  0.00  0.00    +0.000 A 
ATOM      6  C   UNL     1       3.056   7.942  17.818  0.00  0.00    +0.000 A 
ATOM      7  C   UNL     1       2.246   7.828  18.938  0.00  0.00    +0.000 A 
ATOM      8  N   UNL     1       2.187   6.684  19.670  0.00  0.00    +0.000 NA
ATOM      9  C   UNL     1       2.964   5.628  19.299  0.00  0.00    +0.000 A 
ATOM     10  N   UNL     1       2.818   4.439  19.987  0.00  0.00    +0.000 N 
ATOM     11  C   UNL     1       3.827   5.711  18.200  0.00  0.00    +0.000 A 
ATOM     12  C   UNL     1       4.718   4.607  17.769  0.00  0.00    +0.000 A 
ATOM     13  O   UNL     1       4.883   3.608  18.466  0.00  0.00    +0.000 OA
ATOM     14  H   UNL     1       3.673   3.907  20.145  0.00  0.00    +0.000 HD
ENDROOT
BRANCH   7  15
ATOM     15  C   UNL     1       1.443   8.981  19.398  0.00  0.00    +0.000 A 
ATOM     16  C   UNL     1       1.235  10.102  18.579  0.00  0.00    +0.000 A 
ATOM     17  C   UNL     1       0.598  11.257  19.054  0.00  0.00    +0.000 A 
ATOM     18  C   UNL     1       0.121  11.353  20.365  0.00  0.00    +0.000 A 
ATOM     19  C   UNL     1       0.271  10.206  21.159  0.00  0.00    +0.000 A 
ATOM     20  C   UNL     1       0.917   9.049  20.693  0.00  0.00    +0.000 A 
BRANCH  18  21
ATOM     21  N   UNL     1      -0.462  12.502  20.855  0.00  0.00    +0.000 N 
ATOM     22  C   UNL     1       0.102  13.848  20.665  0.00  0.00    +0.000 C 
ATOM     23  C   UNL     1       0.427  14.487  22.023  0.00  0.00    +0.000 C 
ATOM     24  O   UNL     1      -0.726  14.509  22.880  0.00  0.00    +0.000 OA
ATOM     25  C   UNL     1      -1.194  13.169  23.116  0.00  0.00    +0.000 C 
ATOM     26  C   UNL     1      -1.584  12.455  21.808  0.00  0.00    +0.000 C 
ENDBRANCH  18  21
ENDBRANCH   7  15
BRANCH  10  27
ATOM     27  C   UNL     1       1.612   4.071  20.688  0.00  0.00    +0.000 C 
BRANCH  27  28
ATOM     28  C   UNL     1       1.132   2.683  20.287  0.00  0.00    +0.000 C 
BRANCH  28  29
ATOM     29  C   UNL     1       1.160   2.446  18.784  0.00  0.00    +0.000 C 
BRANCH  29  30
ATOM     30  O   UNL     1       2.377   1.827  18.394  0.00  0.00    +0.000 OA
ATOM     31  H   UNL     1       2.228   0.861  18.484  0.00  0.00    +0.000 HD
ENDBRANCH  29  30
ENDBRANCH  28  29
ENDBRANCH  27  28
ENDBRANCH  10  27
TORSDOF 6
ENDMDL
MODEL 6
REMARK VINA RESULT:      -7.7      2.249      9.201
REMARK  Name = 
REMARK  7 active torsions:
REMARK  status: ('A' for Active; 'I' for Inactive)
REMARK    1  A    between atoms: C_1  and  N_2
REMARK    2  A    between atoms: C_7  and  C_8
REMARK    3  A    between atoms: C_11  and  N_12
REMARK    4  A    between atoms: N_22  and  C_23
REMARK    5  A    between atoms: C_23  and  C_24
REMARK    6  A    between atoms: C_24  and  C_25
REMARK    7  A    between atoms: C_25  and  O_26
REMARK                            x       y       z     vdW  Elec       q    Type
REMARK                         _______ _______ _______ _____ _____    ______ ____
ROOT
ATOM      1  C   UNL     1       6.243   3.944  16.118  0.00  0.00    +0.000 C 
ATOM      2  N   UNL     1       5.375   4.985  16.627  0.00  0.00    +0.000 N 
ATOM      3  C   UNL     1       5.230   6.162  15.935  0.00  0.00    +0.000 A 
ATOM      4  N   UNL     1       4.507   7.151  16.324  0.00  0.00    +0.000 NA
ATOM      5  C   UNL     1       3.789   7.009  17.520  0.00  0.00    +0.000 A 
ATOM      6  C   UNL     1       2.962   8.049  17.915  0.00  0.00    +0.000 A 
ATOM      7  C   UNL     1       2.206   7.927  19.072  0.00  0.00    +0.000 A 
ATOM      8  N   UNL     1       2.230   6.798  19.830  0.00  0.00    +0.000 NA
ATOM      9  C   UNL     1       3.037   5.769  19.448  0.00  0.00    +0.000 A 
ATOM     10  N   UNL     1       2.974   4.591  20.167  0.00  0.00    +0.000 N 
ATOM     11  C   UNL     1       3.848   5.864  18.311  0.00  0.00    +0.000 A 
ATOM     12  C   UNL     1       4.768   4.791  17.864  0.00  0.00    +0.000 A 
ATOM     13  O   UNL     1       5.008   3.817  18.575  0.00  0.00    +0.000 OA
ATOM     14  H   UNL     1       3.858   4.101  20.299  0.00  0.00    +0.000 HD
ENDROOT
BRANCH   7  15
ATOM     15  C   UNL     1       1.372   9.054  19.542  0.00  0.00    +0.000 A 
ATOM     16  C   UNL     1       0.646   8.975  20.741  0.00  0.00    +0.000 A 
ATOM     17  C   UNL     1      -0.257   9.978  21.125  0.00  0.00    +0.000 A 
ATOM     18  C   UNL     1      -0.474  11.116  20.343  0.00  0.00    +0.000 A 
ATOM     19  C   UNL     1       0.303  11.222  19.180  0.00  0.00    +0.000 A 
ATOM     20  C   UNL     1       1.203  10.217  18.784  0.00  0.00    +0.000 A 
BRANCH  18  21
ATOM     21  N   UNL     1      -1.396  12.082  20.688  0.00  0.00    +0.000 N 
ATOM     22  C   UNL     1      -1.619  12.541  22.068  0.00  0.00    +0.000 C 
ATOM     23  C   UNL     1      -3.067  12.261  22.495  0.00  0.00    +0.000 C 
ATOM     24  O   UNL     1      -4.006  12.849  21.579  0.00  0.00    +0.000 OA
ATOM     25  C   UNL     1      -3.816  12.309  20.260  0.00  0.00    +0.000 C 
ATOM     26  C   UNL     1      -2.396  12.576  19.726  0.00  0.00    +0.000 C 
ENDBRANCH  18  21
ENDBRANCH   7  15
BRANCH  10  27
ATOM     27  C   UNL     1       1.817   4.187  20.928  0.00  0.00    +0.000 C 
BRANCH  27  28
ATOM     28  C   UNL     1       0.835   3.394  20.076  0.00  0.00    +0.000 C 
BRANCH  28  29
ATOM     29  C   UNL     1       1.438   2.130  19.479  0.00  0.00    +0.000 C 
BRANCH  29  30
ATOM     30  O   UNL     1       2.242   2.441  18.350  0.00  0.00    +0.000 OA
ATOM     31  H   UNL     1       2.848   1.679  18.235  0.00  0.00    +0.000 HD
ENDBRANCH  29  30
ENDBRANCH  28  29
ENDBRANCH  27  28
ENDBRANCH  10  27
TORSDOF 6
ENDMDL
MODEL 7
REMARK VINA RESULT:      -7.7      2.348      9.241
REMARK  Name = 
REMARK  7 active torsions:
REMARK  status: ('A' for Active; 'I' for Inactive)
REMARK    1  A    between atoms: C_1  and  N_2
REMARK    2  A    between atoms: C_7  and  C_8
REMARK    3  A    between atoms: C_11  and  N_12
REMARK    4  A    between atoms: N_22  and  C_23
REMARK    5  A    between atoms: C_23  and  C_24
REMARK    6  A    between atoms: C_24  and  C_25
REMARK    7  A    between atoms: C_25  and  O_26
REMARK                            x       y       z     vdW  Elec       q    Type
REMARK                         _______ _______ _______ _____ _____    ______ ____
ROOT
ATOM      1  C   UNL     1       6.347   3.663  15.209  0.00  0.00    +0.000 C 
ATOM      2  N   UNL     1       5.549   4.681  15.858  0.00  0.00    +0.000 N 
ATOM      3  C   UNL     1       5.693   6.000  15.507  0.00  0.00    +0.000 A 
ATOM      4  N   UNL     1       5.051   6.973  16.049  0.00  0.00    +0.000 NA
ATOM      5  C   UNL     1       4.113   6.666  17.044  0.00  0.00    +0.000 A 
ATOM      6  C   UNL     1       3.375   7.705  17.592  0.00  0.00    +0.000 A 
ATOM      7  C   UNL     1       2.410   7.433  18.551  0.00  0.00    +0.000 A 
ATOM      8  N   UNL     1       2.142   6.165  18.962  0.00  0.00    +0.000 NA
ATOM      9  C   UNL     1       2.860   5.137  18.428  0.00  0.00    +0.000 A 
ATOM     10  N   UNL     1       2.508   3.847  18.775  0.00  0.00    +0.000 N 
ATOM     11  C   UNL     1       3.871   5.368  17.487  0.00  0.00    +0.000 A 
ATOM     12  C   UNL     1       4.705   4.295  16.895  0.00  0.00    +0.000 A 
ATOM     13  O   UNL     1       4.676   3.147  17.335  0.00  0.00    +0.000 OA
ATOM     14  H   UNL     1       3.279   3.190  18.890  0.00  0.00    +0.000 HD
ENDROOT
BRANCH   7  15
ATOM     15  C   UNL     1       1.664   8.536  19.192  0.00  0.00    +0.000 A 
ATOM     16  C   UNL     1       1.292   8.478  20.545  0.00  0.00    +0.000 A 
ATOM     17  C   UNL     1       0.463   9.449  21.126  0.00  0.00    +0.000 A 
ATOM     18  C   UNL     1      -0.027  10.536  20.396  0.00  0.00    +0.000 A 
ATOM     19  C   UNL     1       0.402  10.625  19.064  0.00  0.00    +0.000 A 
ATOM     20  C   UNL     1       1.224   9.651  18.472  0.00  0.00    +0.000 A 
BRANCH  18  21
ATOM     21  N   UNL     1      -0.882  11.468  20.946  0.00  0.00    +0.000 N 
ATOM     22  C   UNL     1      -1.848  12.251  20.160  0.00  0.00    +0.000 C 
ATOM     23  C   UNL     1      -1.548  13.751  20.287  0.00  0.00    +0.000 C 
ATOM     24  O   UNL     1      -1.521  14.164  21.664  0.00  0.00    +0.000 OA
ATOM     25  C   UNL     1      -0.503  13.441  22.378  0.00  0.00    +0.000 C 
ATOM     26  C   UNL     1      -0.742  11.920  22.340  0.00  0.00    +0.000 C 
ENDBRANCH  18  21
ENDBRANCH   7  15
BRANCH  10  27
ATOM     27  C   UNL     1       1.187   3.479  19.224  0.00  0.00    +0.000 C 
BRANCH  27  28
ATOM     28  C   UNL     1       1.030   3.679  20.725  0.00  0.00    +0.000 C 
BRANCH  28  29
ATOM     29  C   UNL     1       1.697   2.589  21.553  0.00  0.00    +0.000 C 
BRANCH  29  30
ATOM     30  O   UNL     1       3.097   2.562  21.314  0.00  0.00    +0.000 OA
ATOM     31  H   UNL     1       3.303   3.390  20.831  0.00  0.00    +0.000 HD
ENDBRANCH  29  30
ENDBRANCH  28  29
ENDBRANCH  27  28
ENDBRANCH  10  27
TORSDOF 6
ENDMDL
MODEL 8
REMARK VINA RESULT:      -7.7      1.076      1.430
REMARK  Name = 
REMARK  7 active torsions:
REMARK  status: ('A' for Active; 'I' for Inactive)
REMARK    1  A    between atoms: C_1  and  N_2
REMARK    2  A    between atoms: C_7  and  C_8
REMARK    3  A    between atoms: C_11  and  N_12
REMARK    4  A    between atoms: N_22  and  C_23
REMARK    5  A    between atoms: C_23  and  C_24
REMARK    6  A    between atoms: C_24  and  C_25
REMARK    7  A    between atoms: C_25  and  O_26
REMARK                            x       y       z     vdW  Elec       q    Type
REMARK                         _______ _______ _______ _____ _____    ______ ____
ROOT
ATOM      1  C   UNL     1      -2.736  12.828  22.796  0.00  0.00    +0.000 C 
ATOM      2  N   UNL     1      -1.772  11.877  22.285  0.00  0.00    +0.000 N 
ATOM      3  C   UNL     1      -0.927  11.219  23.145  0.00  0.00    +0.000 A 
ATOM      4  N   UNL     1      -0.022  10.384  22.781  0.00  0.00    +0.000 NA
ATOM      5  C   UNL     1       0.093  10.095  21.413  0.00  0.00    +0.000 A 
ATOM      6  C   UNL     1       1.029   9.151  21.019  0.00  0.00    +0.000 A 
ATOM      7  C   UNL     1       1.142   8.812  19.679  0.00  0.00    +0.000 A 
ATOM      8  N   UNL     1       0.342   9.363  18.727  0.00  0.00    +0.000 NA
ATOM      9  C   UNL     1      -0.583  10.290  19.106  0.00  0.00    +0.000 A 
ATOM     10  N   UNL     1      -1.459  10.764  18.148  0.00  0.00    +0.000 N 
ATOM     11  C   UNL     1      -0.705  10.693  20.441  0.00  0.00    +0.000 A 
ATOM     12  C   UNL     1      -1.670  11.717  20.906  0.00  0.00    +0.000 A 
ATOM     13  O   UNL     1      -2.301  12.410  20.110  0.00  0.00    +0.000 OA
ATOM     14  H   UNL     1      -1.704  11.751  18.217  0.00  0.00    +0.000 HD
ENDROOT
BRANCH   7  15
ATOM     15  C   UNL     1       2.181   7.858  19.235  0.00  0.00    +0.000 A 
ATOM     16  C   UNL     1       2.922   8.076  18.063  0.00  0.00    +0.000 A 
ATOM     17  C   UNL     1       3.806   7.112  17.558  0.00  0.00    +0.000 A 
ATOM     18  C   UNL     1       4.009   5.887  18.198  0.00  0.00    +0.000 A 
ATOM     19  C   UNL     1       3.317   5.701  19.404  0.00  0.00    +0.000 A 
ATOM     20  C   UNL     1       2.422   6.658  19.912  0.00  0.00    +0.000 A 
BRANCH  18  21
ATOM     21  N   UNL     1       4.838   4.913  17.682  0.00  0.00    +0.000 N 
ATOM     22  C   UNL     1       6.235   4.724  18.105  0.00  0.00    +0.000 C 
ATOM     23  C   UNL     1       7.184   4.919  16.913  0.00  0.00    +0.000 C 
ATOM     24  O   UNL     1       6.836   4.053  15.819  0.00  0.00    +0.000 OA
ATOM     25  C   UNL     1       5.496   4.330  15.376  0.00  0.00    +0.000 C 
ATOM     26  C   UNL     1       4.461   4.123  16.498  0.00  0.00    +0.000 C 
ENDBRANCH  18  21
ENDBRANCH   7  15
BRANCH  10  27
ATOM     27  C   UNL     1      -1.809  10.026  16.959  0.00  0.00    +0.000 C 
BRANCH  27  28
ATOM     28  C   UNL     1      -3.002  10.648  16.246  0.00  0.00    +0.000 C 
BRANCH  28  29
ATOM     29  C   UNL     1      -3.046  10.337  14.757  0.00  0.00    +0.000 C 
BRANCH  29  30
ATOM     30  O   UNL     1      -4.360   9.978  14.356  0.00  0.00    +0.000 OA
ATOM     31  H   UNL     1      -4.513   9.078  14.714  0.00  0.00    +0.000 HD
ENDBRANCH  29  30
ENDBRANCH  28  29
ENDBRANCH  27  28
ENDBRANCH  10  27
TORSDOF 6
ENDMDL
MODEL 9
REMARK VINA RESULT:      -7.6      2.459      9.234
REMARK  Name = 
REMARK  7 active torsions:
REMARK  status: ('A' for Active; 'I' for Inactive)
REMARK    1  A    between atoms: C_1  and  N_2
REMARK    2  A    between atoms: C_7  and  C_8
REMARK    3  A    between atoms: C_11  and  N_12
REMARK    4  A    between atoms: N_22  and  C_23
REMARK    5  A    between atoms: C_23  and  C_24
REMARK    6  A    between atoms: C_24  and  C_25
REMARK    7  A    between atoms: C_25  and  O_26
REMARK                            x       y       z     vdW  Elec       q    Type
REMARK                         _______ _______ _______ _____ _____    ______ ____
ROOT
ATOM      1  C   UNL     1       6.405   3.631  15.085  0.00  0.00    +0.000 C 
ATOM      2  N   UNL     1       5.612   4.637  15.759  0.00  0.00    +0.000 N 
ATOM      3  C   UNL     1       5.788   5.967  15.465  0.00  0.00    +0.000 A 
ATOM      4  N   UNL     1       5.153   6.928  16.032  0.00  0.00    +0.000 NA
ATOM      5  C   UNL     1       4.188   6.600  16.996  0.00  0.00    +0.000 A 
ATOM      6  C   UNL     1       3.458   7.630  17.570  0.00  0.00    +0.000 A 
ATOM      7  C   UNL     1       2.469   7.339  18.497  0.00  0.00    +0.000 A 
ATOM      8  N   UNL     1       2.169   6.061  18.852  0.00  0.00    +0.000 NA
ATOM      9  C   UNL     1       2.879   5.042  18.290  0.00  0.00    +0.000 A 
ATOM     10  N   UNL     1       2.496   3.746  18.578  0.00  0.00    +0.000 N 
ATOM     11  C   UNL     1       3.914   5.290  17.381  0.00  0.00    +0.000 A 
ATOM     12  C   UNL     1       4.740   4.226  16.763  0.00  0.00    +0.000 A 
ATOM     13  O   UNL     1       4.681   3.062  17.155  0.00  0.00    +0.000 OA
ATOM     14  H   UNL     1       3.252   3.069  18.682  0.00  0.00    +0.000 HD
ENDROOT
BRANCH   7  15
ATOM     15  C   UNL     1       1.729   8.429  19.167  0.00  0.00    +0.000 A 
ATOM     16  C   UNL     1       1.425   9.626  18.499  0.00  0.00    +0.000 A 
ATOM     17  C   UNL     1       0.851  10.719  19.164  0.00  0.00    +0.000 A 
ATOM     18  C   UNL     1       0.539  10.675  20.526  0.00  0.00    +0.000 A 
ATOM     19  C   UNL     1       0.783   9.455  21.174  0.00  0.00    +0.000 A 
ATOM     20  C   UNL     1       1.366   8.358  20.516  0.00  0.00    +0.000 A 
BRANCH  18  21
ATOM     21  N   UNL     1       0.022  11.761  21.199  0.00  0.00    +0.000 N 
ATOM     22  C   UNL     1      -0.695  11.661  22.481  0.00  0.00    +0.000 C 
ATOM     23  C   UNL     1      -2.131  12.185  22.331  0.00  0.00    +0.000 C 
ATOM     24  O   UNL     1      -2.147  13.527  21.815  0.00  0.00    +0.000 OA
ATOM     25  C   UNL     1      -1.517  13.568  20.523  0.00  0.00    +0.000 C 
ATOM     26  C   UNL     1      -0.053  13.094  20.578  0.00  0.00    +0.000 C 
ENDBRANCH  18  21
ENDBRANCH   7  15
BRANCH  10  27
ATOM     27  C   UNL     1       1.160   3.385  18.985  0.00  0.00    +0.000 C 
BRANCH  27  28
ATOM     28  C   UNL     1       0.930   3.665  20.464  0.00  0.00    +0.000 C 
BRANCH  28  29
ATOM     29  C   UNL     1       1.442   2.558  21.375  0.00  0.00    +0.000 C 
BRANCH  29  30
ATOM     30  O   UNL     1       2.478   3.039  22.219  0.00  0.00    +0.000 OA
ATOM     31  H   UNL     1       2.266   2.710  23.118  0.00  0.00    +0.000 HD
ENDBRANCH  29  30
ENDBRANCH  28  29
ENDBRANCH  27  28
ENDBRANCH  10  27
TORSDOF 6
ENDMDL
