MODEL 1
REMARK VINA RESULT:      -6.9      0.000      0.000
REMARK  Name = 
REMARK  7 active torsions:
REMARK  status: ('A' for Active; 'I' for Inactive)
REMARK    1  A    between atoms: C_1  and  C_2
REMARK    2  A    between atoms: C_2  and  O_3
REMARK    3  A    between atoms: O_3  and  C_4
REMARK    4  A    between atoms: C_7  and  N_8
REMARK    5  A    between atoms: C_9  and  S_10
REMARK    6  A    between atoms: N_11  and  C_12
REMARK    7  A    between atoms: C_14  and  C_15
REMARK                            x       y       z     vdW  Elec       q    Type
REMARK                         _______ _______ _______ _____ _____    ______ ____
ROOT
ATOM      1  N   UNL     1      -0.501  12.287  18.935  0.00  0.00    +0.000 N 
ATOM      2  C   UNL     1       0.438  11.277  18.931  0.00  0.00    +0.000 C 
ATOM      3  N   UNL     1       0.157  10.024  19.118  0.00  0.00    +0.000 NA
ATOM      4  H   UNL     1      -0.181  13.159  18.536  0.00  0.00    +0.000 HD
ENDROOT
BRANCH   1   8
ATOM      5  C   UNL     1      -4.722  12.108  19.030  0.00  0.00    +0.000 A 
ATOM      6  C   UNL     1      -4.030  11.565  17.950  0.00  0.00    +0.000 A 
ATOM      7  C   UNL     1      -2.632  11.572  17.929  0.00  0.00    +0.000 A 
ATOM      8  C   UNL     1      -1.897  12.127  18.980  0.00  0.00    +0.000 A 
ATOM      9  C   UNL     1      -2.604  12.624  20.084  0.00  0.00    +0.000 A 
ATOM     10  C   UNL     1      -4.004  12.640  20.099  0.00  0.00    +0.000 A 
BRANCH   5  11
ATOM     11  O   UNL     1      -6.083  12.076  18.923  0.00  0.00    +0.000 OA
BRANCH  11  13
ATOM     12  C   UNL     1      -7.089  10.075  19.724  0.00  0.00    +0.000 C 
ATOM     13  C   UNL     1      -6.654  10.843  18.491  0.00  0.00    +0.000 C 
ENDBRANCH  11  13
ENDBRANCH   5  11
ENDBRANCH   1   8
BRANCH   3  14
ATOM     14  C   UNL     1       1.174   9.085  19.178  0.00  0.00    +0.000 A 
ATOM     15  C   UNL     1       1.782   8.534  18.036  0.00  0.00    +0.000 A 
ATOM     16  C   UNL     1       2.566   7.500  18.516  0.00  0.00    +0.000 A 
ATOM     17  N   UNL     1       2.386   7.532  19.875  0.00  0.00    +0.000 N 
ATOM     18  N   UNL     1       1.478   8.427  20.290  0.00  0.00    +0.000 NA
ATOM     19  H   UNL     1       2.812   6.935  20.573  0.00  0.00    +0.000 HD
BRANCH  16  20
ATOM     20  C   UNL     1       3.367   6.491  17.835  0.00  0.00    +0.000 A 
ATOM     21  C   UNL     1       3.069   5.128  17.935  0.00  0.00    +0.000 A 
ATOM     22  C   UNL     1       3.843   4.180  17.262  0.00  0.00    +0.000 A 
ATOM     23  C   UNL     1       4.918   4.586  16.475  0.00  0.00    +0.000 A 
ATOM     24  C   UNL     1       5.221   5.939  16.358  0.00  0.00    +0.000 A 
ATOM     25  C   UNL     1       4.451   6.887  17.032  0.00  0.00    +0.000 A 
ENDBRANCH  16  20
ENDBRANCH   3  14
BRANCH   2  26
ATOM     26  S   UNL     1       2.031  11.949  18.538  0.00  0.00    +0.000 S 
ATOM     27  H   UNL     1       2.698  10.791  18.627  0.00  0.00    +0.000 HD
ENDBRANCH   2  26
TORSDOF 6
ENDMDL
MODEL 2
REMARK VINA RESULT:      -6.8      0.342      1.038
REMARK  Name = 
REMARK  7 active torsions:
REMARK  status: ('A' for Active; 'I' for Inactive)
REMARK    1  A    between atoms: C_1  and  C_2
REMARK    2  A    between atoms: C_2  and  O_3
REMARK    3  A    between atoms: O_3  and  C_4
REMARK    4  A    between atoms: C_7  and  N_8
REMARK    5  A    between atoms: C_9  and  S_10
REMARK    6  A    between atoms: N_11  and  C_12
REMARK    7  A    between atoms: C_14  and  C_15
REMARK                            x       y       z     vdW  Elec       q    Type
REMARK                         _______ _______ _______ _____ _____    ______ ____
ROOT
ATOM      1  N   UNL     1      -0.176  12.381  18.712  0.00  0.00    +0.000 N 
ATOM      2  C   UNL     1       0.684  11.303  18.754  0.00  0.00    +0.000 C 
ATOM      3  N   UNL     1       0.315  10.091  19.037  0.00  0.00    +0.000 NA
ATOM      4  H   UNL     1       0.196  13.196  18.243  0.00  0.00    +0.000 HD
ENDROOT
BRANCH   1   8
ATOM      5  C   UNL     1      -4.365  11.937  19.038  0.00  0.00    +0.000 A 
ATOM      6  C   UNL     1      -3.657  12.586  20.047  0.00  0.00    +0.000 A 
ATOM      7  C   UNL     1      -2.279  12.785  19.929  0.00  0.00    +0.000 A 
ATOM      8  C   UNL     1      -1.577  12.334  18.806  0.00  0.00    +0.000 A 
ATOM      9  C   UNL     1      -2.309  11.728  17.776  0.00  0.00    +0.000 A 
ATOM     10  C   UNL     1      -3.687  11.506  17.900  0.00  0.00    +0.000 A 
BRANCH   5  11
ATOM     11  O   UNL     1      -5.699  11.770  19.281  0.00  0.00    +0.000 OA
BRANCH  11  13
ATOM     12  C   UNL     1      -6.962   9.754  19.324  0.00  0.00    +0.000 C 
ATOM     13  C   UNL     1      -6.382  10.843  18.440  0.00  0.00    +0.000 C 
ENDBRANCH  11  13
ENDBRANCH   5  11
ENDBRANCH   1   8
BRANCH   3  14
ATOM     14  C   UNL     1       1.261   9.083  19.137  0.00  0.00    +0.000 A 
ATOM     15  C   UNL     1       1.845   8.463  18.018  0.00  0.00    +0.000 A 
ATOM     16  C   UNL     1       2.544   7.387  18.535  0.00  0.00    +0.000 A 
ATOM     17  N   UNL     1       2.344   7.463  19.889  0.00  0.00    +0.000 N 
ATOM     18  N   UNL     1       1.498   8.431  20.268  0.00  0.00    +0.000 NA
ATOM     19  H   UNL     1       2.714   6.853  20.607  0.00  0.00    +0.000 HD
BRANCH  16  20
ATOM     20  C   UNL     1       3.280   6.306  17.891  0.00  0.00    +0.000 A 
ATOM     21  C   UNL     1       2.830   4.983  17.937  0.00  0.00    +0.000 A 
ATOM     22  C   UNL     1       3.546   3.966  17.301  0.00  0.00    +0.000 A 
ATOM     23  C   UNL     1       4.714   4.264  16.603  0.00  0.00    +0.000 A 
ATOM     24  C   UNL     1       5.169   5.578  16.539  0.00  0.00    +0.000 A 
ATOM     25  C   UNL     1       4.456   6.594  17.177  0.00  0.00    +0.000 A 
ENDBRANCH  16  20
ENDBRANCH   3  14
BRANCH   2  26
ATOM     26  S   UNL     1       2.309  11.821  18.270  0.00  0.00    +0.000 S 
ATOM     27  H   UNL     1       2.648  10.674  17.668  0.00  0.00    +0.000 HD
ENDBRANCH   2  26
TORSDOF 6
ENDMDL
MODEL 3
REMARK VINA RESULT:      -6.7      3.824      9.667
REMARK  Name = 
REMARK  7 active torsions:
REMARK  status: ('A' for Active; 'I' for Inactive)
REMARK    1  A    between atoms: C_1  and  C_2
REMARK    2  A    between atoms: C_2  and  O_3
REMARK    3  A    between atoms: O_3  and  C_4
REMARK    4  A    between atoms: C_7  and  N_8
REMARK    5  A    between atoms: C_9  and  S_10
REMARK    6  A    between atoms: N_11  and  C_12
REMARK    7  A    between atoms: C_14  and  C_15
REMARK                            x       y       z     vdW  Elec       q    Type
REMARK                         _______ _______ _______ _____ _____    ______ ____
ROOT
ATOM      1  N   UNL     1       3.795   6.222  18.752  0.00  0.00    +0.000 N 
ATOM      2  C   UNL     1       2.823   7.199  18.812  0.00  0.00    +0.000 C 
ATOM      3  N   UNL     1       2.560   8.022  17.843  0.00  0.00    +0.000 NA
ATOM      4  H   UNL     1       3.718   5.511  19.466  0.00  0.00    +0.000 HD
ENDROOT
BRANCH   1   8
ATOM      5  C   UNL     1       6.236   4.995  15.529  0.00  0.00    +0.000 A 
ATOM      6  C   UNL     1       5.016   4.361  15.754  0.00  0.00    +0.000 A 
ATOM      7  C   UNL     1       4.175   4.789  16.786  0.00  0.00    +0.000 A 
ATOM      8  C   UNL     1       4.537   5.854  17.618  0.00  0.00    +0.000 A 
ATOM      9  C   UNL     1       5.744   6.516  17.348  0.00  0.00    +0.000 A 
ATOM     10  C   UNL     1       6.599   6.075  16.331  0.00  0.00    +0.000 A 
BRANCH   5  11
ATOM     11  O   UNL     1       6.987   4.466  14.517  0.00  0.00    +0.000 OA
BRANCH  11  13
ATOM     12  C   UNL     1       6.943   4.026  12.180  0.00  0.00    +0.000 C 
ATOM     13  C   UNL     1       6.275   3.746  13.513  0.00  0.00    +0.000 C 
ENDBRANCH  11  13
ENDBRANCH   5  11
ENDBRANCH   1   8
BRANCH   3  14
ATOM     14  C   UNL     1       1.621   9.025  18.019  0.00  0.00    +0.000 A 
ATOM     15  C   UNL     1       0.241   8.828  17.839  0.00  0.00    +0.000 A 
ATOM     16  C   UNL     1      -0.308  10.097  17.886  0.00  0.00    +0.000 A 
ATOM     17  N   UNL     1       0.760  10.927  18.109  0.00  0.00    +0.000 N 
ATOM     18  N   UNL     1       1.949  10.308  18.105  0.00  0.00    +0.000 NA
ATOM     19  H   UNL     1       0.752  11.933  18.221  0.00  0.00    +0.000 HD
BRANCH  16  20
ATOM     20  C   UNL     1      -1.668  10.576  17.675  0.00  0.00    +0.000 A 
ATOM     21  C   UNL     1      -2.390  10.250  16.521  0.00  0.00    +0.000 A 
ATOM     22  C   UNL     1      -3.697  10.711  16.348  0.00  0.00    +0.000 A 
ATOM     23  C   UNL     1      -4.299  11.494  17.329  0.00  0.00    +0.000 A 
ATOM     24  C   UNL     1      -3.598  11.818  18.486  0.00  0.00    +0.000 A 
ATOM     25  C   UNL     1      -2.291  11.361  18.660  0.00  0.00    +0.000 A 
ENDBRANCH  16  20
ENDBRANCH   3  14
BRANCH   2  26
ATOM     26  S   UNL     1       1.950   7.075  20.350  0.00  0.00    +0.000 S 
ATOM     27  H   UNL     1       2.307   8.281  20.811  0.00  0.00    +0.000 HD
ENDBRANCH   2  26
TORSDOF 6
ENDMDL
MODEL 4
REMARK VINA RESULT:      -6.7      4.389      9.838
REMARK  Name = 
REMARK  7 active torsions:
REMARK  status: ('A' for Active; 'I' for Inactive)
REMARK    1  A    between atoms: C_1  and  C_2
REMARK    2  A    between atoms: C_2  and  O_3
REMARK    3  A    between atoms: O_3  and  C_4
REMARK    4  A    between atoms: C_7  and  N_8
REMARK    5  A    between atoms: C_9  and  S_10
REMARK    6  A    between atoms: N_11  and  C_12
REMARK    7  A    between atoms: C_14  and  C_15
REMARK                            x       y       z     vdW  Elec       q    Type
REMARK                         _______ _______ _______ _____ _____    ______ ____
ROOT
ATOM      1  N   UNL     1       3.944   4.401  19.307  0.00  0.00    +0.000 N 
ATOM      2  C   UNL     1       3.065   5.438  19.540  0.00  0.00    +0.000 C 
ATOM      3  N   UNL     1       3.087   6.566  18.898  0.00  0.00    +0.000 NA
ATOM      4  H   UNL     1       3.656   3.513  19.695  0.00  0.00    +0.000 HD
ENDROOT
BRANCH   1   8
ATOM      5  C   UNL     1       6.611   4.386  16.030  0.00  0.00    +0.000 A 
ATOM      6  C   UNL     1       7.040   4.853  17.270  0.00  0.00    +0.000 A 
ATOM      7  C   UNL     1       6.185   4.818  18.375  0.00  0.00    +0.000 A 
ATOM      8  C   UNL     1       4.882   4.322  18.264  0.00  0.00    +0.000 A 
ATOM      9  C   UNL     1       4.480   3.807  17.024  0.00  0.00    +0.000 A 
ATOM     10  C   UNL     1       5.325   3.862  15.909  0.00  0.00    +0.000 A 
BRANCH   5  11
ATOM     11  O   UNL     1       7.521   4.503  15.018  0.00  0.00    +0.000 OA
BRANCH  11  13
ATOM     12  C   UNL     1       7.004   4.142  12.724  0.00  0.00    +0.000 C 
ATOM     13  C   UNL     1       7.072   5.169  13.839  0.00  0.00    +0.000 C 
ENDBRANCH  11  13
ENDBRANCH   5  11
ENDBRANCH   1   8
BRANCH   3  14
ATOM     14  C   UNL     1       2.217   7.585  19.254  0.00  0.00    +0.000 A 
ATOM     15  C   UNL     1       1.827   8.607  18.371  0.00  0.00    +0.000 A 
ATOM     16  C   UNL     1       1.154   9.521  19.162  0.00  0.00    +0.000 A 
ATOM     17  N   UNL     1       1.176   8.972  20.418  0.00  0.00    +0.000 N 
ATOM     18  N   UNL     1       1.891   7.843  20.514  0.00  0.00    +0.000 NA
ATOM     19  H   UNL     1       0.767   9.345  21.266  0.00  0.00    +0.000 HD
BRANCH  16  20
ATOM     20  C   UNL     1       0.589  10.832  18.867  0.00  0.00    +0.000 A 
ATOM     21  C   UNL     1       1.391  11.976  18.795  0.00  0.00    +0.000 A 
ATOM     22  C   UNL     1       0.829  13.219  18.498  0.00  0.00    +0.000 A 
ATOM     23  C   UNL     1      -0.539  13.330  18.260  0.00  0.00    +0.000 A 
ATOM     24  C   UNL     1      -1.348  12.199  18.317  0.00  0.00    +0.000 A 
ATOM     25  C   UNL     1      -0.788  10.957  18.618  0.00  0.00    +0.000 A 
ENDBRANCH  16  20
ENDBRANCH   3  14
BRANCH   2  26
ATOM     26  S   UNL     1       1.872   4.944  20.755  0.00  0.00    +0.000 S 
ATOM     27  H   UNL     1       2.566   3.894  21.214  0.00  0.00    +0.000 HD
ENDBRANCH   2  26
TORSDOF 6
ENDMDL
MODEL 5
REMARK VINA RESULT:      -6.7      4.453      9.916
REMARK  Name = 
REMARK  7 active torsions:
REMARK  status: ('A' for Active; 'I' for Inactive)
REMARK    1  A    between atoms: C_1  and  C_2
REMARK    2  A    between atoms: C_2  and  O_3
REMARK    3  A    between atoms: O_3  and  C_4
REMARK    4  A    between atoms: C_7  and  N_8
REMARK    5  A    between atoms: C_9  and  S_10
REMARK    6  A    between atoms: N_11  and  C_12
REMARK    7  A    between atoms: C_14  and  C_15
REMARK                            x       y       z     vdW  Elec       q    Type
REMARK                         _______ _______ _______ _____ _____    ______ ____
ROOT
ATOM      1  N   UNL     1       3.780   4.948  19.142  0.00  0.00    +0.000 N 
ATOM      2  C   UNL     1       2.925   6.020  19.292  0.00  0.00    +0.000 C 
ATOM      3  N   UNL     1       3.018   7.123  18.615  0.00  0.00    +0.000 NA
ATOM      4  H   UNL     1       3.443   4.083  19.543  0.00  0.00    +0.000 HD
ENDROOT
BRANCH   1   8
ATOM      5  C   UNL     1       6.605   4.724  16.008  0.00  0.00    +0.000 A 
ATOM      6  C   UNL     1       6.974   5.272  17.234  0.00  0.00    +0.000 A 
ATOM      7  C   UNL     1       6.065   5.307  18.295  0.00  0.00    +0.000 A 
ATOM      8  C   UNL     1       4.768   4.803  18.154  0.00  0.00    +0.000 A 
ATOM      9  C   UNL     1       4.427   4.207  16.931  0.00  0.00    +0.000 A 
ATOM     10  C   UNL     1       5.326   4.191  15.858  0.00  0.00    +0.000 A 
BRANCH   5  11
ATOM     11  O   UNL     1       7.564   4.777  15.036  0.00  0.00    +0.000 OA
BRANCH  11  13
ATOM     12  C   UNL     1       8.130   5.494  12.840  0.00  0.00    +0.000 C 
ATOM     13  C   UNL     1       7.099   4.774  13.689  0.00  0.00    +0.000 C 
ENDBRANCH  11  13
ENDBRANCH   5  11
ENDBRANCH   1   8
BRANCH   3  14
ATOM     14  C   UNL     1       2.165   8.180  18.889  0.00  0.00    +0.000 A 
ATOM     15  C   UNL     1       1.819   8.572  20.194  0.00  0.00    +0.000 A 
ATOM     16  C   UNL     1       0.798   9.490  20.030  0.00  0.00    +0.000 A 
ATOM     17  N   UNL     1       0.636   9.587  18.671  0.00  0.00    +0.000 N 
ATOM     18  N   UNL     1       1.393   8.737  17.964  0.00  0.00    +0.000 NA
ATOM     19  H   UNL     1      -0.011  10.177  18.163  0.00  0.00    +0.000 HD
BRANCH  16  20
ATOM     20  C   UNL     1      -0.046  10.189  20.991  0.00  0.00    +0.000 A 
ATOM     21  C   UNL     1      -0.211   9.720  22.299  0.00  0.00    +0.000 A 
ATOM     22  C   UNL     1      -1.014  10.414  23.206  0.00  0.00    +0.000 A 
ATOM     23  C   UNL     1      -1.653  11.590  22.819  0.00  0.00    +0.000 A 
ATOM     24  C   UNL     1      -1.490  12.075  21.525  0.00  0.00    +0.000 A 
ATOM     25  C   UNL     1      -0.690  11.380  20.616  0.00  0.00    +0.000 A 
ENDBRANCH  16  20
ENDBRANCH   3  14
BRANCH   2  26
ATOM     26  S   UNL     1       1.655   5.607  20.458  0.00  0.00    +0.000 S 
ATOM     27  H   UNL     1       1.336   6.869  20.773  0.00  0.00    +0.000 HD
ENDBRANCH   2  26
TORSDOF 6
ENDMDL
MODEL 6
REMARK VINA RESULT:      -6.7      3.765      9.605
REMARK  Name = 
REMARK  7 active torsions:
REMARK  status: ('A' for Active; 'I' for Inactive)
REMARK    1  A    between atoms: C_1  and  C_2
REMARK    2  A    between atoms: C_2  and  O_3
REMARK    3  A    between atoms: O_3  and  C_4
REMARK    4  A    between atoms: C_7  and  N_8
REMARK    5  A    between atoms: C_9  and  S_10
REMARK    6  A    between atoms: N_11  and  C_12
REMARK    7  A    between atoms: C_14  and  C_15
REMARK                            x       y       z     vdW  Elec       q    Type
REMARK                         _______ _______ _______ _____ _____    ______ ____
ROOT
ATOM      1  N   UNL     1       3.774   6.118  19.000  0.00  0.00    +0.000 N 
ATOM      2  C   UNL     1       2.816   7.111  18.979  0.00  0.00    +0.000 C 
ATOM      3  N   UNL     1       2.624   7.913  17.978  0.00  0.00    +0.000 NA
ATOM      4  H   UNL     1       3.644   5.425  19.725  0.00  0.00    +0.000 HD
ENDROOT
BRANCH   1   8
ATOM      5  C   UNL     1       5.965   4.996  15.566  0.00  0.00    +0.000 A 
ATOM      6  C   UNL     1       6.415   6.047  16.362  0.00  0.00    +0.000 A 
ATOM      7  C   UNL     1       5.729   6.396  17.528  0.00  0.00    +0.000 A 
ATOM      8  C   UNL     1       4.575   5.710  17.920  0.00  0.00    +0.000 A 
ATOM      9  C   UNL     1       4.161   4.622  17.138  0.00  0.00    +0.000 A 
ATOM     10  C   UNL     1       4.833   4.284  15.957  0.00  0.00    +0.000 A 
BRANCH   5  11
ATOM     11  O   UNL     1       6.696   4.770  14.434  0.00  0.00    +0.000 OA
BRANCH  11  13
ATOM     12  C   UNL     1       6.884   3.987  12.196  0.00  0.00    +0.000 C 
ATOM     13  C   UNL     1       6.167   3.811  13.521  0.00  0.00    +0.000 C 
ENDBRANCH  11  13
ENDBRANCH   5  11
ENDBRANCH   1   8
BRANCH   3  14
ATOM     14  C   UNL     1       1.693   8.935  18.075  0.00  0.00    +0.000 A 
ATOM     15  C   UNL     1       0.310   8.733  17.919  0.00  0.00    +0.000 A 
ATOM     16  C   UNL     1      -0.229  10.006  17.863  0.00  0.00    +0.000 A 
ATOM     17  N   UNL     1       0.846  10.844  18.011  0.00  0.00    +0.000 N 
ATOM     18  N   UNL     1       2.031  10.218  18.052  0.00  0.00    +0.000 NA
ATOM     19  H   UNL     1       0.846  11.856  18.039  0.00  0.00    +0.000 HD
BRANCH  16  20
ATOM     20  C   UNL     1      -1.587  10.477  17.620  0.00  0.00    +0.000 A 
ATOM     21  C   UNL     1      -2.308  10.082  16.488  0.00  0.00    +0.000 A 
ATOM     22  C   UNL     1      -3.613  10.536  16.283  0.00  0.00    +0.000 A 
ATOM     23  C   UNL     1      -4.214  11.381  17.212  0.00  0.00    +0.000 A 
ATOM     24  C   UNL     1      -3.513  11.774  18.349  0.00  0.00    +0.000 A 
ATOM     25  C   UNL     1      -2.208  11.324  18.553  0.00  0.00    +0.000 A 
ENDBRANCH  16  20
ENDBRANCH   3  14
BRANCH   2  26
ATOM     26  S   UNL     1       1.853   7.038  20.466  0.00  0.00    +0.000 S 
ATOM     27  H   UNL     1       1.908   8.350  20.734  0.00  0.00    +0.000 HD
ENDBRANCH   2  26
TORSDOF 6
ENDMDL
MODEL 7
REMARK VINA RESULT:      -6.6      0.437      1.447
REMARK  Name = 
REMARK  7 active torsions:
REMARK  status: ('A' for Active; 'I' for Inactive)
REMARK    1  A    between atoms: C_1  and  C_2
REMARK    2  A    between atoms: C_2  and  O_3
REMARK    3  A    between atoms: O_3  and  C_4
REMARK    4  A    between atoms: C_7  and  N_8
REMARK    5  A    between atoms: C_9  and  S_10
REMARK    6  A    between atoms: N_11  and  C_12
REMARK    7  A    between atoms: C_14  and  C_15
REMARK                            x       y       z     vdW  Elec       q    Type
REMARK                         _______ _______ _______ _____ _____    ______ ____
ROOT
ATOM      1  N   UNL     1      -0.652  12.439  18.954  0.00  0.00    +0.000 N 
ATOM      2  C   UNL     1       0.295  11.436  18.982  0.00  0.00    +0.000 C 
ATOM      3  N   UNL     1       0.010  10.170  19.011  0.00  0.00    +0.000 NA
ATOM      4  H   UNL     1      -0.295  13.345  18.684  0.00  0.00    +0.000 HD
ENDROOT
BRANCH   1   8
ATOM      5  C   UNL     1      -4.777  11.637  18.516  0.00  0.00    +0.000 A 
ATOM      6  C   UNL     1      -4.318  12.301  19.651  0.00  0.00    +0.000 A 
ATOM      7  C   UNL     1      -2.963  12.618  19.786  0.00  0.00    +0.000 A 
ATOM      8  C   UNL     1      -2.038  12.272  18.796  0.00  0.00    +0.000 A 
ATOM      9  C   UNL     1      -2.521  11.650  17.636  0.00  0.00    +0.000 A 
ATOM     10  C   UNL     1      -3.874  11.311  17.507  0.00  0.00    +0.000 A 
BRANCH   5  11
ATOM     11  O   UNL     1      -6.113  11.351  18.512  0.00  0.00    +0.000 OA
BRANCH  11  13
ATOM     12  C   UNL     1      -7.340  10.298  20.257  0.00  0.00    +0.000 C 
ATOM     13  C   UNL     1      -6.487  10.074  19.023  0.00  0.00    +0.000 C 
ENDBRANCH  11  13
ENDBRANCH   5  11
ENDBRANCH   1   8
BRANCH   3  14
ATOM     14  C   UNL     1       1.025   9.233  19.120  0.00  0.00    +0.000 A 
ATOM     15  C   UNL     1       1.643   8.634  18.008  0.00  0.00    +0.000 A 
ATOM     16  C   UNL     1       2.420   7.619  18.537  0.00  0.00    +0.000 A 
ATOM     17  N   UNL     1       2.226   7.707  19.892  0.00  0.00    +0.000 N 
ATOM     18  N   UNL     1       1.317   8.620  20.261  0.00  0.00    +0.000 NA
ATOM     19  H   UNL     1       2.644   7.138  20.618  0.00  0.00    +0.000 HD
BRANCH  16  20
ATOM     20  C   UNL     1       3.224   6.581  17.907  0.00  0.00    +0.000 A 
ATOM     21  C   UNL     1       4.427   6.878  17.257  0.00  0.00    +0.000 A 
ATOM     22  C   UNL     1       5.188   5.864  16.671  0.00  0.00    +0.000 A 
ATOM     23  C   UNL     1       4.760   4.541  16.738  0.00  0.00    +0.000 A 
ATOM     24  C   UNL     1       3.571   4.227  17.390  0.00  0.00    +0.000 A 
ATOM     25  C   UNL     1       2.808   5.240  17.973  0.00  0.00    +0.000 A 
ENDBRANCH  16  20
ENDBRANCH   3  14
BRANCH   2  26
ATOM     26  S   UNL     1       1.915  12.147  18.871  0.00  0.00    +0.000 S 
ATOM     27  H   UNL     1       1.756  12.670  17.648  0.00  0.00    +0.000 HD
ENDBRANCH   2  26
TORSDOF 6
ENDMDL
MODEL 8
REMARK VINA RESULT:      -6.6      0.815      1.418
REMARK  Name = 
REMARK  7 active torsions:
REMARK  status: ('A' for Active; 'I' for Inactive)
REMARK    1  A    between atoms: C_1  and  C_2
REMARK    2  A    between atoms: C_2  and  O_3
REMARK    3  A    between atoms: O_3  and  C_4
REMARK    4  A    between atoms: C_7  and  N_8
REMARK    5  A    between atoms: C_9  and  S_10
REMARK    6  A    between atoms: N_11  and  C_12
REMARK    7  A    between atoms: C_14  and  C_15
REMARK                            x       y       z     vdW  Elec       q    Type
REMARK                         _______ _______ _______ _____ _____    ______ ____
ROOT
ATOM      1  N   UNL     1      -0.427  12.169  18.393  0.00  0.00    +0.000 N 
ATOM      2  C   UNL     1       0.527  11.183  18.531  0.00  0.00    +0.000 C 
ATOM      3  N   UNL     1       0.253   9.921  18.662  0.00  0.00    +0.000 NA
ATOM      4  H   UNL     1      -0.071  13.053  18.056  0.00  0.00    +0.000 HD
ENDROOT
BRANCH   1   8
ATOM      5  C   UNL     1      -4.526  11.284  17.876  0.00  0.00    +0.000 A 
ATOM      6  C   UNL     1      -4.089  11.870  19.062  0.00  0.00    +0.000 A 
ATOM      7  C   UNL     1      -2.744  12.215  19.227  0.00  0.00    +0.000 A 
ATOM      8  C   UNL     1      -1.807  11.975  18.217  0.00  0.00    +0.000 A 
ATOM      9  C   UNL     1      -2.270  11.432  17.010  0.00  0.00    +0.000 A 
ATOM     10  C   UNL     1      -3.612  11.064  16.849  0.00  0.00    +0.000 A 
BRANCH   5  11
ATOM     11  O   UNL     1      -5.853  10.960  17.844  0.00  0.00    +0.000 OA
BRANCH  11  13
ATOM     12  C   UNL     1      -7.329  12.813  17.636  0.00  0.00    +0.000 C 
ATOM     13  C   UNL     1      -6.727  11.802  18.592  0.00  0.00    +0.000 C 
ENDBRANCH  11  13
ENDBRANCH   5  11
ENDBRANCH   1   8
BRANCH   3  14
ATOM     14  C   UNL     1       1.272   9.007  18.875  0.00  0.00    +0.000 A 
ATOM     15  C   UNL     1       1.984   8.390  17.832  0.00  0.00    +0.000 A 
ATOM     16  C   UNL     1       2.736   7.406  18.449  0.00  0.00    +0.000 A 
ATOM     17  N   UNL     1       2.436   7.527  19.781  0.00  0.00    +0.000 N 
ATOM     18  N   UNL     1       1.486   8.432  20.052  0.00  0.00    +0.000 NA
ATOM     19  H   UNL     1       2.807   6.987  20.553  0.00  0.00    +0.000 HD
BRANCH  16  20
ATOM     20  C   UNL     1       3.605   6.366  17.912  0.00  0.00    +0.000 A 
ATOM     21  C   UNL     1       3.552   5.050  18.383  0.00  0.00    +0.000 A 
ATOM     22  C   UNL     1       4.386   4.069  17.843  0.00  0.00    +0.000 A 
ATOM     23  C   UNL     1       5.276   4.390  16.821  0.00  0.00    +0.000 A 
ATOM     24  C   UNL     1       5.332   5.693  16.334  0.00  0.00    +0.000 A 
ATOM     25  C   UNL     1       4.502   6.676  16.875  0.00  0.00    +0.000 A 
ENDBRANCH  16  20
ENDBRANCH   3  14
BRANCH   2  26
ATOM     26  S   UNL     1       2.144  11.898  18.398  0.00  0.00    +0.000 S 
ATOM     27  H   UNL     1       2.421  11.863  19.709  0.00  0.00    +0.000 HD
ENDBRANCH   2  26
TORSDOF 6
ENDMDL
MODEL 9
REMARK VINA RESULT:      -6.6      3.693      9.519
REMARK  Name = 
REMARK  7 active torsions:
REMARK  status: ('A' for Active; 'I' for Inactive)
REMARK    1  A    between atoms: C_1  and  C_2
REMARK    2  A    between atoms: C_2  and  O_3
REMARK    3  A    between atoms: O_3  and  C_4
REMARK    4  A    between atoms: C_7  and  N_8
REMARK    5  A    between atoms: C_9  and  S_10
REMARK    6  A    between atoms: N_11  and  C_12
REMARK    7  A    between atoms: C_14  and  C_15
REMARK                            x       y       z     vdW  Elec       q    Type
REMARK                         _______ _______ _______ _____ _____    ______ ____
ROOT
ATOM      1  N   UNL     1       3.431   6.264  19.078  0.00  0.00    +0.000 N 
ATOM      2  C   UNL     1       2.490   7.272  19.046  0.00  0.00    +0.000 C 
ATOM      3  N   UNL     1       2.251   8.009  18.004  0.00  0.00    +0.000 NA
ATOM      4  H   UNL     1       3.333   5.625  19.855  0.00  0.00    +0.000 HD
ENDROOT
BRANCH   1   8
ATOM      5  C   UNL     1       5.853   4.726  15.977  0.00  0.00    +0.000 A 
ATOM      6  C   UNL     1       4.760   3.991  16.430  0.00  0.00    +0.000 A 
ATOM      7  C   UNL     1       3.920   4.510  17.420  0.00  0.00    +0.000 A 
ATOM      8  C   UNL     1       4.158   5.768  17.984  0.00  0.00    +0.000 A 
ATOM      9  C   UNL     1       5.231   6.518  17.483  0.00  0.00    +0.000 A 
ATOM     10  C   UNL     1       6.089   5.993  16.508  0.00  0.00    +0.000 A 
BRANCH   5  11
ATOM     11  O   UNL     1       6.620   4.103  15.034  0.00  0.00    +0.000 OA
BRANCH  11  13
ATOM     12  C   UNL     1       5.754   3.780  12.843  0.00  0.00    +0.000 C 
ATOM     13  C   UNL     1       6.602   4.673  13.728  0.00  0.00    +0.000 C 
ENDBRANCH  11  13
ENDBRANCH   5  11
ENDBRANCH   1   8
BRANCH   3  14
ATOM     14  C   UNL     1       1.344   9.053  18.086  0.00  0.00    +0.000 A 
ATOM     15  C   UNL     1      -0.037   8.892  17.877  0.00  0.00    +0.000 A 
ATOM     16  C   UNL     1      -0.541  10.179  17.824  0.00  0.00    +0.000 A 
ATOM     17  N   UNL     1       0.551  10.985  18.024  0.00  0.00    +0.000 N 
ATOM     18  N   UNL     1       1.716  10.327  18.097  0.00  0.00    +0.000 NA
ATOM     19  H   UNL     1       0.576  11.996  18.069  0.00  0.00    +0.000 HD
BRANCH  16  20
ATOM     20  C   UNL     1      -1.876  10.690  17.540  0.00  0.00    +0.000 A 
ATOM     21  C   UNL     1      -2.613  11.389  18.502  0.00  0.00    +0.000 A 
ATOM     22  C   UNL     1      -3.885  11.881  18.201  0.00  0.00    +0.000 A 
ATOM     23  C   UNL     1      -4.430  11.687  16.934  0.00  0.00    +0.000 A 
ATOM     24  C   UNL     1      -3.704  11.002  15.964  0.00  0.00    +0.000 A 
ATOM     25  C   UNL     1      -2.434  10.507  16.264  0.00  0.00    +0.000 A 
ENDBRANCH  16  20
ENDBRANCH   3  14
BRANCH   2  26
ATOM     26  S   UNL     1       1.617   7.320  20.589  0.00  0.00    +0.000 S 
ATOM     27  H   UNL     1       2.215   8.424  21.054  0.00  0.00    +0.000 HD
ENDBRANCH   2  26
TORSDOF 6
ENDMDL
