MODEL 1
REMARK VINA RESULT:      -8.2      0.000      0.000
REMARK  Name = 
REMARK  4 active torsions:
REMARK  status: ('A' for Active; 'I' for Inactive)
REMARK    1  A    between atoms: C_2  and  C_3
REMARK    2  A    between atoms: N_5  and  C_6
REMARK    3  A    between atoms: C_25  and  C_26
REMARK    4  A    between atoms: C_26  and  C_27
REMARK                            x       y       z     vdW  Elec       q    Type
REMARK                         _______ _______ _______ _____ _____    ______ ____
ROOT
ATOM      1  C   UNL     1       0.243  10.300  20.141  0.00  0.00    +0.000 A 
ATOM      2  C   UNL     1       0.888  11.393  20.593  0.00  0.00    +0.000 A 
ATOM      3  N   UNL     1       0.847  12.630  19.980  0.00  0.00    +0.000 N 
ATOM      4  C   UNL     1      -0.011  12.895  18.901  0.00  0.00    +0.000 A 
ATOM      5  O   UNL     1      -0.079  13.972  18.318  0.00  0.00    +0.000 OA
ATOM      6  C   UNL     1      -0.881  11.768  18.465  0.00  0.00    +0.000 A 
ATOM      7  C   UNL     1      -1.806  11.999  17.433  0.00  0.00    +0.000 A 
ATOM      8  C   UNL     1      -2.677  10.991  17.034  0.00  0.00    +0.000 A 
ATOM      9  C   UNL     1      -2.641   9.762  17.684  0.00  0.00    +0.000 A 
ATOM     10  C   UNL     1      -1.709   9.526  18.702  0.00  0.00    +0.000 A 
ATOM     11  C   UNL     1      -0.786  10.512  19.093  0.00  0.00    +0.000 A 
ENDROOT
BRANCH   1  13
ATOM     12  O   UNL     1      -0.001   8.601  21.775  0.00  0.00    +0.000 OA
ATOM     13  C   UNL     1       0.572   8.947  20.745  0.00  0.00    +0.000 C 
ATOM     14  N   UNL     1       1.463   8.083  20.088  0.00  0.00    +0.000 N 
ATOM     15  C   UNL     1       2.291   8.398  18.922  0.00  0.00    +0.000 C 
ATOM     16  C   UNL     1       2.275   7.304  17.879  0.00  0.00    +0.000 C 
ATOM     17  C   UNL     1       2.706   5.958  18.458  0.00  0.00    +0.000 C 
ATOM     18  C   UNL     1       1.818   5.650  19.678  0.00  0.00    +0.000 C 
ATOM     19  C   UNL     1       1.764   6.787  20.709  0.00  0.00    +0.000 C 
BRANCH  17  20
ATOM     20  C   UNL     1       4.214   5.894  18.802  0.00  0.00    +0.000 C 
BRANCH  20  21
ATOM     21  C   UNL     1       5.088   5.456  17.645  0.00  0.00    +0.000 A 
ATOM     22  C   UNL     1       6.384   5.970  17.493  0.00  0.00    +0.000 A 
ATOM     23  C   UNL     1       7.157   5.629  16.381  0.00  0.00    +0.000 A 
ATOM     24  C   UNL     1       6.650   4.761  15.416  0.00  0.00    +0.000 A 
ATOM     25  C   UNL     1       5.379   4.215  15.575  0.00  0.00    +0.000 A 
ATOM     26  C   UNL     1       4.605   4.555  16.685  0.00  0.00    +0.000 A 
ENDBRANCH  20  21
ENDBRANCH  17  20
ENDBRANCH   1  13
BRANCH   3  27
ATOM     27  C   UNL     1       1.778  13.645  20.357  0.00  0.00    +0.000 A 
ATOM     28  C   UNL     1       1.513  14.413  21.493  0.00  0.00    +0.000 A 
ATOM     29  C   UNL     1       2.428  15.380  21.910  0.00  0.00    +0.000 A 
ATOM     30  C   UNL     1       3.591  15.603  21.169  0.00  0.00    +0.000 A 
ATOM     31  F   UNL     1       4.453  16.542  21.574  0.00  0.00    +0.000 F 
ATOM     32  C   UNL     1       3.863  14.864  20.028  0.00  0.00    +0.000 A 
ATOM     33  C   UNL     1       2.962  13.882  19.631  0.00  0.00    +0.000 A 
ATOM     34  F   UNL     1       3.227  13.189  18.515  0.00  0.00    +0.000 F 
ENDBRANCH   3  27
TORSDOF 4
ENDMDL
MODEL 2
REMARK VINA RESULT:      -8.0      0.826      1.188
REMARK  Name = 
REMARK  4 active torsions:
REMARK  status: ('A' for Active; 'I' for Inactive)
REMARK    1  A    between atoms: C_2  and  C_3
REMARK    2  A    between atoms: N_5  and  C_6
REMARK    3  A    between atoms: C_25  and  C_26
REMARK    4  A    between atoms: C_26  and  C_27
REMARK                            x       y       z     vdW  Elec       q    Type
REMARK                         _______ _______ _______ _____ _____    ______ ____
ROOT
ATOM      1  C   UNL     1       0.242  10.288  20.174  0.00  0.00    +0.000 A 
ATOM      2  C   UNL     1       0.864  11.371  20.679  0.00  0.00    +0.000 A 
ATOM      3  N   UNL     1       0.836  12.625  20.100  0.00  0.00    +0.000 N 
ATOM      4  C   UNL     1       0.014  12.916  19.000  0.00  0.00    +0.000 A 
ATOM      5  O   UNL     1      -0.041  14.009  18.446  0.00  0.00    +0.000 OA
ATOM      6  C   UNL     1      -0.833  11.797  18.503  0.00  0.00    +0.000 A 
ATOM      7  C   UNL     1      -1.725  12.053  17.447  0.00  0.00    +0.000 A 
ATOM      8  C   UNL     1      -2.575  11.052  16.990  0.00  0.00    +0.000 A 
ATOM      9  C   UNL     1      -2.554   9.805  17.605  0.00  0.00    +0.000 A 
ATOM     10  C   UNL     1      -1.655   9.545  18.647  0.00  0.00    +0.000 A 
ATOM     11  C   UNL     1      -0.752  10.525  19.097  0.00  0.00    +0.000 A 
ENDROOT
BRANCH   1  13
ATOM     12  O   UNL     1      -0.033   8.551  21.762  0.00  0.00    +0.000 OA
ATOM     13  C   UNL     1       0.558   8.920  20.750  0.00  0.00    +0.000 C 
ATOM     14  N   UNL     1       1.458   8.070  20.087  0.00  0.00    +0.000 N 
ATOM     15  C   UNL     1       2.306   8.412  18.944  0.00  0.00    +0.000 C 
ATOM     16  C   UNL     1       2.306   7.343  17.875  0.00  0.00    +0.000 C 
ATOM     17  C   UNL     1       2.724   5.982  18.428  0.00  0.00    +0.000 C 
ATOM     18  C   UNL     1       1.815   5.647  19.625  0.00  0.00    +0.000 C 
ATOM     19  C   UNL     1       1.746   6.759  20.682  0.00  0.00    +0.000 C 
BRANCH  17  20
ATOM     20  C   UNL     1       4.226   5.907  18.795  0.00  0.00    +0.000 C 
BRANCH  20  21
ATOM     21  C   UNL     1       5.113   5.456  17.653  0.00  0.00    +0.000 A 
ATOM     22  C   UNL     1       6.420   5.951  17.524  0.00  0.00    +0.000 A 
ATOM     23  C   UNL     1       7.207   5.597  16.426  0.00  0.00    +0.000 A 
ATOM     24  C   UNL     1       6.704   4.737  15.452  0.00  0.00    +0.000 A 
ATOM     25  C   UNL     1       5.423   4.209  15.589  0.00  0.00    +0.000 A 
ATOM     26  C   UNL     1       4.635   4.561  16.686  0.00  0.00    +0.000 A 
ENDBRANCH  20  21
ENDBRANCH  17  20
ENDBRANCH   1  13
BRANCH   3  27
ATOM     27  C   UNL     1       1.747  13.633  20.537  0.00  0.00    +0.000 A 
ATOM     28  C   UNL     1       2.954  13.792  19.853  0.00  0.00    +0.000 A 
ATOM     29  C   UNL     1       3.843  14.799  20.230  0.00  0.00    +0.000 A 
ATOM     30  C   UNL     1       3.539  15.624  21.316  0.00  0.00    +0.000 A 
ATOM     31  F   UNL     1       4.407  16.577  21.673  0.00  0.00    +0.000 F 
ATOM     32  C   UNL     1       2.355  15.471  22.020  0.00  0.00    +0.000 A 
ATOM     33  C   UNL     1       1.459  14.484  21.624  0.00  0.00    +0.000 A 
ATOM     34  F   UNL     1       0.328  14.333  22.325  0.00  0.00    +0.000 F 
ENDBRANCH   3  27
TORSDOF 4
ENDMDL
MODEL 3
REMARK VINA RESULT:      -7.6      2.172      2.602
REMARK  Name = 
REMARK  4 active torsions:
REMARK  status: ('A' for Active; 'I' for Inactive)
REMARK    1  A    between atoms: C_2  and  C_3
REMARK    2  A    between atoms: N_5  and  C_6
REMARK    3  A    between atoms: C_25  and  C_26
REMARK    4  A    between atoms: C_26  and  C_27
REMARK                            x       y       z     vdW  Elec       q    Type
REMARK                         _______ _______ _______ _____ _____    ______ ____
ROOT
ATOM      1  C   UNL     1       0.787  10.699  18.635  0.00  0.00    +0.000 A 
ATOM      2  C   UNL     1       1.398  11.677  19.331  0.00  0.00    +0.000 A 
ATOM      3  N   UNL     1       0.816  12.892  19.641  0.00  0.00    +0.000 N 
ATOM      4  C   UNL     1      -0.538  13.152  19.383  0.00  0.00    +0.000 A 
ATOM      5  O   UNL     1      -1.099  14.216  19.631  0.00  0.00    +0.000 OA
ATOM      6  C   UNL     1      -1.313  12.040  18.769  0.00  0.00    +0.000 A 
ATOM      7  C   UNL     1      -2.690  12.224  18.553  0.00  0.00    +0.000 A 
ATOM      8  C   UNL     1      -3.462  11.190  18.034  0.00  0.00    +0.000 A 
ATOM      9  C   UNL     1      -2.866   9.965  17.758  0.00  0.00    +0.000 A 
ATOM     10  C   UNL     1      -1.491   9.786  17.959  0.00  0.00    +0.000 A 
ATOM     11  C   UNL     1      -0.679  10.829  18.438  0.00  0.00    +0.000 A 
ENDROOT
BRANCH   1  13
ATOM     12  O   UNL     1       2.293   9.666  17.126  0.00  0.00    +0.000 OA
ATOM     13  C   UNL     1       1.609   9.525  18.136  0.00  0.00    +0.000 C 
ATOM     14  N   UNL     1       1.635   8.326  18.866  0.00  0.00    +0.000 N 
ATOM     15  C   UNL     1       0.798   7.982  20.017  0.00  0.00    +0.000 C 
ATOM     16  C   UNL     1       1.579   7.333  21.136  0.00  0.00    +0.000 C 
ATOM     17  C   UNL     1       2.328   6.089  20.663  0.00  0.00    +0.000 C 
ATOM     18  C   UNL     1       3.201   6.479  19.457  0.00  0.00    +0.000 C 
ATOM     19  C   UNL     1       2.433   7.209  18.345  0.00  0.00    +0.000 C 
BRANCH  17  20
ATOM     20  C   UNL     1       1.393   4.896  20.346  0.00  0.00    +0.000 C 
BRANCH  20  21
ATOM     21  C   UNL     1       2.078   3.756  19.621  0.00  0.00    +0.000 A 
ATOM     22  C   UNL     1       3.137   3.060  20.223  0.00  0.00    +0.000 A 
ATOM     23  C   UNL     1       3.821   2.064  19.521  0.00  0.00    +0.000 A 
ATOM     24  C   UNL     1       3.447   1.745  18.217  0.00  0.00    +0.000 A 
ATOM     25  C   UNL     1       2.373   2.403  17.623  0.00  0.00    +0.000 A 
ATOM     26  C   UNL     1       1.688   3.397  18.323  0.00  0.00    +0.000 A 
ENDBRANCH  20  21
ENDBRANCH  17  20
ENDBRANCH   1  13
BRANCH   3  27
ATOM     27  C   UNL     1       1.623  13.966  20.123  0.00  0.00    +0.000 A 
ATOM     28  C   UNL     1       1.651  14.224  21.495  0.00  0.00    +0.000 A 
ATOM     29  C   UNL     1       2.466  15.239  21.998  0.00  0.00    +0.000 A 
ATOM     30  C   UNL     1       3.225  16.019  21.123  0.00  0.00    +0.000 A 
ATOM     31  F   UNL     1       3.992  16.996  21.619  0.00  0.00    +0.000 F 
ATOM     32  C   UNL     1       3.197  15.792  19.756  0.00  0.00    +0.000 A 
ATOM     33  C   UNL     1       2.405  14.761  19.261  0.00  0.00    +0.000 A 
ATOM     34  F   UNL     1       2.372  14.565  17.936  0.00  0.00    +0.000 F 
ENDBRANCH   3  27
TORSDOF 4
ENDMDL
MODEL 4
REMARK VINA RESULT:      -7.5      2.293      2.812
REMARK  Name = 
REMARK  4 active torsions:
REMARK  status: ('A' for Active; 'I' for Inactive)
REMARK    1  A    between atoms: C_2  and  C_3
REMARK    2  A    between atoms: N_5  and  C_6
REMARK    3  A    between atoms: C_25  and  C_26
REMARK    4  A    between atoms: C_26  and  C_27
REMARK                            x       y       z     vdW  Elec       q    Type
REMARK                         _______ _______ _______ _____ _____    ______ ____
ROOT
ATOM      1  C   UNL     1       0.737  10.665  18.660  0.00  0.00    +0.000 A 
ATOM      2  C   UNL     1       1.312  11.631  19.402  0.00  0.00    +0.000 A 
ATOM      3  N   UNL     1       0.714  12.839  19.705  0.00  0.00    +0.000 N 
ATOM      4  C   UNL     1      -0.628  13.103  19.389  0.00  0.00    +0.000 A 
ATOM      5  O   UNL     1      -1.201  14.161  19.629  0.00  0.00    +0.000 OA
ATOM      6  C   UNL     1      -1.370  12.000  18.719  0.00  0.00    +0.000 A 
ATOM      7  C   UNL     1      -2.735  12.187  18.441  0.00  0.00    +0.000 A 
ATOM      8  C   UNL     1      -3.480  11.162  17.868  0.00  0.00    +0.000 A 
ATOM      9  C   UNL     1      -2.869   9.942  17.599  0.00  0.00    +0.000 A 
ATOM     10  C   UNL     1      -1.505   9.761  17.861  0.00  0.00    +0.000 A 
ATOM     11  C   UNL     1      -0.718  10.796  18.396  0.00  0.00    +0.000 A 
ENDROOT
BRANCH   1  13
ATOM     12  O   UNL     1       2.290   9.652  17.186  0.00  0.00    +0.000 OA
ATOM     13  C   UNL     1       1.584   9.501  18.179  0.00  0.00    +0.000 C 
ATOM     14  N   UNL     1       1.607   8.302  18.908  0.00  0.00    +0.000 N 
ATOM     15  C   UNL     1       0.747   7.947  20.039  0.00  0.00    +0.000 C 
ATOM     16  C   UNL     1       1.509   7.305  21.175  0.00  0.00    +0.000 C 
ATOM     17  C   UNL     1       2.283   6.070  20.719  0.00  0.00    +0.000 C 
ATOM     18  C   UNL     1       3.180   6.473  19.534  0.00  0.00    +0.000 C 
ATOM     19  C   UNL     1       2.430   7.195  18.405  0.00  0.00    +0.000 C 
BRANCH  17  20
ATOM     20  C   UNL     1       1.369   4.867  20.378  0.00  0.00    +0.000 C 
BRANCH  20  21
ATOM     21  C   UNL     1       2.069   3.764  19.612  0.00  0.00    +0.000 A 
ATOM     22  C   UNL     1       3.137   3.060  20.187  0.00  0.00    +0.000 A 
ATOM     23  C   UNL     1       3.834   2.100  19.450  0.00  0.00    +0.000 A 
ATOM     24  C   UNL     1       3.464   1.824  18.134  0.00  0.00    +0.000 A 
ATOM     25  C   UNL     1       2.382   2.490  17.565  0.00  0.00    +0.000 A 
ATOM     26  C   UNL     1       1.685   3.449  18.301  0.00  0.00    +0.000 A 
ENDBRANCH  20  21
ENDBRANCH  17  20
ENDBRANCH   1  13
BRANCH   3  27
ATOM     27  C   UNL     1       1.495  13.906  20.244  0.00  0.00    +0.000 A 
ATOM     28  C   UNL     1       2.459  14.510  19.434  0.00  0.00    +0.000 A 
ATOM     29  C   UNL     1       3.205  15.585  19.920  0.00  0.00    +0.000 A 
ATOM     30  C   UNL     1       3.009  16.032  21.229  0.00  0.00    +0.000 A 
ATOM     31  F   UNL     1       3.740  17.055  21.685  0.00  0.00    +0.000 F 
ATOM     32  C   UNL     1       2.070  15.434  22.055  0.00  0.00    +0.000 A 
ATOM     33  C   UNL     1       1.309  14.381  21.558  0.00  0.00    +0.000 A 
ATOM     34  F   UNL     1       0.419  13.799  22.373  0.00  0.00    +0.000 F 
ENDBRANCH   3  27
TORSDOF 4
ENDMDL
MODEL 5
REMARK VINA RESULT:      -7.5      3.318      5.130
REMARK  Name = 
REMARK  4 active torsions:
REMARK  status: ('A' for Active; 'I' for Inactive)
REMARK    1  A    between atoms: C_2  and  C_3
REMARK    2  A    between atoms: N_5  and  C_6
REMARK    3  A    between atoms: C_25  and  C_26
REMARK    4  A    between atoms: C_26  and  C_27
REMARK                            x       y       z     vdW  Elec       q    Type
REMARK                         _______ _______ _______ _____ _____    ______ ____
ROOT
ATOM      1  C   UNL     1      -0.058  11.638  20.858  0.00  0.00    +0.000 A 
ATOM      2  C   UNL     1      -1.386  11.615  20.631  0.00  0.00    +0.000 A 
ATOM      3  N   UNL     1      -2.174  12.743  20.509  0.00  0.00    +0.000 N 
ATOM      4  C   UNL     1      -1.621  14.032  20.457  0.00  0.00    +0.000 A 
ATOM      5  O   UNL     1      -2.277  15.064  20.358  0.00  0.00    +0.000 OA
ATOM      6  C   UNL     1      -0.136  14.109  20.528  0.00  0.00    +0.000 A 
ATOM      7  C   UNL     1       0.473  15.371  20.412  0.00  0.00    +0.000 A 
ATOM      8  C   UNL     1       1.859  15.482  20.416  0.00  0.00    +0.000 A 
ATOM      9  C   UNL     1       2.636  14.333  20.508  0.00  0.00    +0.000 A 
ATOM     10  C   UNL     1       2.030  13.077  20.639  0.00  0.00    +0.000 A 
ATOM     11  C   UNL     1       0.631  12.941  20.685  0.00  0.00    +0.000 A 
ENDROOT
BRANCH   1  13
ATOM     12  O   UNL     1       0.604   9.960  22.395  0.00  0.00    +0.000 OA
ATOM     13  C   UNL     1       0.649  10.347  21.230  0.00  0.00    +0.000 C 
ATOM     14  N   UNL     1       1.279   9.580  20.237  0.00  0.00    +0.000 N 
ATOM     15  C   UNL     1       1.500   9.965  18.842  0.00  0.00    +0.000 C 
ATOM     16  C   UNL     1       1.179   8.853  17.869  0.00  0.00    +0.000 C 
ATOM     17  C   UNL     1       1.967   7.581  18.177  0.00  0.00    +0.000 C 
ATOM     18  C   UNL     1       1.713   7.198  19.646  0.00  0.00    +0.000 C 
ATOM     19  C   UNL     1       1.962   8.344  20.638  0.00  0.00    +0.000 C 
BRANCH  17  20
ATOM     20  C   UNL     1       3.477   7.704  17.857  0.00  0.00    +0.000 C 
BRANCH  20  21
ATOM     21  C   UNL     1       4.053   6.497  17.145  0.00  0.00    +0.000 A 
ATOM     22  C   UNL     1       3.685   5.198  17.527  0.00  0.00    +0.000 A 
ATOM     23  C   UNL     1       4.279   4.087  16.925  0.00  0.00    +0.000 A 
ATOM     24  C   UNL     1       5.236   4.260  15.927  0.00  0.00    +0.000 A 
ATOM     25  C   UNL     1       5.582   5.544  15.513  0.00  0.00    +0.000 A 
ATOM     26  C   UNL     1       4.989   6.656  16.114  0.00  0.00    +0.000 A 
ENDBRANCH  20  21
ENDBRANCH  17  20
ENDBRANCH   1  13
BRANCH   3  27
ATOM     27  C   UNL     1      -3.596  12.628  20.559  0.00  0.00    +0.000 A 
ATOM     28  C   UNL     1      -4.249  12.867  21.770  0.00  0.00    +0.000 A 
ATOM     29  C   UNL     1      -5.641  12.806  21.837  0.00  0.00    +0.000 A 
ATOM     30  C   UNL     1      -6.378  12.472  20.698  0.00  0.00    +0.000 A 
ATOM     31  F   UNL     1      -7.711  12.407  20.780  0.00  0.00    +0.000 F 
ATOM     32  C   UNL     1      -5.748  12.214  19.490  0.00  0.00    +0.000 A 
ATOM     33  C   UNL     1      -4.362  12.302  19.421  0.00  0.00    +0.000 A 
ATOM     34  F   UNL     1      -3.764  12.030  18.253  0.00  0.00    +0.000 F 
ENDBRANCH   3  27
TORSDOF 4
ENDMDL
MODEL 6
REMARK VINA RESULT:      -7.5      3.392      5.218
REMARK  Name = 
REMARK  4 active torsions:
REMARK  status: ('A' for Active; 'I' for Inactive)
REMARK    1  A    between atoms: C_2  and  C_3
REMARK    2  A    between atoms: N_5  and  C_6
REMARK    3  A    between atoms: C_25  and  C_26
REMARK    4  A    between atoms: C_26  and  C_27
REMARK                            x       y       z     vdW  Elec       q    Type
REMARK                         _______ _______ _______ _____ _____    ______ ____
ROOT
ATOM      1  C   UNL     1      -0.081  11.667  20.876  0.00  0.00    +0.000 A 
ATOM      2  C   UNL     1      -1.408  11.652  20.643  0.00  0.00    +0.000 A 
ATOM      3  N   UNL     1      -2.189  12.785  20.524  0.00  0.00    +0.000 N 
ATOM      4  C   UNL     1      -1.629  14.071  20.483  0.00  0.00    +0.000 A 
ATOM      5  O   UNL     1      -2.280  15.107  20.388  0.00  0.00    +0.000 OA
ATOM      6  C   UNL     1      -0.144  14.141  20.562  0.00  0.00    +0.000 A 
ATOM      7  C   UNL     1       0.471  15.400  20.456  0.00  0.00    +0.000 A 
ATOM      8  C   UNL     1       1.858  15.505  20.467  0.00  0.00    +0.000 A 
ATOM      9  C   UNL     1       2.629  14.351  20.556  0.00  0.00    +0.000 A 
ATOM     10  C   UNL     1       2.015  13.097  20.676  0.00  0.00    +0.000 A 
ATOM     11  C   UNL     1       0.616  12.968  20.715  0.00  0.00    +0.000 A 
ENDROOT
BRANCH   1  13
ATOM     12  O   UNL     1       0.554   9.970  22.403  0.00  0.00    +0.000 OA
ATOM     13  C   UNL     1       0.618  10.370  21.243  0.00  0.00    +0.000 C 
ATOM     14  N   UNL     1       1.261   9.615  20.251  0.00  0.00    +0.000 N 
ATOM     15  C   UNL     1       1.505  10.015  18.864  0.00  0.00    +0.000 C 
ATOM     16  C   UNL     1       1.197   8.916  17.874  0.00  0.00    +0.000 C 
ATOM     17  C   UNL     1       1.977   7.638  18.178  0.00  0.00    +0.000 C 
ATOM     18  C   UNL     1       1.700   7.238  19.638  0.00  0.00    +0.000 C 
ATOM     19  C   UNL     1       1.936   8.372  20.648  0.00  0.00    +0.000 C 
BRANCH  17  20
ATOM     20  C   UNL     1       3.492   7.762  17.883  0.00  0.00    +0.000 C 
BRANCH  20  21
ATOM     21  C   UNL     1       4.090   6.536  17.224  0.00  0.00    +0.000 A 
ATOM     22  C   UNL     1       5.031   6.667  16.191  0.00  0.00    +0.000 A 
ATOM     23  C   UNL     1       5.519   5.538  15.530  0.00  0.00    +0.000 A 
ATOM     24  C   UNL     1       5.083   4.267  15.900  0.00  0.00    +0.000 A 
ATOM     25  C   UNL     1       4.179   4.123  16.949  0.00  0.00    +0.000 A 
ATOM     26  C   UNL     1       3.690   5.250  17.611  0.00  0.00    +0.000 A 
ENDBRANCH  20  21
ENDBRANCH  17  20
ENDBRANCH   1  13
BRANCH   3  27
ATOM     27  C   UNL     1      -3.612  12.678  20.567  0.00  0.00    +0.000 A 
ATOM     28  C   UNL     1      -4.300  12.380  19.388  0.00  0.00    +0.000 A 
ATOM     29  C   UNL     1      -5.687  12.224  19.410  0.00  0.00    +0.000 A 
ATOM     30  C   UNL     1      -6.388  12.402  20.605  0.00  0.00    +0.000 A 
ATOM     31  F   UNL     1      -7.718  12.261  20.607  0.00  0.00    +0.000 F 
ATOM     32  C   UNL     1      -5.726  12.716  21.782  0.00  0.00    +0.000 A 
ATOM     33  C   UNL     1      -4.341  12.843  21.762  0.00  0.00    +0.000 A 
ATOM     34  F   UNL     1      -3.716  13.166  22.902  0.00  0.00    +0.000 F 
ENDBRANCH   3  27
TORSDOF 4
ENDMDL
MODEL 7
REMARK VINA RESULT:      -7.2      2.800      5.075
REMARK  Name = 
REMARK  4 active torsions:
REMARK  status: ('A' for Active; 'I' for Inactive)
REMARK    1  A    between atoms: C_2  and  C_3
REMARK    2  A    between atoms: N_5  and  C_6
REMARK    3  A    between atoms: C_25  and  C_26
REMARK    4  A    between atoms: C_26  and  C_27
REMARK                            x       y       z     vdW  Elec       q    Type
REMARK                         _______ _______ _______ _____ _____    ______ ____
ROOT
ATOM      1  C   UNL     1       0.063  10.947  20.328  0.00  0.00    +0.000 A 
ATOM      2  C   UNL     1      -1.141  10.946  19.723  0.00  0.00    +0.000 A 
ATOM      3  N   UNL     1      -1.874  12.084  19.446  0.00  0.00    +0.000 N 
ATOM      4  C   UNL     1      -1.345  13.370  19.636  0.00  0.00    +0.000 A 
ATOM      5  O   UNL     1      -1.958  14.410  19.413  0.00  0.00    +0.000 OA
ATOM      6  C   UNL     1       0.054  13.435  20.141  0.00  0.00    +0.000 A 
ATOM      7  C   UNL     1       0.654  14.698  20.284  0.00  0.00    +0.000 A 
ATOM      8  C   UNL     1       1.977  14.801  20.698  0.00  0.00    +0.000 A 
ATOM      9  C   UNL     1       2.708  13.644  20.942  0.00  0.00    +0.000 A 
ATOM     10  C   UNL     1       2.106  12.386  20.815  0.00  0.00    +0.000 A 
ATOM     11  C   UNL     1       0.756  12.254  20.443  0.00  0.00    +0.000 A 
ENDROOT
BRANCH   1  13
ATOM     12  O   UNL     1       0.369   9.238  21.940  0.00  0.00    +0.000 OA
ATOM     13  C   UNL     1       0.648   9.632  20.811  0.00  0.00    +0.000 C 
ATOM     14  N   UNL     1       1.433   8.854  19.945  0.00  0.00    +0.000 N 
ATOM     15  C   UNL     1       1.929   9.242  18.624  0.00  0.00    +0.000 C 
ATOM     16  C   UNL     1       1.767   8.148  17.593  0.00  0.00    +0.000 C 
ATOM     17  C   UNL     1       2.443   6.849  18.028  0.00  0.00    +0.000 C 
ATOM     18  C   UNL     1       1.901   6.463  19.416  0.00  0.00    +0.000 C 
ATOM     19  C   UNL     1       1.990   7.593  20.453  0.00  0.00    +0.000 C 
BRANCH  17  20
ATOM     20  C   UNL     1       3.990   6.927  18.005  0.00  0.00    +0.000 C 
BRANCH  20  21
ATOM     21  C   UNL     1       4.637   5.958  17.038  0.00  0.00    +0.000 A 
ATOM     22  C   UNL     1       5.179   6.410  15.826  0.00  0.00    +0.000 A 
ATOM     23  C   UNL     1       5.701   5.504  14.900  0.00  0.00    +0.000 A 
ATOM     24  C   UNL     1       5.701   4.139  15.180  0.00  0.00    +0.000 A 
ATOM     25  C   UNL     1       5.201   3.681  16.397  0.00  0.00    +0.000 A 
ATOM     26  C   UNL     1       4.679   4.585  17.323  0.00  0.00    +0.000 A 
ENDBRANCH  20  21
ENDBRANCH  17  20
ENDBRANCH   1  13
BRANCH   3  27
ATOM     27  C   UNL     1      -3.247  11.974  19.073  0.00  0.00    +0.000 A 
ATOM     28  C   UNL     1      -3.561  11.578  17.771  0.00  0.00    +0.000 A 
ATOM     29  C   UNL     1      -4.895  11.419  17.392  0.00  0.00    +0.000 A 
ATOM     30  C   UNL     1      -5.915  11.692  18.307  0.00  0.00    +0.000 A 
ATOM     31  F   UNL     1      -7.189  11.546  17.927  0.00  0.00    +0.000 F 
ATOM     32  C   UNL     1      -5.624  12.104  19.599  0.00  0.00    +0.000 A 
ATOM     33  C   UNL     1      -4.293  12.235  19.981  0.00  0.00    +0.000 A 
ATOM     34  F   UNL     1      -4.027  12.654  21.225  0.00  0.00    +0.000 F 
ENDBRANCH   3  27
TORSDOF 4
ENDMDL
MODEL 8
REMARK VINA RESULT:      -7.2      2.673      4.943
REMARK  Name = 
REMARK  4 active torsions:
REMARK  status: ('A' for Active; 'I' for Inactive)
REMARK    1  A    between atoms: C_2  and  C_3
REMARK    2  A    between atoms: N_5  and  C_6
REMARK    3  A    between atoms: C_25  and  C_26
REMARK    4  A    between atoms: C_26  and  C_27
REMARK                            x       y       z     vdW  Elec       q    Type
REMARK                         _______ _______ _______ _____ _____    ______ ____
ROOT
ATOM      1  C   UNL     1       0.088  10.875  20.219  0.00  0.00    +0.000 A 
ATOM      2  C   UNL     1      -1.104  10.880  19.592  0.00  0.00    +0.000 A 
ATOM      3  N   UNL     1      -1.836  12.021  19.321  0.00  0.00    +0.000 N 
ATOM      4  C   UNL     1      -1.316  13.305  19.544  0.00  0.00    +0.000 A 
ATOM      5  O   UNL     1      -1.927  14.347  19.329  0.00  0.00    +0.000 OA
ATOM      6  C   UNL     1       0.073  13.365  20.076  0.00  0.00    +0.000 A 
ATOM      7  C   UNL     1       0.667  14.627  20.253  0.00  0.00    +0.000 A 
ATOM      8  C   UNL     1       1.982  14.727  20.694  0.00  0.00    +0.000 A 
ATOM      9  C   UNL     1       2.712  13.568  20.931  0.00  0.00    +0.000 A 
ATOM     10  C   UNL     1       2.116  12.311  20.770  0.00  0.00    +0.000 A 
ATOM     11  C   UNL     1       0.774  12.182  20.371  0.00  0.00    +0.000 A 
ENDROOT
BRANCH   1  13
ATOM     12  O   UNL     1       0.371   9.139  21.807  0.00  0.00    +0.000 OA
ATOM     13  C   UNL     1       0.668   9.553  20.689  0.00  0.00    +0.000 C 
ATOM     14  N   UNL     1       1.469   8.791  19.824  0.00  0.00    +0.000 N 
ATOM     15  C   UNL     1       1.986   9.203  18.518  0.00  0.00    +0.000 C 
ATOM     16  C   UNL     1       1.845   8.127  17.466  0.00  0.00    +0.000 C 
ATOM     17  C   UNL     1       2.517   6.822  17.890  0.00  0.00    +0.000 C 
ATOM     18  C   UNL     1       1.953   6.411  19.262  0.00  0.00    +0.000 C 
ATOM     19  C   UNL     1       2.021   7.523  20.320  0.00  0.00    +0.000 C 
BRANCH  17  20
ATOM     20  C   UNL     1       4.063   6.904  17.894  0.00  0.00    +0.000 C 
BRANCH  20  21
ATOM     21  C   UNL     1       4.732   5.910  16.967  0.00  0.00    +0.000 A 
ATOM     22  C   UNL     1       5.209   6.312  15.711  0.00  0.00    +0.000 A 
ATOM     23  C   UNL     1       5.750   5.378  14.825  0.00  0.00    +0.000 A 
ATOM     24  C   UNL     1       5.833   4.035  15.189  0.00  0.00    +0.000 A 
ATOM     25  C   UNL     1       5.398   3.630  16.448  0.00  0.00    +0.000 A 
ATOM     26  C   UNL     1       4.857   4.563  17.334  0.00  0.00    +0.000 A 
ENDBRANCH  20  21
ENDBRANCH  17  20
ENDBRANCH   1  13
BRANCH   3  27
ATOM     27  C   UNL     1      -3.202  11.914  18.920  0.00  0.00    +0.000 A 
ATOM     28  C   UNL     1      -4.201  12.243  19.839  0.00  0.00    +0.000 A 
ATOM     29  C   UNL     1      -5.543  12.191  19.459  0.00  0.00    +0.000 A 
ATOM     30  C   UNL     1      -5.885  11.776  18.170  0.00  0.00    +0.000 A 
ATOM     31  F   UNL     1      -7.176  11.720  17.824  0.00  0.00    +0.000 F 
ATOM     32  C   UNL     1      -4.909  11.427  17.249  0.00  0.00    +0.000 A 
ATOM     33  C   UNL     1      -3.572  11.507  17.623  0.00  0.00    +0.000 A 
ATOM     34  F   UNL     1      -2.640  11.148  16.730  0.00  0.00    +0.000 F 
ENDBRANCH   3  27
TORSDOF 4
ENDMDL
MODEL 9
REMARK VINA RESULT:      -7.2      1.972      2.426
REMARK  Name = 
REMARK  4 active torsions:
REMARK  status: ('A' for Active; 'I' for Inactive)
REMARK    1  A    between atoms: C_2  and  C_3
REMARK    2  A    between atoms: N_5  and  C_6
REMARK    3  A    between atoms: C_25  and  C_26
REMARK    4  A    between atoms: C_26  and  C_27
REMARK                            x       y       z     vdW  Elec       q    Type
REMARK                         _______ _______ _______ _____ _____    ______ ____
ROOT
ATOM      1  C   UNL     1      -0.250  10.393  20.396  0.00  0.00    +0.000 A 
ATOM      2  C   UNL     1      -0.209  11.428  21.257  0.00  0.00    +0.000 A 
ATOM      3  N   UNL     1      -0.624  12.710  20.952  0.00  0.00    +0.000 N 
ATOM      4  C   UNL     1      -1.277  13.012  19.747  0.00  0.00    +0.000 A 
ATOM      5  O   UNL     1      -1.656  14.134  19.426  0.00  0.00    +0.000 OA
ATOM      6  C   UNL     1      -1.507  11.867  18.824  0.00  0.00    +0.000 A 
ATOM      7  C   UNL     1      -2.217  12.101  17.634  0.00  0.00    +0.000 A 
ATOM      8  C   UNL     1      -2.504  11.048  16.771  0.00  0.00    +0.000 A 
ATOM      9  C   UNL     1      -2.106   9.760  17.109  0.00  0.00    +0.000 A 
ATOM     10  C   UNL     1      -1.385   9.529  18.288  0.00  0.00    +0.000 A 
ATOM     11  C   UNL     1      -1.041  10.581  19.155  0.00  0.00    +0.000 A 
ENDROOT
BRANCH   1  13
ATOM     12  O   UNL     1       0.140   8.508  21.778  0.00  0.00    +0.000 OA
ATOM     13  C   UNL     1       0.469   9.105  20.756  0.00  0.00    +0.000 C 
ATOM     14  N   UNL     1       1.441   8.579  19.891  0.00  0.00    +0.000 N 
ATOM     15  C   UNL     1       2.003   9.228  18.705  0.00  0.00    +0.000 C 
ATOM     16  C   UNL     1       2.105   8.296  17.520  0.00  0.00    +0.000 C 
ATOM     17  C   UNL     1       2.917   7.044  17.846  0.00  0.00    +0.000 C 
ATOM     18  C   UNL     1       2.302   6.380  19.091  0.00  0.00    +0.000 C 
ATOM     19  C   UNL     1       2.122   7.337  20.279  0.00  0.00    +0.000 C 
BRANCH  17  20
ATOM     20  C   UNL     1       4.430   7.324  18.018  0.00  0.00    +0.000 C 
BRANCH  20  21
ATOM     21  C   UNL     1       5.321   6.372  17.247  0.00  0.00    +0.000 A 
ATOM     22  C   UNL     1       5.131   6.171  15.872  0.00  0.00    +0.000 A 
ATOM     23  C   UNL     1       5.899   5.232  15.180  0.00  0.00    +0.000 A 
ATOM     24  C   UNL     1       6.873   4.494  15.850  0.00  0.00    +0.000 A 
ATOM     25  C   UNL     1       7.096   4.712  17.207  0.00  0.00    +0.000 A 
ATOM     26  C   UNL     1       6.329   5.650  17.900  0.00  0.00    +0.000 A 
ENDBRANCH  20  21
ENDBRANCH  17  20
ENDBRANCH   1  13
BRANCH   3  27
ATOM     27  C   UNL     1      -0.281  13.795  21.815  0.00  0.00    +0.000 A 
ATOM     28  C   UNL     1       0.880  14.525  21.550  0.00  0.00    +0.000 A 
ATOM     29  C   UNL     1       1.215  15.619  22.350  0.00  0.00    +0.000 A 
ATOM     30  C   UNL     1       0.405  15.958  23.436  0.00  0.00    +0.000 A 
ATOM     31  F   UNL     1       0.745  17.002  24.201  0.00  0.00    +0.000 F 
ATOM     32  C   UNL     1      -0.741  15.235  23.727  0.00  0.00    +0.000 A 
ATOM     33  C   UNL     1      -1.086  14.163  22.911  0.00  0.00    +0.000 A 
ATOM     34  F   UNL     1      -2.186  13.460  23.215  0.00  0.00    +0.000 F 
ENDBRANCH   3  27
TORSDOF 4
ENDMDL
