MODEL 1
REMARK VINA RESULT:      -8.8      0.000      0.000
REMARK  Name = 
REMARK  6 active torsions:
REMARK  status: ('A' for Active; 'I' for Inactive)
REMARK    1  A    between atoms: C_1  and  C_2
REMARK    2  A    between atoms: C_6  and  C_7
REMARK    3  A    between atoms: C_7  and  C_8
REMARK    4  A    between atoms: N_16  and  C_17
REMARK    5  A    between atoms: C_17  and  C_18
REMARK    6  A    between atoms: C_27  and  C_28
REMARK                            x       y       z     vdW  Elec       q    Type
REMARK                         _______ _______ _______ _____ _____    ______ ____
ROOT
ATOM      1  C   UNL     1      -0.330  12.487  19.397  0.00  0.00    +0.000 C 
ATOM      2  C   UNL     1       0.345  11.147  19.520  0.00  0.00    +0.000 A 
ATOM      3  C   UNL     1       1.010  10.613  18.397  0.00  0.00    +0.000 A 
ATOM      4  C   UNL     1       1.626   9.357  18.488  0.00  0.00    +0.000 A 
ATOM      5  N   UNL     1       2.304   8.637  17.537  0.00  0.00    +0.000 NA
ATOM      6  C   UNL     1       2.625   7.485  18.095  0.00  0.00    +0.000 A 
ATOM      7  N   UNL     1       2.179   7.458  19.406  0.00  0.00    +0.000 N 
ATOM      8  C   UNL     1       1.567   8.661  19.682  0.00  0.00    +0.000 A 
ATOM      9  C   UNL     1       0.950   9.173  20.830  0.00  0.00    +0.000 A 
ATOM     10  C   UNL     1       0.310  10.420  20.733  0.00  0.00    +0.000 A 
ATOM     11  C   UNL     1      -0.426  10.943  21.939  0.00  0.00    +0.000 C 
ENDROOT
BRANCH   6  12
ATOM     12  C   UNL     1       3.259   6.309  17.408  0.00  0.00    +0.000 C 
BRANCH  12  13
ATOM     13  C   UNL     1       4.740   6.432  16.993  0.00  0.00    +0.000 C 
ATOM     14  C   UNL     1       5.670   7.147  17.996  0.00  0.00    +0.000 C 
ATOM     15  C   UNL     1       7.166   6.852  17.759  0.00  0.00    +0.000 C 
ATOM     16  C   UNL     1       7.641   5.571  18.456  0.00  0.00    +0.000 C 
ATOM     17  C   UNL     1       7.600   4.503  17.369  0.00  0.00    +0.000 C 
ATOM     18  C   UNL     1       6.866   5.184  16.220  0.00  0.00    +0.000 C 
ATOM     19  C   UNL     1       5.331   5.131  16.415  0.00  0.00    +0.000 C 
ATOM     20  N   UNL     1       7.396   6.550  16.340  0.00  0.00    +0.000 NA
ATOM     21  H   UNL     1       6.891   7.201  15.742  0.00  0.00    +0.000 HD
ENDBRANCH  12  13
ENDBRANCH   6  12
BRANCH   7  22
ATOM     22  C   UNL     1       2.178   6.319  20.314  0.00  0.00    +0.000 C 
BRANCH  22  23
ATOM     23  C   UNL     1       2.568   5.001  19.687  0.00  0.00    +0.000 A 
ATOM     24  C   UNL     1       1.686   4.192  18.955  0.00  0.00    +0.000 A 
ATOM     25  C   UNL     1       2.090   2.937  18.488  0.00  0.00    +0.000 A 
ATOM     26  C   UNL     1       3.381   2.485  18.740  0.00  0.00    +0.000 A 
ATOM     27 CL   UNL     1       3.853   0.912  18.227  0.00  0.00    +0.000 Cl
ATOM     28  C   UNL     1       4.288   3.291  19.421  0.00  0.00    +0.000 A 
ATOM     29  C   UNL     1       3.885   4.544  19.887  0.00  0.00    +0.000 A 
ENDBRANCH  22  23
ENDBRANCH   7  22
TORSDOF 4
ENDMDL
MODEL 2
REMARK VINA RESULT:      -8.4      3.735      6.476
REMARK  Name = 
REMARK  6 active torsions:
REMARK  status: ('A' for Active; 'I' for Inactive)
REMARK    1  A    between atoms: C_1  and  C_2
REMARK    2  A    between atoms: C_6  and  C_7
REMARK    3  A    between atoms: C_7  and  C_8
REMARK    4  A    between atoms: N_16  and  C_17
REMARK    5  A    between atoms: C_17  and  C_18
REMARK    6  A    between atoms: C_27  and  C_28
REMARK                            x       y       z     vdW  Elec       q    Type
REMARK                         _______ _______ _______ _____ _____    ______ ____
ROOT
ATOM      1  C   UNL     1       3.011  16.112  18.665  0.00  0.00    +0.000 C 
ATOM      2  C   UNL     1       2.388  14.762  18.906  0.00  0.00    +0.000 A 
ATOM      3  C   UNL     1       2.882  13.648  18.197  0.00  0.00    +0.000 A 
ATOM      4  C   UNL     1       2.300  12.387  18.394  0.00  0.00    +0.000 A 
ATOM      5  N   UNL     1       2.594  11.181  17.811  0.00  0.00    +0.000 NA
ATOM      6  C   UNL     1       1.713  10.314  18.275  0.00  0.00    +0.000 A 
ATOM      7  N   UNL     1       0.863  10.943  19.169  0.00  0.00    +0.000 N 
ATOM      8  C   UNL     1       1.246  12.262  19.281  0.00  0.00    +0.000 A 
ATOM      9  C   UNL     1       0.753  13.336  20.032  0.00  0.00    +0.000 A 
ATOM     10  C   UNL     1       1.318  14.604  19.816  0.00  0.00    +0.000 A 
ATOM     11  C   UNL     1       0.740  15.781  20.558  0.00  0.00    +0.000 C 
ENDROOT
BRANCH   6  12
ATOM     12  C   UNL     1       1.543   8.890  17.828  0.00  0.00    +0.000 C 
BRANCH  12  13
ATOM     13  C   UNL     1       2.318   7.799  18.595  0.00  0.00    +0.000 C 
ATOM     14  C   UNL     1       1.860   7.532  20.046  0.00  0.00    +0.000 C 
ATOM     15  C   UNL     1       2.339   6.173  20.597  0.00  0.00    +0.000 C 
ATOM     16  C   UNL     1       1.395   5.017  20.241  0.00  0.00    +0.000 C 
ATOM     17  C   UNL     1       2.026   4.367  19.016  0.00  0.00    +0.000 C 
ATOM     18  C   UNL     1       3.124   5.344  18.613  0.00  0.00    +0.000 C 
ATOM     19  C   UNL     1       2.561   6.518  17.774  0.00  0.00    +0.000 C 
ATOM     20  N   UNL     1       3.591   5.780  19.937  0.00  0.00    +0.000 NA
ATOM     21  H   UNL     1       4.230   6.569  19.867  0.00  0.00    +0.000 HD
ENDBRANCH  12  13
ENDBRANCH   6  12
BRANCH   7  22
ATOM     22  C   UNL     1      -0.343  10.394  19.776  0.00  0.00    +0.000 C 
BRANCH  22  23
ATOM     23  C   UNL     1      -1.638  10.829  19.129  0.00  0.00    +0.000 A 
ATOM     24  C   UNL     1      -2.456  11.852  19.629  0.00  0.00    +0.000 A 
ATOM     25  C   UNL     1      -3.691  12.133  19.035  0.00  0.00    +0.000 A 
ATOM     26  C   UNL     1      -4.112  11.400  17.930  0.00  0.00    +0.000 A 
ATOM     27 CL   UNL     1      -5.662  11.699  17.244  0.00  0.00    +0.000 Cl
ATOM     28  C   UNL     1      -3.295  10.414  17.386  0.00  0.00    +0.000 A 
ATOM     29  C   UNL     1      -2.063  10.134  17.980  0.00  0.00    +0.000 A 
ENDBRANCH  22  23
ENDBRANCH   7  22
TORSDOF 4
ENDMDL
MODEL 3
REMARK VINA RESULT:      -8.3      3.679      6.813
REMARK  Name = 
REMARK  6 active torsions:
REMARK  status: ('A' for Active; 'I' for Inactive)
REMARK    1  A    between atoms: C_1  and  C_2
REMARK    2  A    between atoms: C_6  and  C_7
REMARK    3  A    between atoms: C_7  and  C_8
REMARK    4  A    between atoms: N_16  and  C_17
REMARK    5  A    between atoms: C_17  and  C_18
REMARK    6  A    between atoms: C_27  and  C_28
REMARK                            x       y       z     vdW  Elec       q    Type
REMARK                         _______ _______ _______ _____ _____    ______ ____
ROOT
ATOM      1  C   UNL     1      -5.214  11.413  17.298  0.00  0.00    +0.000 C 
ATOM      2  C   UNL     1      -3.770  11.208  17.673  0.00  0.00    +0.000 A 
ATOM      3  C   UNL     1      -3.252  11.897  18.788  0.00  0.00    +0.000 A 
ATOM      4  C   UNL     1      -1.903  11.734  19.139  0.00  0.00    +0.000 A 
ATOM      5  N   UNL     1      -1.182  12.307  20.155  0.00  0.00    +0.000 NA
ATOM      6  C   UNL     1       0.062  11.889  20.015  0.00  0.00    +0.000 A 
ATOM      7  N   UNL     1       0.150  11.033  18.930  0.00  0.00    +0.000 N 
ATOM      8  C   UNL     1      -1.105  10.898  18.379  0.00  0.00    +0.000 A 
ATOM      9  C   UNL     1      -1.592  10.167  17.288  0.00  0.00    +0.000 A 
ATOM     10  C   UNL     1      -2.935  10.350  16.920  0.00  0.00    +0.000 A 
ATOM     11  C   UNL     1      -3.447   9.631  15.700  0.00  0.00    +0.000 C 
ENDROOT
BRANCH   6  12
ATOM     12  C   UNL     1       1.251  12.350  20.809  0.00  0.00    +0.000 C 
BRANCH  12  13
ATOM     13  C   UNL     1       1.827  13.747  20.496  0.00  0.00    +0.000 C 
ATOM     14  C   UNL     1       3.298  13.984  20.903  0.00  0.00    +0.000 C 
ATOM     15  C   UNL     1       3.943  15.187  20.185  0.00  0.00    +0.000 C 
ATOM     16  C   UNL     1       4.534  14.820  18.817  0.00  0.00    +0.000 C 
ATOM     17  C   UNL     1       3.460  15.223  17.813  0.00  0.00    +0.000 C 
ATOM     18  C   UNL     1       2.251  15.540  18.685  0.00  0.00    +0.000 C 
ATOM     19  C   UNL     1       1.483  14.256  19.082  0.00  0.00    +0.000 C 
ATOM     20  N   UNL     1       2.911  16.172  19.836  0.00  0.00    +0.000 NA
ATOM     21  H   UNL     1       2.264  16.313  20.609  0.00  0.00    +0.000 HD
ENDBRANCH  12  13
ENDBRANCH   6  12
BRANCH   7  22
ATOM     22  C   UNL     1       1.362  10.487  18.333  0.00  0.00    +0.000 C 
BRANCH  22  23
ATOM     23  C   UNL     1       1.711   9.082  18.766  0.00  0.00    +0.000 A 
ATOM     24  C   UNL     1       1.416   8.559  20.033  0.00  0.00    +0.000 A 
ATOM     25  C   UNL     1       1.858   7.284  20.399  0.00  0.00    +0.000 A 
ATOM     26  C   UNL     1       2.589   6.518  19.498  0.00  0.00    +0.000 A 
ATOM     27 CL   UNL     1       3.193   4.978  19.975  0.00  0.00    +0.000 Cl
ATOM     28  C   UNL     1       2.851   6.996  18.218  0.00  0.00    +0.000 A 
ATOM     29  C   UNL     1       2.410   8.269  17.853  0.00  0.00    +0.000 A 
ENDBRANCH  22  23
ENDBRANCH   7  22
TORSDOF 4
ENDMDL
MODEL 4
REMARK VINA RESULT:      -8.1      0.848      1.308
REMARK  Name = 
REMARK  6 active torsions:
REMARK  status: ('A' for Active; 'I' for Inactive)
REMARK    1  A    between atoms: C_1  and  C_2
REMARK    2  A    between atoms: C_6  and  C_7
REMARK    3  A    between atoms: C_7  and  C_8
REMARK    4  A    between atoms: N_16  and  C_17
REMARK    5  A    between atoms: C_17  and  C_18
REMARK    6  A    between atoms: C_27  and  C_28
REMARK                            x       y       z     vdW  Elec       q    Type
REMARK                         _______ _______ _______ _____ _____    ______ ____
ROOT
ATOM      1  C   UNL     1      -0.143  12.228  20.717  0.00  0.00    +0.000 C 
ATOM      2  C   UNL     1       0.374  10.814  20.695  0.00  0.00    +0.000 A 
ATOM      3  C   UNL     1       1.136  10.385  19.590  0.00  0.00    +0.000 A 
ATOM      4  C   UNL     1       1.608   9.065  19.543  0.00  0.00    +0.000 A 
ATOM      5  N   UNL     1       2.341   8.425  18.577  0.00  0.00    +0.000 NA
ATOM      6  C   UNL     1       2.465   7.170  18.967  0.00  0.00    +0.000 A 
ATOM      7  N   UNL     1       1.836   6.995  20.189  0.00  0.00    +0.000 N 
ATOM      8  C   UNL     1       1.312   8.206  20.586  0.00  0.00    +0.000 A 
ATOM      9  C   UNL     1       0.590   8.604  21.718  0.00  0.00    +0.000 A 
ATOM     10  C   UNL     1       0.095   9.919  21.754  0.00  0.00    +0.000 A 
ATOM     11  C   UNL     1      -0.751  10.333  22.929  0.00  0.00    +0.000 C 
ENDROOT
BRANCH   6  12
ATOM     12  C   UNL     1       3.072   6.047  18.176  0.00  0.00    +0.000 C 
BRANCH  12  13
ATOM     13  C   UNL     1       4.447   6.291  17.520  0.00  0.00    +0.000 C 
ATOM     14  C   UNL     1       5.656   6.362  18.480  0.00  0.00    +0.000 C 
ATOM     15  C   UNL     1       7.010   6.156  17.771  0.00  0.00    +0.000 C 
ATOM     16  C   UNL     1       7.394   4.677  17.632  0.00  0.00    +0.000 C 
ATOM     17  C   UNL     1       6.974   4.301  16.216  0.00  0.00    +0.000 C 
ATOM     18  C   UNL     1       6.156   5.500  15.751  0.00  0.00    +0.000 C 
ATOM     19  C   UNL     1       4.698   5.430  16.267  0.00  0.00    +0.000 C 
ATOM     20  N   UNL     1       6.914   6.596  16.373  0.00  0.00    +0.000 NA
ATOM     21  H   UNL     1       6.419   7.482  16.302  0.00  0.00    +0.000 HD
ENDBRANCH  12  13
ENDBRANCH   6  12
BRANCH   7  22
ATOM     22  C   UNL     1       1.595   5.738  20.885  0.00  0.00    +0.000 C 
BRANCH  22  23
ATOM     23  C   UNL     1       2.184   4.515  20.219  0.00  0.00    +0.000 A 
ATOM     24  C   UNL     1       3.506   4.086  20.405  0.00  0.00    +0.000 A 
ATOM     25  C   UNL     1       4.013   3.003  19.679  0.00  0.00    +0.000 A 
ATOM     26  C   UNL     1       3.199   2.336  18.770  0.00  0.00    +0.000 A 
ATOM     27 CL   UNL     1       3.845   1.050  17.826  0.00  0.00    +0.000 Cl
ATOM     28  C   UNL     1       1.870   2.713  18.605  0.00  0.00    +0.000 A 
ATOM     29  C   UNL     1       1.365   3.794  19.330  0.00  0.00    +0.000 A 
ENDBRANCH  22  23
ENDBRANCH   7  22
TORSDOF 4
ENDMDL
MODEL 5
REMARK VINA RESULT:      -8.0      4.685     10.305
REMARK  Name = 
REMARK  6 active torsions:
REMARK  status: ('A' for Active; 'I' for Inactive)
REMARK    1  A    between atoms: C_1  and  C_2
REMARK    2  A    between atoms: C_6  and  C_7
REMARK    3  A    between atoms: C_7  and  C_8
REMARK    4  A    between atoms: N_16  and  C_17
REMARK    5  A    between atoms: C_17  and  C_18
REMARK    6  A    between atoms: C_27  and  C_28
REMARK                            x       y       z     vdW  Elec       q    Type
REMARK                         _______ _______ _______ _____ _____    ______ ____
ROOT
ATOM      1  C   UNL     1       2.276   6.212  20.303  0.00  0.00    +0.000 C 
ATOM      2  C   UNL     1       1.765   7.626  20.219  0.00  0.00    +0.000 A 
ATOM      3  C   UNL     1       1.252   8.235  21.382  0.00  0.00    +0.000 A 
ATOM      4  C   UNL     1       0.753   9.545  21.316  0.00  0.00    +0.000 A 
ATOM      5  N   UNL     1       0.194  10.324  22.297  0.00  0.00    +0.000 NA
ATOM      6  C   UNL     1      -0.185  11.447  21.715  0.00  0.00    +0.000 A 
ATOM      7  N   UNL     1       0.142  11.411  20.369  0.00  0.00    +0.000 N 
ATOM      8  C   UNL     1       0.772  10.214  20.106  0.00  0.00    +0.000 A 
ATOM      9  C   UNL     1       1.308   9.658  18.938  0.00  0.00    +0.000 A 
ATOM     10  C   UNL     1       1.784   8.337  18.997  0.00  0.00    +0.000 A 
ATOM     11  C   UNL     1       2.288   7.701  17.728  0.00  0.00    +0.000 C 
ENDROOT
BRANCH   6  12
ATOM     12  C   UNL     1      -0.969  12.559  22.351  0.00  0.00    +0.000 C 
BRANCH  12  13
ATOM     13  C   UNL     1      -2.508  12.459  22.326  0.00  0.00    +0.000 C 
ATOM     14  C   UNL     1      -3.217  12.518  23.697  0.00  0.00    +0.000 C 
ATOM     15  C   UNL     1      -4.716  12.863  23.595  0.00  0.00    +0.000 C 
ATOM     16  C   UNL     1      -4.981  14.374  23.557  0.00  0.00    +0.000 C 
ATOM     17  C   UNL     1      -5.147  14.699  22.077  0.00  0.00    +0.000 C 
ATOM     18  C   UNL     1      -4.710  13.419  21.374  0.00  0.00    +0.000 C 
ATOM     19  C   UNL     1      -3.169  13.338  21.246  0.00  0.00    +0.000 C 
ATOM     20  N   UNL     1      -5.246  12.412  22.301  0.00  0.00    +0.000 NA
ATOM     21  H   UNL     1      -4.909  11.478  22.074  0.00  0.00    +0.000 HD
ENDBRANCH  12  13
ENDBRANCH   6  12
BRANCH   7  22
ATOM     22  C   UNL     1      -0.247  12.368  19.341  0.00  0.00    +0.000 C 
BRANCH  22  23
ATOM     23  C   UNL     1       0.737  13.491  19.108  0.00  0.00    +0.000 A 
ATOM     24  C   UNL     1       0.512  14.819  19.496  0.00  0.00    +0.000 A 
ATOM     25  C   UNL     1       1.423  15.825  19.159  0.00  0.00    +0.000 A 
ATOM     26  C   UNL     1       2.572  15.509  18.441  0.00  0.00    +0.000 A 
ATOM     27 CL   UNL     1       3.656  16.758  17.966  0.00  0.00    +0.000 Cl
ATOM     28  C   UNL     1       2.841  14.190  18.089  0.00  0.00    +0.000 A 
ATOM     29  C   UNL     1       1.930  13.186  18.425  0.00  0.00    +0.000 A 
ENDBRANCH  22  23
ENDBRANCH   7  22
TORSDOF 4
ENDMDL
MODEL 6
REMARK VINA RESULT:      -7.8      4.041      6.845
REMARK  Name = 
REMARK  6 active torsions:
REMARK  status: ('A' for Active; 'I' for Inactive)
REMARK    1  A    between atoms: C_1  and  C_2
REMARK    2  A    between atoms: C_6  and  C_7
REMARK    3  A    between atoms: C_7  and  C_8
REMARK    4  A    between atoms: N_16  and  C_17
REMARK    5  A    between atoms: C_17  and  C_18
REMARK    6  A    between atoms: C_27  and  C_28
REMARK                            x       y       z     vdW  Elec       q    Type
REMARK                         _______ _______ _______ _____ _____    ______ ____
ROOT
ATOM      1  C   UNL     1      -5.058  10.766  17.752  0.00  0.00    +0.000 C 
ATOM      2  C   UNL     1      -3.620  10.913  18.172  0.00  0.00    +0.000 A 
ATOM      3  C   UNL     1      -2.649  10.079  17.580  0.00  0.00    +0.000 A 
ATOM      4  C   UNL     1      -1.308  10.187  17.975  0.00  0.00    +0.000 A 
ATOM      5  N   UNL     1      -0.208   9.480  17.560  0.00  0.00    +0.000 NA
ATOM      6  C   UNL     1       0.809   9.907  18.286  0.00  0.00    +0.000 A 
ATOM      7  N   UNL     1       0.382  10.898  19.154  0.00  0.00    +0.000 N 
ATOM      8  C   UNL     1      -0.963  11.112  18.943  0.00  0.00    +0.000 A 
ATOM      9  C   UNL     1      -1.890  11.984  19.527  0.00  0.00    +0.000 A 
ATOM     10  C   UNL     1      -3.238  11.859  19.151  0.00  0.00    +0.000 A 
ATOM     11  C   UNL     1      -4.255  12.735  19.833  0.00  0.00    +0.000 C 
ENDROOT
BRANCH   6  12
ATOM     12  C   UNL     1       2.199   9.338  18.292  0.00  0.00    +0.000 C 
BRANCH  12  13
ATOM     13  C   UNL     1       2.354   7.815  18.100  0.00  0.00    +0.000 C 
ATOM     14  C   UNL     1       3.520   7.358  17.197  0.00  0.00    +0.000 C 
ATOM     15  C   UNL     1       3.902   5.877  17.396  0.00  0.00    +0.000 C 
ATOM     16  C   UNL     1       4.899   5.665  18.542  0.00  0.00    +0.000 C 
ATOM     17  C   UNL     1       4.038   5.257  19.732  0.00  0.00    +0.000 C 
ATOM     18  C   UNL     1       2.614   5.519  19.255  0.00  0.00    +0.000 C 
ATOM     19  C   UNL     1       2.228   7.010  19.408  0.00  0.00    +0.000 C 
ATOM     20  N   UNL     1       2.729   5.115  17.846  0.00  0.00    +0.000 NA
ATOM     21  H   UNL     1       1.900   5.373  17.314  0.00  0.00    +0.000 HD
ENDBRANCH  12  13
ENDBRANCH   6  12
BRANCH   7  22
ATOM     22  C   UNL     1       1.143  11.512  20.235  0.00  0.00    +0.000 C 
BRANCH  22  23
ATOM     23  C   UNL     1       1.551  12.947  19.994  0.00  0.00    +0.000 A 
ATOM     24  C   UNL     1       1.236  14.004  20.860  0.00  0.00    +0.000 A 
ATOM     25  C   UNL     1       1.560  15.322  20.523  0.00  0.00    +0.000 A 
ATOM     26  C   UNL     1       2.211  15.593  19.324  0.00  0.00    +0.000 A 
ATOM     27 CL   UNL     1       2.546  17.221  18.879  0.00  0.00    +0.000 Cl
ATOM     28  C   UNL     1       2.578  14.555  18.473  0.00  0.00    +0.000 A 
ATOM     29  C   UNL     1       2.254  13.239  18.810  0.00  0.00    +0.000 A 
ENDBRANCH  22  23
ENDBRANCH   7  22
TORSDOF 4
ENDMDL
MODEL 7
REMARK VINA RESULT:      -7.8      3.785      6.928
REMARK  Name = 
REMARK  6 active torsions:
REMARK  status: ('A' for Active; 'I' for Inactive)
REMARK    1  A    between atoms: C_1  and  C_2
REMARK    2  A    between atoms: C_6  and  C_7
REMARK    3  A    between atoms: C_7  and  C_8
REMARK    4  A    between atoms: N_16  and  C_17
REMARK    5  A    between atoms: C_17  and  C_18
REMARK    6  A    between atoms: C_27  and  C_28
REMARK                            x       y       z     vdW  Elec       q    Type
REMARK                         _______ _______ _______ _____ _____    ______ ____
ROOT
ATOM      1  C   UNL     1       3.730  16.158  18.144  0.00  0.00    +0.000 C 
ATOM      2  C   UNL     1       2.778  15.014  18.370  0.00  0.00    +0.000 A 
ATOM      3  C   UNL     1       3.227  13.698  18.133  0.00  0.00    +0.000 A 
ATOM      4  C   UNL     1       2.348  12.621  18.319  0.00  0.00    +0.000 A 
ATOM      5  N   UNL     1       2.550  11.277  18.135  0.00  0.00    +0.000 NA
ATOM      6  C   UNL     1       1.393  10.687  18.370  0.00  0.00    +0.000 A 
ATOM      7  N   UNL     1       0.447  11.634  18.724  0.00  0.00    +0.000 N 
ATOM      8  C   UNL     1       1.051  12.873  18.728  0.00  0.00    +0.000 A 
ATOM      9  C   UNL     1       0.578  14.160  19.009  0.00  0.00    +0.000 A 
ATOM     10  C   UNL     1       1.450  15.242  18.799  0.00  0.00    +0.000 A 
ATOM     11  C   UNL     1       0.927  16.637  19.021  0.00  0.00    +0.000 C 
ENDROOT
BRANCH   6  12
ATOM     12  C   UNL     1       1.078   9.232  18.167  0.00  0.00    +0.000 C 
BRANCH  12  13
ATOM     13  C   UNL     1       2.083   8.196  18.713  0.00  0.00    +0.000 C 
ATOM     14  C   UNL     1       1.664   7.455  20.002  0.00  0.00    +0.000 C 
ATOM     15  C   UNL     1       2.458   6.156  20.245  0.00  0.00    +0.000 C 
ATOM     16  C   UNL     1       1.855   4.942  19.525  0.00  0.00    +0.000 C 
ATOM     17  C   UNL     1       2.671   4.809  18.244  0.00  0.00    +0.000 C 
ATOM     18  C   UNL     1       3.492   6.092  18.203  0.00  0.00    +0.000 C 
ATOM     19  C   UNL     1       2.673   7.273  17.629  0.00  0.00    +0.000 C 
ATOM     20  N   UNL     1       3.789   6.263  19.632  0.00  0.00    +0.000 NA
ATOM     21  H   UNL     1       4.206   7.172  19.822  0.00  0.00    +0.000 HD
ENDBRANCH  12  13
ENDBRANCH   6  12
BRANCH   7  22
ATOM     22  C   UNL     1      -0.985  11.428  18.900  0.00  0.00    +0.000 C 
BRANCH  22  23
ATOM     23  C   UNL     1      -1.521  11.798  20.263  0.00  0.00    +0.000 A 
ATOM     24  C   UNL     1      -0.945  11.377  21.470  0.00  0.00    +0.000 A 
ATOM     25  C   UNL     1      -1.553  11.674  22.694  0.00  0.00    +0.000 A 
ATOM     26  C   UNL     1      -2.737  12.404  22.721  0.00  0.00    +0.000 A 
ATOM     27 CL   UNL     1      -3.522  12.708  24.222  0.00  0.00    +0.000 Cl
ATOM     28  C   UNL     1      -3.301  12.875  21.539  0.00  0.00    +0.000 A 
ATOM     29  C   UNL     1      -2.693  12.577  20.318  0.00  0.00    +0.000 A 
ENDBRANCH  22  23
ENDBRANCH   7  22
TORSDOF 4
ENDMDL
MODEL 8
REMARK VINA RESULT:      -7.7      4.569     10.043
REMARK  Name = 
REMARK  6 active torsions:
REMARK  status: ('A' for Active; 'I' for Inactive)
REMARK    1  A    between atoms: C_1  and  C_2
REMARK    2  A    between atoms: C_6  and  C_7
REMARK    3  A    between atoms: C_7  and  C_8
REMARK    4  A    between atoms: N_16  and  C_17
REMARK    5  A    between atoms: C_17  and  C_18
REMARK    6  A    between atoms: C_27  and  C_28
REMARK                            x       y       z     vdW  Elec       q    Type
REMARK                         _______ _______ _______ _____ _____    ______ ____
ROOT
ATOM      1  C   UNL     1       2.756   6.248  19.967  0.00  0.00    +0.000 C 
ATOM      2  C   UNL     1       2.044   7.566  19.818  0.00  0.00    +0.000 A 
ATOM      3  C   UNL     1       1.265   8.044  20.892  0.00  0.00    +0.000 A 
ATOM      4  C   UNL     1       0.578   9.260  20.762  0.00  0.00    +0.000 A 
ATOM      5  N   UNL     1      -0.244   9.906  21.651  0.00  0.00    +0.000 NA
ATOM      6  C   UNL     1      -0.704  10.975  21.029  0.00  0.00    +0.000 A 
ATOM      7  N   UNL     1      -0.172  11.040  19.752  0.00  0.00    +0.000 N 
ATOM      8  C   UNL     1       0.676   9.967  19.578  0.00  0.00    +0.000 A 
ATOM      9  C   UNL     1       1.468   9.545  18.504  0.00  0.00    +0.000 A 
ATOM     10  C   UNL     1       2.136   8.315  18.622  0.00  0.00    +0.000 A 
ATOM     11  C   UNL     1       2.926   7.813  17.442  0.00  0.00    +0.000 C 
ENDROOT
BRANCH   6  12
ATOM     12  C   UNL     1      -1.746  11.926  21.545  0.00  0.00    +0.000 C 
BRANCH  12  13
ATOM     13  C   UNL     1      -1.305  12.981  22.582  0.00  0.00    +0.000 C 
ATOM     14  C   UNL     1      -0.252  14.005  22.105  0.00  0.00    +0.000 C 
ATOM     15  C   UNL     1      -0.185  15.268  22.989  0.00  0.00    +0.000 C 
ATOM     16  C   UNL     1      -1.202  16.340  22.577  0.00  0.00    +0.000 C 
ATOM     17  C   UNL     1      -2.378  16.143  23.527  0.00  0.00    +0.000 C 
ATOM     18  C   UNL     1      -2.061  14.825  24.225  0.00  0.00    +0.000 C 
ATOM     19  C   UNL     1      -2.476  13.610  23.361  0.00  0.00    +0.000 C 
ATOM     20  N   UNL     1      -0.602  14.940  24.359  0.00  0.00    +0.000 NA
ATOM     21  H   UNL     1      -0.184  14.065  24.668  0.00  0.00    +0.000 HD
ENDBRANCH  12  13
ENDBRANCH   6  12
BRANCH   7  22
ATOM     22  C   UNL     1      -0.546  11.960  18.686  0.00  0.00    +0.000 C 
BRANCH  22  23
ATOM     23  C   UNL     1       0.253  13.242  18.638  0.00  0.00    +0.000 A 
ATOM     24  C   UNL     1       1.652  13.288  18.557  0.00  0.00    +0.000 A 
ATOM     25  C   UNL     1       2.330  14.509  18.618  0.00  0.00    +0.000 A 
ATOM     26  C   UNL     1       1.615  15.695  18.750  0.00  0.00    +0.000 A 
ATOM     27 CL   UNL     1       2.454  17.190  18.897  0.00  0.00    +0.000 Cl
ATOM     28  C   UNL     1       0.224  15.677  18.782  0.00  0.00    +0.000 A 
ATOM     29  C   UNL     1      -0.453  14.457  18.721  0.00  0.00    +0.000 A 
ENDBRANCH  22  23
ENDBRANCH   7  22
TORSDOF 4
ENDMDL
MODEL 9
REMARK VINA RESULT:      -7.7      4.809     10.487
REMARK  Name = 
REMARK  6 active torsions:
REMARK  status: ('A' for Active; 'I' for Inactive)
REMARK    1  A    between atoms: C_1  and  C_2
REMARK    2  A    between atoms: C_6  and  C_7
REMARK    3  A    between atoms: C_7  and  C_8
REMARK    4  A    between atoms: N_16  and  C_17
REMARK    5  A    between atoms: C_17  and  C_18
REMARK    6  A    between atoms: C_27  and  C_28
REMARK                            x       y       z     vdW  Elec       q    Type
REMARK                         _______ _______ _______ _____ _____    ______ ____
ROOT
ATOM      1  C   UNL     1       1.781   6.383  20.789  0.00  0.00    +0.000 C 
ATOM      2  C   UNL     1       1.352   7.782  20.434  0.00  0.00    +0.000 A 
ATOM      3  C   UNL     1       0.563   8.506  21.351  0.00  0.00    +0.000 A 
ATOM      4  C   UNL     1       0.137   9.803  21.026  0.00  0.00    +0.000 A 
ATOM      5  N   UNL     1      -0.642  10.678  21.740  0.00  0.00    +0.000 NA
ATOM      6  C   UNL     1      -0.818  11.736  20.972  0.00  0.00    +0.000 A 
ATOM      7  N   UNL     1      -0.144  11.564  19.774  0.00  0.00    +0.000 N 
ATOM      8  C   UNL     1       0.499  10.346  19.807  0.00  0.00    +0.000 A 
ATOM      9  C   UNL     1       1.312   9.674  18.887  0.00  0.00    +0.000 A 
ATOM     10  C   UNL     1       1.718   8.366  19.199  0.00  0.00    +0.000 A 
ATOM     11  C   UNL     1       2.525   7.605  18.180  0.00  0.00    +0.000 C 
ENDROOT
BRANCH   6  12
ATOM     12  C   UNL     1      -1.712  12.908  21.262  0.00  0.00    +0.000 C 
BRANCH  12  13
ATOM     13  C   UNL     1      -2.554  12.867  22.554  0.00  0.00    +0.000 C 
ATOM     14  C   UNL     1      -2.176  13.892  23.646  0.00  0.00    +0.000 C 
ATOM     15  C   UNL     1      -3.291  14.113  24.688  0.00  0.00    +0.000 C 
ATOM     16  C   UNL     1      -4.314  15.172  24.254  0.00  0.00    +0.000 C 
ATOM     17  C   UNL     1      -5.474  14.372  23.673  0.00  0.00    +0.000 C 
ATOM     18  C   UNL     1      -4.925  12.954  23.579  0.00  0.00    +0.000 C 
ATOM     19  C   UNL     1      -4.071  12.758  22.302  0.00  0.00    +0.000 C 
ATOM     20  N   UNL     1      -4.114  12.901  24.804  0.00  0.00    +0.000 NA
ATOM     21  H   UNL     1      -3.532  12.067  24.833  0.00  0.00    +0.000 HD
ENDBRANCH  12  13
ENDBRANCH   6  12
BRANCH   7  22
ATOM     22  C   UNL     1      -0.216  12.413  18.591  0.00  0.00    +0.000 C 
BRANCH  22  23
ATOM     23  C   UNL     1       0.837  13.495  18.516  0.00  0.00    +0.000 A 
ATOM     24  C   UNL     1       2.175  13.260  18.171  0.00  0.00    +0.000 A 
ATOM     25  C   UNL     1       3.116  14.293  18.220  0.00  0.00    +0.000 A 
ATOM     26  C   UNL     1       2.724  15.571  18.603  0.00  0.00    +0.000 A 
ATOM     27 CL   UNL     1       3.897  16.825  18.731  0.00  0.00    +0.000 Cl
ATOM     28  C   UNL     1       1.392  15.839  18.902  0.00  0.00    +0.000 A 
ATOM     29  C   UNL     1       0.453  14.807  18.853  0.00  0.00    +0.000 A 
ENDBRANCH  22  23
ENDBRANCH   7  22
TORSDOF 4
ENDMDL
