MODEL 1
REMARK VINA RESULT:      -7.0      0.000      0.000
REMARK  Name = 
REMARK  4 active torsions:
REMARK  status: ('A' for Active; 'I' for Inactive)
REMARK    1  A    between atoms: C_3  and  O_4
REMARK    2  A    between atoms: C_10  and  O_11
REMARK    3  A    between atoms: C_12  and  O_13
REMARK    4  A    between atoms: C_14  and  O_15
REMARK                            x       y       z     vdW  Elec       q    Type
REMARK                         _______ _______ _______ _____ _____    ______ ____
ROOT
ATOM      1  O   UNL     1       6.441   4.794  19.833  0.00  0.00    +0.000 OA
ATOM      2  C   UNL     1       5.841   5.129  18.806  0.00  0.00    +0.000 A 
ATOM      3  C   UNL     1       6.525   6.114  17.869  0.00  0.00    +0.000 A 
ATOM      4  C   UNL     1       5.904   6.998  17.067  0.00  0.00    +0.000 A 
ATOM      5  C   UNL     1       4.503   6.897  16.733  0.00  0.00    +0.000 A 
ATOM      6  C   UNL     1       3.630   6.797  17.749  0.00  0.00    +0.000 A 
ATOM      7  C   UNL     1       3.393   5.381  18.080  0.00  0.00    +0.000 A 
ATOM      8  C   UNL     1       2.098   4.854  17.908  0.00  0.00    +0.000 A 
ATOM      9  C   UNL     1       1.863   3.530  18.255  0.00  0.00    +0.000 A 
ATOM     10  C   UNL     1       2.896   2.745  18.760  0.00  0.00    +0.000 A 
ATOM     11  C   UNL     1       4.180   3.256  18.915  0.00  0.00    +0.000 A 
ATOM     12  C   UNL     1       4.454   4.589  18.571  0.00  0.00    +0.000 A 
ENDROOT
BRANCH   3  13
ATOM     13  O   UNL     1       7.919   6.102  17.898  0.00  0.00    +0.000 OA
ATOM     14  H   UNL     1       8.202   5.358  18.452  0.00  0.00    +0.000 HD
ENDBRANCH   3  13
BRANCH   9  15
ATOM     15  O   UNL     1       0.635   2.946  18.113  0.00  0.00    +0.000 OA
ATOM     16  H   UNL     1       0.741   2.121  17.608  0.00  0.00    +0.000 HD
ENDBRANCH   9  15
BRANCH  10  17
ATOM     17  O   UNL     1       2.658   1.444  19.118  0.00  0.00    +0.000 OA
ATOM     18  H   UNL     1       2.449   1.484  20.073  0.00  0.00    +0.000 HD
ENDBRANCH  10  17
BRANCH  11  19
ATOM     19  O   UNL     1       5.143   2.409  19.391  0.00  0.00    +0.000 OA
ATOM     20  H   UNL     1       5.039   1.578  18.889  0.00  0.00    +0.000 HD
ENDBRANCH  11  19
TORSDOF 4
ENDMDL
MODEL 2
REMARK VINA RESULT:      -7.0      2.024      4.455
REMARK  Name = 
REMARK  4 active torsions:
REMARK  status: ('A' for Active; 'I' for Inactive)
REMARK    1  A    between atoms: C_3  and  O_4
REMARK    2  A    between atoms: C_10  and  O_11
REMARK    3  A    between atoms: C_12  and  O_13
REMARK    4  A    between atoms: C_14  and  O_15
REMARK                            x       y       z     vdW  Elec       q    Type
REMARK                         _______ _______ _______ _____ _____    ______ ____
ROOT
ATOM      1  O   UNL     1       1.566   2.532  18.344  0.00  0.00    +0.000 OA
ATOM      2  C   UNL     1       2.071   3.550  18.830  0.00  0.00    +0.000 A 
ATOM      3  C   UNL     1       1.500   4.075  20.139  0.00  0.00    +0.000 A 
ATOM      4  C   UNL     1       1.484   5.362  20.531  0.00  0.00    +0.000 A 
ATOM      5  C   UNL     1       2.312   6.373  19.917  0.00  0.00    +0.000 A 
ATOM      6  C   UNL     1       2.250   6.499  18.582  0.00  0.00    +0.000 A 
ATOM      7  C   UNL     1       3.263   5.641  17.942  0.00  0.00    +0.000 A 
ATOM      8  C   UNL     1       4.291   6.250  17.196  0.00  0.00    +0.000 A 
ATOM      9  C   UNL     1       5.225   5.443  16.561  0.00  0.00    +0.000 A 
ATOM     10  C   UNL     1       5.141   4.058  16.667  0.00  0.00    +0.000 A 
ATOM     11  C   UNL     1       4.138   3.452  17.416  0.00  0.00    +0.000 A 
ATOM     12  C   UNL     1       3.179   4.237  18.075  0.00  0.00    +0.000 A 
ENDROOT
BRANCH   3  13
ATOM     13  O   UNL     1       0.911   3.117  20.965  0.00  0.00    +0.000 OA
ATOM     14  H   UNL     1       1.529   2.921  21.686  0.00  0.00    +0.000 HD
ENDBRANCH   3  13
BRANCH   9  15
ATOM     15  O   UNL     1       6.254   5.960  15.823  0.00  0.00    +0.000 OA
ATOM     16  H   UNL     1       6.578   6.765  16.264  0.00  0.00    +0.000 HD
ENDBRANCH   9  15
BRANCH  10  17
ATOM     17  O   UNL     1       6.054   3.263  16.025  0.00  0.00    +0.000 OA
ATOM     18  H   UNL     1       6.580   3.882  15.479  0.00  0.00    +0.000 HD
ENDBRANCH  10  17
BRANCH  11  19
ATOM     19  O   UNL     1       4.143   2.086  17.492  0.00  0.00    +0.000 OA
ATOM     20  H   UNL     1       3.241   1.832  17.764  0.00  0.00    +0.000 HD
ENDBRANCH  11  19
TORSDOF 4
ENDMDL
MODEL 3
REMARK VINA RESULT:      -6.8      1.801      4.536
REMARK  Name = 
REMARK  4 active torsions:
REMARK  status: ('A' for Active; 'I' for Inactive)
REMARK    1  A    between atoms: C_3  and  O_4
REMARK    2  A    between atoms: C_10  and  O_11
REMARK    3  A    between atoms: C_12  and  O_13
REMARK    4  A    between atoms: C_14  and  O_15
REMARK                            x       y       z     vdW  Elec       q    Type
REMARK                         _______ _______ _______ _____ _____    ______ ____
ROOT
ATOM      1  O   UNL     1       5.159   2.447  20.546  0.00  0.00    +0.000 OA
ATOM      2  C   UNL     1       4.223   2.997  19.957  0.00  0.00    +0.000 A 
ATOM      3  C   UNL     1       2.814   2.769  20.486  0.00  0.00    +0.000 A 
ATOM      4  C   UNL     1       1.686   2.775  19.753  0.00  0.00    +0.000 A 
ATOM      5  C   UNL     1       1.625   3.338  18.424  0.00  0.00    +0.000 A 
ATOM      6  C   UNL     1       2.526   2.908  17.527  0.00  0.00    +0.000 A 
ATOM      7  C   UNL     1       3.725   3.763  17.559  0.00  0.00    +0.000 A 
ATOM      8  C   UNL     1       4.056   4.507  16.410  0.00  0.00    +0.000 A 
ATOM      9  C   UNL     1       5.206   5.286  16.425  0.00  0.00    +0.000 A 
ATOM     10  C   UNL     1       6.010   5.324  17.560  0.00  0.00    +0.000 A 
ATOM     11  C   UNL     1       5.679   4.605  18.703  0.00  0.00    +0.000 A 
ATOM     12  C   UNL     1       4.522   3.811  18.724  0.00  0.00    +0.000 A 
ENDROOT
BRANCH   3  13
ATOM     13  O   UNL     1       2.722   2.491  21.850  0.00  0.00    +0.000 OA
ATOM     14  H   UNL     1       1.794   2.593  22.116  0.00  0.00    +0.000 HD
ENDBRANCH   3  13
BRANCH   9  15
ATOM     15  O   UNL     1       5.590   6.039  15.350  0.00  0.00    +0.000 OA
ATOM     16  H   UNL     1       6.512   5.817  15.130  0.00  0.00    +0.000 HD
ENDBRANCH   9  15
BRANCH  10  17
ATOM     17  O   UNL     1       7.154   6.079  17.566  0.00  0.00    +0.000 OA
ATOM     18  H   UNL     1       6.849   6.990  17.752  0.00  0.00    +0.000 HD
ENDBRANCH  10  17
BRANCH  11  19
ATOM     19  O   UNL     1       6.509   4.720  19.784  0.00  0.00    +0.000 OA
ATOM     20  H   UNL     1       5.923   4.777  20.564  0.00  0.00    +0.000 HD
ENDBRANCH  11  19
TORSDOF 4
ENDMDL
MODEL 4
REMARK VINA RESULT:      -6.8      1.684      4.385
REMARK  Name = 
REMARK  4 active torsions:
REMARK  status: ('A' for Active; 'I' for Inactive)
REMARK    1  A    between atoms: C_3  and  O_4
REMARK    2  A    between atoms: C_10  and  O_11
REMARK    3  A    between atoms: C_12  and  O_13
REMARK    4  A    between atoms: C_14  and  O_15
REMARK                            x       y       z     vdW  Elec       q    Type
REMARK                         _______ _______ _______ _____ _____    ______ ____
ROOT
ATOM      1  O   UNL     1       2.872   3.149  19.175  0.00  0.00    +0.000 OA
ATOM      2  C   UNL     1       3.048   4.363  19.323  0.00  0.00    +0.000 A 
ATOM      3  C   UNL     1       2.048   5.132  20.175  0.00  0.00    +0.000 A 
ATOM      4  C   UNL     1       1.718   6.427  20.025  0.00  0.00    +0.000 A 
ATOM      5  C   UNL     1       2.519   7.351  19.257  0.00  0.00    +0.000 A 
ATOM      6  C   UNL     1       2.826   7.005  17.997  0.00  0.00    +0.000 A 
ATOM      7  C   UNL     1       4.102   6.269  17.967  0.00  0.00    +0.000 A 
ATOM      8  C   UNL     1       5.193   6.834  17.278  0.00  0.00    +0.000 A 
ATOM      9  C   UNL     1       6.386   6.126  17.217  0.00  0.00    +0.000 A 
ATOM     10  C   UNL     1       6.492   4.881  17.831  0.00  0.00    +0.000 A 
ATOM     11  C   UNL     1       5.424   4.327  18.527  0.00  0.00    +0.000 A 
ATOM     12  C   UNL     1       4.205   5.017  18.612  0.00  0.00    +0.000 A 
ENDROOT
BRANCH   3  13
ATOM     13  O   UNL     1       1.403   4.388  21.163  0.00  0.00    +0.000 OA
ATOM     14  H   UNL     1       0.687   3.886  20.742  0.00  0.00    +0.000 HD
ENDBRANCH   3  13
BRANCH   9  15
ATOM     15  O   UNL     1       7.490   6.610  16.570  0.00  0.00    +0.000 OA
ATOM     16  H   UNL     1       7.470   6.297  15.649  0.00  0.00    +0.000 HD
ENDBRANCH   9  15
BRANCH  10  17
ATOM     17  O   UNL     1       7.665   4.176  17.754  0.00  0.00    +0.000 OA
ATOM     18  H   UNL     1       8.238   4.572  18.443  0.00  0.00    +0.000 HD
ENDBRANCH  10  17
BRANCH  11  19
ATOM     19  O   UNL     1       5.622   3.112  19.125  0.00  0.00    +0.000 OA
ATOM     20  H   UNL     1       5.789   2.482  18.398  0.00  0.00    +0.000 HD
ENDBRANCH  11  19
TORSDOF 4
ENDMDL
MODEL 5
REMARK VINA RESULT:      -6.8      1.475      1.502
REMARK  Name = 
REMARK  4 active torsions:
REMARK  status: ('A' for Active; 'I' for Inactive)
REMARK    1  A    between atoms: C_3  and  O_4
REMARK    2  A    between atoms: C_10  and  O_11
REMARK    3  A    between atoms: C_12  and  O_13
REMARK    4  A    between atoms: C_14  and  O_15
REMARK                            x       y       z     vdW  Elec       q    Type
REMARK                         _______ _______ _______ _____ _____    ______ ____
ROOT
ATOM      1  O   UNL     1       7.160   4.375  18.685  0.00  0.00    +0.000 OA
ATOM      2  C   UNL     1       6.219   4.766  17.987  0.00  0.00    +0.000 A 
ATOM      3  C   UNL     1       6.532   5.284  16.591  0.00  0.00    +0.000 A 
ATOM      4  C   UNL     1       5.831   6.217  15.921  0.00  0.00    +0.000 A 
ATOM      5  C   UNL     1       4.492   6.604  16.298  0.00  0.00    +0.000 A 
ATOM      6  C   UNL     1       4.290   6.980  17.571  0.00  0.00    +0.000 A 
ATOM      7  C   UNL     1       3.912   5.816  18.392  0.00  0.00    +0.000 A 
ATOM      8  C   UNL     1       2.637   5.795  18.988  0.00  0.00    +0.000 A 
ATOM      9  C   UNL     1       2.292   4.716  19.792  0.00  0.00    +0.000 A 
ATOM     10  C   UNL     1       3.197   3.679  19.998  0.00  0.00    +0.000 A 
ATOM     11  C   UNL     1       4.451   3.687  19.397  0.00  0.00    +0.000 A 
ATOM     12  C   UNL     1       4.831   4.759  18.576  0.00  0.00    +0.000 A 
ENDROOT
BRANCH   3  13
ATOM     13  O   UNL     1       7.677   4.755  15.996  0.00  0.00    +0.000 OA
ATOM     14  H   UNL     1       8.333   5.466  15.922  0.00  0.00    +0.000 HD
ENDBRANCH   3  13
BRANCH   9  15
ATOM     15  O   UNL     1       1.071   4.622  20.402  0.00  0.00    +0.000 OA
ATOM     16  H   UNL     1       0.724   3.723  20.264  0.00  0.00    +0.000 HD
ENDBRANCH   9  15
BRANCH  10  17
ATOM     17  O   UNL     1       2.861   2.624  20.806  0.00  0.00    +0.000 OA
ATOM     18  H   UNL     1       3.042   2.941  21.715  0.00  0.00    +0.000 HD
ENDBRANCH  10  17
BRANCH  11  19
ATOM     19  O   UNL     1       5.269   2.615  19.629  0.00  0.00    +0.000 OA
ATOM     20  H   UNL     1       5.289   2.111  18.793  0.00  0.00    +0.000 HD
ENDBRANCH  11  19
TORSDOF 4
ENDMDL
MODEL 6
REMARK VINA RESULT:      -6.6      1.585      1.817
REMARK  Name = 
REMARK  4 active torsions:
REMARK  status: ('A' for Active; 'I' for Inactive)
REMARK    1  A    between atoms: C_3  and  O_4
REMARK    2  A    between atoms: C_10  and  O_11
REMARK    3  A    between atoms: C_12  and  O_13
REMARK    4  A    between atoms: C_14  and  O_15
REMARK                            x       y       z     vdW  Elec       q    Type
REMARK                         _______ _______ _______ _____ _____    ______ ____
ROOT
ATOM      1  O   UNL     1       5.795   4.410  17.704  0.00  0.00    +0.000 OA
ATOM      2  C   UNL     1       4.746   5.063  17.668  0.00  0.00    +0.000 A 
ATOM      3  C   UNL     1       4.770   6.415  16.971  0.00  0.00    +0.000 A 
ATOM      4  C   UNL     1       3.994   7.472  17.275  0.00  0.00    +0.000 A 
ATOM      5  C   UNL     1       2.798   7.355  18.076  0.00  0.00    +0.000 A 
ATOM      6  C   UNL     1       2.908   6.751  19.269  0.00  0.00    +0.000 A 
ATOM      7  C   UNL     1       2.654   5.305  19.135  0.00  0.00    +0.000 A 
ATOM      8  C   UNL     1       1.545   4.749  19.800  0.00  0.00    +0.000 A 
ATOM      9  C   UNL     1       1.324   3.381  19.704  0.00  0.00    +0.000 A 
ATOM     10  C   UNL     1       2.189   2.583  18.961  0.00  0.00    +0.000 A 
ATOM     11  C   UNL     1       3.276   3.130  18.288  0.00  0.00    +0.000 A 
ATOM     12  C   UNL     1       3.527   4.509  18.360  0.00  0.00    +0.000 A 
ENDROOT
BRANCH   3  13
ATOM     13  O   UNL     1       5.721   6.554  15.960  0.00  0.00    +0.000 OA
ATOM     14  H   UNL     1       5.751   5.722  15.460  0.00  0.00    +0.000 HD
ENDBRANCH   3  13
BRANCH   9  15
ATOM     15  O   UNL     1       0.267   2.768  20.318  0.00  0.00    +0.000 OA
ATOM     16  H   UNL     1       0.527   2.540  21.228  0.00  0.00    +0.000 HD
ENDBRANCH   9  15
BRANCH  10  17
ATOM     17  O   UNL     1       1.980   1.231  18.883  0.00  0.00    +0.000 OA
ATOM     18  H   UNL     1       2.316   0.879  19.733  0.00  0.00    +0.000 HD
ENDBRANCH  10  17
BRANCH  11  19
ATOM     19  O   UNL     1       4.060   2.280  17.558  0.00  0.00    +0.000 OA
ATOM     20  H   UNL     1       3.823   1.380  17.853  0.00  0.00    +0.000 HD
ENDBRANCH  11  19
TORSDOF 4
ENDMDL
MODEL 7
REMARK VINA RESULT:      -6.6      1.768      4.902
REMARK  Name = 
REMARK  4 active torsions:
REMARK  status: ('A' for Active; 'I' for Inactive)
REMARK    1  A    between atoms: C_3  and  O_4
REMARK    2  A    between atoms: C_10  and  O_11
REMARK    3  A    between atoms: C_12  and  O_13
REMARK    4  A    between atoms: C_14  and  O_15
REMARK                            x       y       z     vdW  Elec       q    Type
REMARK                         _______ _______ _______ _____ _____    ______ ____
ROOT
ATOM      1  O   UNL     1       2.035   3.184  16.673  0.00  0.00    +0.000 OA
ATOM      2  C   UNL     1       2.249   3.394  17.872  0.00  0.00    +0.000 A 
ATOM      3  C   UNL     1       1.173   2.992  18.871  0.00  0.00    +0.000 A 
ATOM      4  C   UNL     1       0.935   3.586  20.054  0.00  0.00    +0.000 A 
ATOM      5  C   UNL     1       1.888   4.467  20.688  0.00  0.00    +0.000 A 
ATOM      6  C   UNL     1       2.362   5.492  19.963  0.00  0.00    +0.000 A 
ATOM      7  C   UNL     1       3.589   5.091  19.253  0.00  0.00    +0.000 A 
ATOM      8  C   UNL     1       4.797   5.740  19.572  0.00  0.00    +0.000 A 
ATOM      9  C   UNL     1       5.948   5.389  18.878  0.00  0.00    +0.000 A 
ATOM     10  C   UNL     1       5.899   4.411  17.890  0.00  0.00    +0.000 A 
ATOM     11  C   UNL     1       4.712   3.754  17.584  0.00  0.00    +0.000 A 
ATOM     12  C   UNL     1       3.530   4.081  18.267  0.00  0.00    +0.000 A 
ENDROOT
BRANCH   3  13
ATOM     13  O   UNL     1       0.351   1.936  18.476  0.00  0.00    +0.000 OA
ATOM     14  H   UNL     1       0.117   2.069  17.544  0.00  0.00    +0.000 HD
ENDBRANCH   3  13
BRANCH   9  15
ATOM     15  O   UNL     1       7.160   5.972  19.133  0.00  0.00    +0.000 OA
ATOM     16  H   UNL     1       7.856   5.432  18.719  0.00  0.00    +0.000 HD
ENDBRANCH   9  15
BRANCH  10  17
ATOM     17  O   UNL     1       7.032   4.079  17.194  0.00  0.00    +0.000 OA
ATOM     18  H   UNL     1       7.387   3.294  17.659  0.00  0.00    +0.000 HD
ENDBRANCH  10  17
BRANCH  11  19
ATOM     19  O   UNL     1       4.756   2.786  16.619  0.00  0.00    +0.000 OA
ATOM     20  H   UNL     1       5.338   3.136  15.917  0.00  0.00    +0.000 HD
ENDBRANCH  11  19
TORSDOF 4
ENDMDL
MODEL 8
REMARK VINA RESULT:      -6.6      1.793      4.699
REMARK  Name = 
REMARK  4 active torsions:
REMARK  status: ('A' for Active; 'I' for Inactive)
REMARK    1  A    between atoms: C_3  and  O_4
REMARK    2  A    between atoms: C_10  and  O_11
REMARK    3  A    between atoms: C_12  and  O_13
REMARK    4  A    between atoms: C_14  and  O_15
REMARK                            x       y       z     vdW  Elec       q    Type
REMARK                         _______ _______ _______ _____ _____    ______ ____
ROOT
ATOM      1  O   UNL     1       2.553   3.070  16.777  0.00  0.00    +0.000 OA
ATOM      2  C   UNL     1       2.831   3.897  17.652  0.00  0.00    +0.000 A 
ATOM      3  C   UNL     1       1.913   3.991  18.863  0.00  0.00    +0.000 A 
ATOM      4  C   UNL     1       1.686   5.096  19.595  0.00  0.00    +0.000 A 
ATOM      5  C   UNL     1       2.545   6.256  19.540  0.00  0.00    +0.000 A 
ATOM      6  C   UNL     1       2.799   6.783  18.332  0.00  0.00    +0.000 A 
ATOM      7  C   UNL     1       4.010   6.174  17.755  0.00  0.00    +0.000 A 
ATOM      8  C   UNL     1       5.130   6.993  17.513  0.00  0.00    +0.000 A 
ATOM      9  C   UNL     1       6.259   6.429  16.935  0.00  0.00    +0.000 A 
ATOM     10  C   UNL     1       6.276   5.077  16.606  0.00  0.00    +0.000 A 
ATOM     11  C   UNL     1       5.180   4.260  16.859  0.00  0.00    +0.000 A 
ATOM     12  C   UNL     1       4.023   4.795  17.445  0.00  0.00    +0.000 A 
ENDROOT
BRANCH   3  13
ATOM     13  O   UNL     1       1.229   2.820  19.191  0.00  0.00    +0.000 OA
ATOM     14  H   UNL     1       1.879   2.168  19.498  0.00  0.00    +0.000 HD
ENDBRANCH   3  13
BRANCH   9  15
ATOM     15  O   UNL     1       7.386   7.159  16.673  0.00  0.00    +0.000 OA
ATOM     16  H   UNL     1       8.078   6.555  16.349  0.00  0.00    +0.000 HD
ENDBRANCH   9  15
BRANCH  10  17
ATOM     17  O   UNL     1       7.386   4.527  16.019  0.00  0.00    +0.000 OA
ATOM     18  H   UNL     1       7.091   4.272  15.121  0.00  0.00    +0.000 HD
ENDBRANCH  10  17
BRANCH  11  19
ATOM     19  O   UNL     1       5.289   2.936  16.531  0.00  0.00    +0.000 OA
ATOM     20  H   UNL     1       5.749   2.913  15.669  0.00  0.00    +0.000 HD
ENDBRANCH  11  19
TORSDOF 4
ENDMDL
MODEL 9
REMARK VINA RESULT:      -6.5      1.923      4.536
REMARK  Name = 
REMARK  4 active torsions:
REMARK  status: ('A' for Active; 'I' for Inactive)
REMARK    1  A    between atoms: C_3  and  O_4
REMARK    2  A    between atoms: C_10  and  O_11
REMARK    3  A    between atoms: C_12  and  O_13
REMARK    4  A    between atoms: C_14  and  O_15
REMARK                            x       y       z     vdW  Elec       q    Type
REMARK                         _______ _______ _______ _____ _____    ______ ____
ROOT
ATOM      1  O   UNL     1       4.713   2.135  19.987  0.00  0.00    +0.000 OA
ATOM      2  C   UNL     1       3.813   2.969  20.137  0.00  0.00    +0.000 A 
ATOM      3  C   UNL     1       2.733   2.677  21.168  0.00  0.00    +0.000 A 
ATOM      4  C   UNL     1       1.457   3.100  21.114  0.00  0.00    +0.000 A 
ATOM      5  C   UNL     1       1.029   4.172  20.247  0.00  0.00    +0.000 A 
ATOM      6  C   UNL     1       1.334   4.075  18.943  0.00  0.00    +0.000 A 
ATOM      7  C   UNL     1       2.633   4.717  18.675  0.00  0.00    +0.000 A 
ATOM      8  C   UNL     1       2.669   5.840  17.826  0.00  0.00    +0.000 A 
ATOM      9  C   UNL     1       3.896   6.425  17.542  0.00  0.00    +0.000 A 
ATOM     10  C   UNL     1       5.064   5.904  18.093  0.00  0.00    +0.000 A 
ATOM     11  C   UNL     1       5.032   4.806  18.946  0.00  0.00    +0.000 A 
ATOM     12  C   UNL     1       3.809   4.193  19.257  0.00  0.00    +0.000 A 
ENDROOT
BRANCH   3  13
ATOM     13  O   UNL     1       3.122   1.861  22.231  0.00  0.00    +0.000 OA
ATOM     14  H   UNL     1       3.298   2.429  22.997  0.00  0.00    +0.000 HD
ENDBRANCH   3  13
BRANCH   9  15
ATOM     15  O   UNL     1       4.012   7.520  16.730  0.00  0.00    +0.000 OA
ATOM     16  H   UNL     1       3.254   7.534  16.120  0.00  0.00    +0.000 HD
ENDBRANCH   9  15
BRANCH  10  17
ATOM     17  O   UNL     1       6.275   6.472  17.797  0.00  0.00    +0.000 OA
ATOM     18  H   UNL     1       6.353   6.398  16.824  0.00  0.00    +0.000 HD
ENDBRANCH  10  17
BRANCH  11  19
ATOM     19  O   UNL     1       6.221   4.376  19.466  0.00  0.00    +0.000 OA
ATOM     20  H   UNL     1       6.272   4.757  20.363  0.00  0.00    +0.000 HD
ENDBRANCH  11  19
TORSDOF 4
ENDMDL
