MODEL 1
REMARK VINA RESULT:      -7.6      0.000      0.000
REMARK  Name = 
REMARK  11 active torsions:
REMARK  status: ('A' for Active; 'I' for Inactive)
REMARK    1  A    between atoms: C_1  and  C_2
REMARK    2  A    between atoms: C_2  and  O_3
REMARK    3  A    between atoms: O_3  and  P_4
REMARK    4  A    between atoms: P_4  and  O_6
REMARK    5  A    between atoms: P_4  and  C_9
REMARK    6  A    between atoms: O_6  and  C_7
REMARK    7  A    between atoms: C_7  and  C_8
REMARK    8  A    between atoms: C_12  and  N_13
REMARK    9  A    between atoms: C_14  and  C_16
REMARK   10  A    between atoms: C_23  and  C_24
REMARK   11  A    between atoms: C_25  and  C_26
REMARK                            x       y       z     vdW  Elec       q    Type
REMARK                         _______ _______ _______ _____ _____    ______ ____
ROOT
ATOM      1  N   UNL     1       0.441   9.900  20.070  0.00  0.00    +0.000 N 
ATOM      2  C   UNL     1       0.585  11.264  20.094  0.00  0.00    +0.000 C 
ATOM      3  O   UNL     1       1.486  11.884  19.531  0.00  0.00    +0.000 OA
ATOM      4  H   UNL     1      -0.397   9.539  20.521  0.00  0.00    +0.000 HD
ENDROOT
BRANCH   2   5
ATOM      5  C   UNL     1      -0.540  12.055  20.830  0.00  0.00    +0.000 C 
ATOM      6  S   UNL     1      -1.000  11.159  22.442  0.00  0.00    +0.000 S 
ATOM      7  C   UNL     1      -2.388  12.207  23.029  0.00  0.00    +0.000 C 
ATOM      8  C   UNL     1      -2.706  13.297  22.051  0.00  0.00    +0.000 C 
ATOM      9  O   UNL     1      -2.766  14.489  22.314  0.00  0.00    +0.000 OA
ATOM     10  C   UNL     1      -2.919  12.812  20.684  0.00  0.00    +0.000 A 
ATOM     11  C   UNL     1      -4.216  12.616  20.224  0.00  0.00    +0.000 A 
ATOM     12  C   UNL     1      -4.409  11.911  19.035  0.00  0.00    +0.000 A 
ATOM     13  C   UNL     1      -5.763  11.324  18.750  0.00  0.00    +0.000 C 
ATOM     14  C   UNL     1      -3.300  11.658  18.201  0.00  0.00    +0.000 A 
ATOM     15  C   UNL     1      -3.446  11.150  16.791  0.00  0.00    +0.000 C 
ATOM     16  C   UNL     1      -2.000  11.837  18.710  0.00  0.00    +0.000 A 
ATOM     17  C   UNL     1      -1.813  12.266  20.024  0.00  0.00    +0.000 A 
ENDBRANCH   2   5
BRANCH   1  21
ATOM     18  C   UNL     1       3.060   6.865  18.530  0.00  0.00    +0.000 A 
ATOM     19  C   UNL     1       2.742   7.985  17.750  0.00  0.00    +0.000 A 
ATOM     20  C   UNL     1       1.870   8.995  18.228  0.00  0.00    +0.000 A 
ATOM     21  C   UNL     1       1.305   8.928  19.504  0.00  0.00    +0.000 A 
ATOM     22  C   UNL     1       1.624   7.832  20.297  0.00  0.00    +0.000 A 
ATOM     23  C   UNL     1       2.473   6.828  19.813  0.00  0.00    +0.000 A 
BRANCH  18  24
ATOM     24  P   UNL     1       4.278   5.587  18.047  0.00  0.00    +0.000 P 
ATOM     25  O   UNL     1       4.853   6.556  16.996  0.00  0.00    +0.000 OA
BRANCH  24  26
ATOM     26  O   UNL     1       5.429   4.380  17.589  0.00  0.00    +0.000 OA
BRANCH  26  28
ATOM     27  C   UNL     1       5.957   3.820  15.349  0.00  0.00    +0.000 C 
ATOM     28  C   UNL     1       6.328   4.688  16.538  0.00  0.00    +0.000 C 
ENDBRANCH  26  28
ENDBRANCH  24  26
BRANCH  24  29
ATOM     29  O   UNL     1       3.140   4.648  17.278  0.00  0.00    +0.000 OA
BRANCH  29  30
ATOM     30  C   UNL     1       2.936   3.328  17.769  0.00  0.00    +0.000 C 
ATOM     31  C   UNL     1       1.517   3.205  18.287  0.00  0.00    +0.000 C 
ENDBRANCH  29  30
ENDBRANCH  24  29
ENDBRANCH  18  24
ENDBRANCH   1  21
TORSDOF 7
ENDMDL
MODEL 2
REMARK VINA RESULT:      -7.6      1.188      1.987
REMARK  Name = 
REMARK  11 active torsions:
REMARK  status: ('A' for Active; 'I' for Inactive)
REMARK    1  A    between atoms: C_1  and  C_2
REMARK    2  A    between atoms: C_2  and  O_3
REMARK    3  A    between atoms: O_3  and  P_4
REMARK    4  A    between atoms: P_4  and  O_6
REMARK    5  A    between atoms: P_4  and  C_9
REMARK    6  A    between atoms: O_6  and  C_7
REMARK    7  A    between atoms: C_7  and  C_8
REMARK    8  A    between atoms: C_12  and  N_13
REMARK    9  A    between atoms: C_14  and  C_16
REMARK   10  A    between atoms: C_23  and  C_24
REMARK   11  A    between atoms: C_25  and  C_26
REMARK                            x       y       z     vdW  Elec       q    Type
REMARK                         _______ _______ _______ _____ _____    ______ ____
ROOT
ATOM      1  N   UNL     1       0.736   9.635  19.753  0.00  0.00    +0.000 N 
ATOM      2  C   UNL     1       0.871  10.993  19.620  0.00  0.00    +0.000 C 
ATOM      3  O   UNL     1       1.765  11.551  18.988  0.00  0.00    +0.000 OA
ATOM      4  H   UNL     1      -0.097   9.321  20.246  0.00  0.00    +0.000 HD
ENDROOT
BRANCH   2   5
ATOM      5  C   UNL     1      -0.258  11.855  20.265  0.00  0.00    +0.000 C 
ATOM      6  S   UNL     1      -0.760  11.104  21.938  0.00  0.00    +0.000 S 
ATOM      7  C   UNL     1      -2.146  12.212  22.407  0.00  0.00    +0.000 C 
ATOM      8  C   UNL     1      -2.432  13.218  21.334  0.00  0.00    +0.000 C 
ATOM      9  O   UNL     1      -2.483  14.429  21.494  0.00  0.00    +0.000 OA
ATOM     10  C   UNL     1      -2.625  12.622  20.009  0.00  0.00    +0.000 A 
ATOM     11  C   UNL     1      -3.915  12.402  19.541  0.00  0.00    +0.000 A 
ATOM     12  C   UNL     1      -4.094  11.600  18.412  0.00  0.00    +0.000 A 
ATOM     13  C   UNL     1      -5.450  11.006  18.150  0.00  0.00    +0.000 C 
ATOM     14  C   UNL     1      -2.973  11.266  17.624  0.00  0.00    +0.000 A 
ATOM     15  C   UNL     1      -3.098  10.643  16.260  0.00  0.00    +0.000 C 
ATOM     16  C   UNL     1      -1.681  11.474  18.142  0.00  0.00    +0.000 A 
ATOM     17  C   UNL     1      -1.513  12.011  19.419  0.00  0.00    +0.000 A 
ENDBRANCH   2   5
BRANCH   1  21
ATOM     18  C   UNL     1       3.369   6.615  18.205  0.00  0.00    +0.000 A 
ATOM     19  C   UNL     1       2.847   6.501  19.500  0.00  0.00    +0.000 A 
ATOM     20  C   UNL     1       1.987   7.489  20.042  0.00  0.00    +0.000 A 
ATOM     21  C   UNL     1       1.606   8.610  19.300  0.00  0.00    +0.000 A 
ATOM     22  C   UNL     1       2.101   8.730  18.007  0.00  0.00    +0.000 A 
ATOM     23  C   UNL     1       2.965   7.758  17.483  0.00  0.00    +0.000 A 
BRANCH  18  24
ATOM     24  P   UNL     1       4.373   5.325  17.382  0.00  0.00    +0.000 P 
ATOM     25  O   UNL     1       3.894   4.305  18.434  0.00  0.00    +0.000 OA
BRANCH  24  26
ATOM     26  O   UNL     1       5.322   4.105  16.605  0.00  0.00    +0.000 OA
BRANCH  26  28
ATOM     27  C   UNL     1       5.969   4.060  14.326  0.00  0.00    +0.000 C 
ATOM     28  C   UNL     1       6.346   4.527  15.721  0.00  0.00    +0.000 C 
ENDBRANCH  26  28
ENDBRANCH  24  26
BRANCH  24  29
ATOM     29  O   UNL     1       5.814   5.954  17.928  0.00  0.00    +0.000 OA
BRANCH  29  30
ATOM     30  C   UNL     1       6.365   5.396  19.116  0.00  0.00    +0.000 C 
ATOM     31  C   UNL     1       7.827   5.789  19.215  0.00  0.00    +0.000 C 
ENDBRANCH  29  30
ENDBRANCH  24  29
ENDBRANCH  18  24
ENDBRANCH   1  21
TORSDOF 7
ENDMDL
MODEL 3
REMARK VINA RESULT:      -7.5      7.326      9.542
REMARK  Name = 
REMARK  11 active torsions:
REMARK  status: ('A' for Active; 'I' for Inactive)
REMARK    1  A    between atoms: C_1  and  C_2
REMARK    2  A    between atoms: C_2  and  O_3
REMARK    3  A    between atoms: O_3  and  P_4
REMARK    4  A    between atoms: P_4  and  O_6
REMARK    5  A    between atoms: P_4  and  C_9
REMARK    6  A    between atoms: O_6  and  C_7
REMARK    7  A    between atoms: C_7  and  C_8
REMARK    8  A    between atoms: C_12  and  N_13
REMARK    9  A    between atoms: C_14  and  C_16
REMARK   10  A    between atoms: C_23  and  C_24
REMARK   11  A    between atoms: C_25  and  C_26
REMARK                            x       y       z     vdW  Elec       q    Type
REMARK                         _______ _______ _______ _____ _____    ______ ____
ROOT
ATOM      1  N   UNL     1       9.001   9.653  17.934  0.00  0.00    +0.000 N 
ATOM      2  C   UNL     1       9.293  10.547  18.931  0.00  0.00    +0.000 C 
ATOM      3  O   UNL     1       8.954  10.422  20.106  0.00  0.00    +0.000 OA
ATOM      4  H   UNL     1       9.413   9.857  17.025  0.00  0.00    +0.000 HD
ENDROOT
BRANCH   2   5
ATOM      5  C   UNL     1      10.190  11.755  18.520  0.00  0.00    +0.000 C 
ATOM      6  S   UNL     1      11.275  12.275  19.992  0.00  0.00    +0.000 S 
ATOM      7  C   UNL     1      12.116  13.749  19.291  0.00  0.00    +0.000 C 
ATOM      8  C   UNL     1      11.626  14.055  17.909  0.00  0.00    +0.000 C 
ATOM      9  O   UNL     1      12.333  14.191  16.921  0.00  0.00    +0.000 OA
ATOM     10  C   UNL     1      10.166  14.154  17.814  0.00  0.00    +0.000 A 
ATOM     11  C   UNL     1       9.565  15.407  17.835  0.00  0.00    +0.000 A 
ATOM     12  C   UNL     1       8.183  15.487  18.013  0.00  0.00    +0.000 A 
ATOM     13  C   UNL     1       7.582  16.789  18.464  0.00  0.00    +0.000 C 
ATOM     14  C   UNL     1       7.408  14.315  17.892  0.00  0.00    +0.000 A 
ATOM     15  C   UNL     1       5.905  14.343  17.799  0.00  0.00    +0.000 C 
ATOM     16  C   UNL     1       8.048  13.062  17.904  0.00  0.00    +0.000 A 
ATOM     17  C   UNL     1       9.435  12.982  18.030  0.00  0.00    +0.000 A 
ENDBRANCH   2   5
BRANCH   1  21
ATOM     18  C   UNL     1       6.435   6.210  18.017  0.00  0.00    +0.000 A 
ATOM     19  C   UNL     1       7.593   6.247  18.807  0.00  0.00    +0.000 A 
ATOM     20  C   UNL     1       8.464   7.365  18.788  0.00  0.00    +0.000 A 
ATOM     21  C   UNL     1       8.197   8.486  17.998  0.00  0.00    +0.000 A 
ATOM     22  C   UNL     1       7.044   8.472  17.223  0.00  0.00    +0.000 A 
ATOM     23  C   UNL     1       6.195   7.356  17.231  0.00  0.00    +0.000 A 
BRANCH  18  24
ATOM     24  P   UNL     1       5.190   4.870  18.081  0.00  0.00    +0.000 P 
ATOM     25  O   UNL     1       5.827   4.362  19.389  0.00  0.00    +0.000 OA
BRANCH  24  26
ATOM     26  O   UNL     1       4.013   3.604  18.142  0.00  0.00    +0.000 OA
BRANCH  26  28
ATOM     27  C   UNL     1       1.652   3.436  18.030  0.00  0.00    +0.000 C 
ATOM     28  C   UNL     1       2.834   3.831  18.896  0.00  0.00    +0.000 C 
ENDBRANCH  26  28
ENDBRANCH  24  26
BRANCH  24  29
ATOM     29  O   UNL     1       5.889   4.021  16.833  0.00  0.00    +0.000 OA
BRANCH  29  30
ATOM     30  C   UNL     1       5.235   4.053  15.569  0.00  0.00    +0.000 C 
ATOM     31  C   UNL     1       6.136   4.741  14.562  0.00  0.00    +0.000 C 
ENDBRANCH  29  30
ENDBRANCH  24  29
ENDBRANCH  18  24
ENDBRANCH   1  21
TORSDOF 7
ENDMDL
MODEL 4
REMARK VINA RESULT:      -7.5      0.949      2.107
REMARK  Name = 
REMARK  11 active torsions:
REMARK  status: ('A' for Active; 'I' for Inactive)
REMARK    1  A    between atoms: C_1  and  C_2
REMARK    2  A    between atoms: C_2  and  O_3
REMARK    3  A    between atoms: O_3  and  P_4
REMARK    4  A    between atoms: P_4  and  O_6
REMARK    5  A    between atoms: P_4  and  C_9
REMARK    6  A    between atoms: O_6  and  C_7
REMARK    7  A    between atoms: C_7  and  C_8
REMARK    8  A    between atoms: C_12  and  N_13
REMARK    9  A    between atoms: C_14  and  C_16
REMARK   10  A    between atoms: C_23  and  C_24
REMARK   11  A    between atoms: C_25  and  C_26
REMARK                            x       y       z     vdW  Elec       q    Type
REMARK                         _______ _______ _______ _____ _____    ______ ____
ROOT
ATOM      1  N   UNL     1       0.055  10.129  20.415  0.00  0.00    +0.000 N 
ATOM      2  C   UNL     1       0.346  11.433  20.727  0.00  0.00    +0.000 C 
ATOM      3  O   UNL     1       1.447  11.961  20.578  0.00  0.00    +0.000 OA
ATOM      4  H   UNL     1      -0.920   9.858  20.525  0.00  0.00    +0.000 HD
ENDROOT
BRANCH   2   5
ATOM      5  C   UNL     1      -0.852  12.296  21.228  0.00  0.00    +0.000 C 
ATOM      6  S   UNL     1      -1.529  11.572  22.850  0.00  0.00    +0.000 S 
ATOM      7  C   UNL     1      -2.965  12.676  23.143  0.00  0.00    +0.000 C 
ATOM      8  C   UNL     1      -3.139  13.660  22.027  0.00  0.00    +0.000 C 
ATOM      9  O   UNL     1      -3.215  14.873  22.157  0.00  0.00    +0.000 OA
ATOM     10  C   UNL     1      -3.182  13.037  20.700  0.00  0.00    +0.000 A 
ATOM     11  C   UNL     1      -4.412  12.798  20.099  0.00  0.00    +0.000 A 
ATOM     12  C   UNL     1      -4.461  11.974  18.972  0.00  0.00    +0.000 A 
ATOM     13  C   UNL     1      -5.776  11.363  18.576  0.00  0.00    +0.000 C 
ATOM     14  C   UNL     1      -3.258  11.635  18.319  0.00  0.00    +0.000 A 
ATOM     15  C   UNL     1      -3.230  10.986  16.961  0.00  0.00    +0.000 C 
ATOM     16  C   UNL     1      -2.032  11.864  18.970  0.00  0.00    +0.000 A 
ATOM     17  C   UNL     1      -2.008  12.425  20.247  0.00  0.00    +0.000 A 
ENDBRANCH   2   5
BRANCH   1  21
ATOM     18  C   UNL     1       2.699   7.117  18.871  0.00  0.00    +0.000 A 
ATOM     19  C   UNL     1       2.235   7.041  20.191  0.00  0.00    +0.000 A 
ATOM     20  C   UNL     1       1.373   8.028  20.731  0.00  0.00    +0.000 A 
ATOM     21  C   UNL     1       0.932   9.110  19.964  0.00  0.00    +0.000 A 
ATOM     22  C   UNL     1       1.368   9.191  18.647  0.00  0.00    +0.000 A 
ATOM     23  C   UNL     1       2.235   8.221  18.125  0.00  0.00    +0.000 A 
BRANCH  18  24
ATOM     24  P   UNL     1       3.701   5.821  18.056  0.00  0.00    +0.000 P 
ATOM     25  O   UNL     1       4.453   5.591  19.381  0.00  0.00    +0.000 OA
BRANCH  24  26
ATOM     26  O   UNL     1       4.649   4.596  17.286  0.00  0.00    +0.000 OA
BRANCH  26  28
ATOM     27  C   UNL     1       2.618   3.375  17.275  0.00  0.00    +0.000 C 
ATOM     28  C   UNL     1       4.133   3.276  17.263  0.00  0.00    +0.000 C 
ENDBRANCH  26  28
ENDBRANCH  24  26
BRANCH  24  29
ATOM     29  O   UNL     1       4.587   6.918  17.173  0.00  0.00    +0.000 OA
BRANCH  29  30
ATOM     30  C   UNL     1       5.855   6.496  16.682  0.00  0.00    +0.000 C 
ATOM     31  C   UNL     1       6.947   7.237  17.428  0.00  0.00    +0.000 C 
ENDBRANCH  29  30
ENDBRANCH  24  29
ENDBRANCH  18  24
ENDBRANCH   1  21
TORSDOF 7
ENDMDL
MODEL 5
REMARK VINA RESULT:      -7.5      0.475      1.060
REMARK  Name = 
REMARK  11 active torsions:
REMARK  status: ('A' for Active; 'I' for Inactive)
REMARK    1  A    between atoms: C_1  and  C_2
REMARK    2  A    between atoms: C_2  and  O_3
REMARK    3  A    between atoms: O_3  and  P_4
REMARK    4  A    between atoms: P_4  and  O_6
REMARK    5  A    between atoms: P_4  and  C_9
REMARK    6  A    between atoms: O_6  and  C_7
REMARK    7  A    between atoms: C_7  and  C_8
REMARK    8  A    between atoms: C_12  and  N_13
REMARK    9  A    between atoms: C_14  and  C_16
REMARK   10  A    between atoms: C_23  and  C_24
REMARK   11  A    between atoms: C_25  and  C_26
REMARK                            x       y       z     vdW  Elec       q    Type
REMARK                         _______ _______ _______ _____ _____    ______ ____
ROOT
ATOM      1  N   UNL     1       0.294   9.933  20.101  0.00  0.00    +0.000 N 
ATOM      2  C   UNL     1       0.483  11.291  20.087  0.00  0.00    +0.000 C 
ATOM      3  O   UNL     1       1.471  11.857  19.623  0.00  0.00    +0.000 OA
ATOM      4  H   UNL     1      -0.608   9.618  20.453  0.00  0.00    +0.000 HD
ENDROOT
BRANCH   2   5
ATOM      5  C   UNL     1      -0.699  12.148  20.636  0.00  0.00    +0.000 C 
ATOM      6  S   UNL     1      -1.257  11.465  22.320  0.00  0.00    +0.000 S 
ATOM      7  C   UNL     1      -2.694  12.552  22.669  0.00  0.00    +0.000 C 
ATOM      8  C   UNL     1      -2.958  13.495  21.535  0.00  0.00    +0.000 C 
ATOM      9  O   UNL     1      -3.051  14.710  21.632  0.00  0.00    +0.000 OA
ATOM     10  C   UNL     1      -3.072  12.828  20.234  0.00  0.00    +0.000 A 
ATOM     11  C   UNL     1      -4.332  12.546  19.720  0.00  0.00    +0.000 A 
ATOM     12  C   UNL     1      -4.436  11.685  18.626  0.00  0.00    +0.000 A 
ATOM     13  C   UNL     1      -5.760  11.037  18.334  0.00  0.00    +0.000 C 
ATOM     14  C   UNL     1      -3.269  11.347  17.908  0.00  0.00    +0.000 A 
ATOM     15  C   UNL     1      -3.313  10.654  16.572  0.00  0.00    +0.000 C 
ATOM     16  C   UNL     1      -2.009  11.620  18.472  0.00  0.00    +0.000 A 
ATOM     17  C   UNL     1      -1.917  12.224  19.727  0.00  0.00    +0.000 A 
ENDBRANCH   2   5
BRANCH   1  21
ATOM     18  C   UNL     1       3.001   6.911  18.693  0.00  0.00    +0.000 A 
ATOM     19  C   UNL     1       2.467   6.833  19.986  0.00  0.00    +0.000 A 
ATOM     20  C   UNL     1       1.582   7.823  20.482  0.00  0.00    +0.000 A 
ATOM     21  C   UNL     1       1.188   8.910  19.695  0.00  0.00    +0.000 A 
ATOM     22  C   UNL     1       1.695   8.992  18.404  0.00  0.00    +0.000 A 
ATOM     23  C   UNL     1       2.584   8.019  17.926  0.00  0.00    +0.000 A 
BRANCH  18  24
ATOM     24  P   UNL     1       4.039   5.612  17.929  0.00  0.00    +0.000 P 
ATOM     25  O   UNL     1       4.415   6.596  16.804  0.00  0.00    +0.000 OA
BRANCH  24  26
ATOM     26  O   UNL     1       5.021   4.384  17.206  0.00  0.00    +0.000 OA
BRANCH  26  28
ATOM     27  C   UNL     1       7.379   4.590  17.312  0.00  0.00    +0.000 C 
ATOM     28  C   UNL     1       6.147   4.797  16.450  0.00  0.00    +0.000 C 
ENDBRANCH  26  28
ENDBRANCH  24  26
BRANCH  24  29
ATOM     29  O   UNL     1       2.729   4.735  17.396  0.00  0.00    +0.000 OA
BRANCH  29  30
ATOM     30  C   UNL     1       2.641   3.373  17.802  0.00  0.00    +0.000 C 
ATOM     31  C   UNL     1       1.312   3.148  18.497  0.00  0.00    +0.000 C 
ENDBRANCH  29  30
ENDBRANCH  24  29
ENDBRANCH  18  24
ENDBRANCH   1  21
TORSDOF 7
ENDMDL
MODEL 6
REMARK VINA RESULT:      -7.4      1.518      2.322
REMARK  Name = 
REMARK  11 active torsions:
REMARK  status: ('A' for Active; 'I' for Inactive)
REMARK    1  A    between atoms: C_1  and  C_2
REMARK    2  A    between atoms: C_2  and  O_3
REMARK    3  A    between atoms: O_3  and  P_4
REMARK    4  A    between atoms: P_4  and  O_6
REMARK    5  A    between atoms: P_4  and  C_9
REMARK    6  A    between atoms: O_6  and  C_7
REMARK    7  A    between atoms: C_7  and  C_8
REMARK    8  A    between atoms: C_12  and  N_13
REMARK    9  A    between atoms: C_14  and  C_16
REMARK   10  A    between atoms: C_23  and  C_24
REMARK   11  A    between atoms: C_25  and  C_26
REMARK                            x       y       z     vdW  Elec       q    Type
REMARK                         _______ _______ _______ _____ _____    ______ ____
ROOT
ATOM      1  N   UNL     1       1.377   9.341  19.723  0.00  0.00    +0.000 N 
ATOM      2  C   UNL     1       0.459   9.358  20.742  0.00  0.00    +0.000 C 
ATOM      3  O   UNL     1       0.183   8.394  21.453  0.00  0.00    +0.000 OA
ATOM      4  H   UNL     1       1.549  10.238  19.272  0.00  0.00    +0.000 HD
ENDROOT
BRANCH   2   5
ATOM      5  C   UNL     1      -0.202  10.739  21.040  0.00  0.00    +0.000 C 
ATOM      6  S   UNL     1      -1.062  10.684  22.734  0.00  0.00    +0.000 S 
ATOM      7  C   UNL     1      -1.836  12.348  22.777  0.00  0.00    +0.000 C 
ATOM      8  C   UNL     1      -1.597  13.098  21.502  0.00  0.00    +0.000 C 
ATOM      9  O   UNL     1      -1.115  14.218  21.420  0.00  0.00    +0.000 OA
ATOM     10  C   UNL     1      -1.971  12.345  20.301  0.00  0.00    +0.000 A 
ATOM     11  C   UNL     1      -3.202  12.585  19.702  0.00  0.00    +0.000 A 
ATOM     12  C   UNL     1      -3.663  11.692  18.732  0.00  0.00    +0.000 A 
ATOM     13  C   UNL     1      -5.128  11.679  18.395  0.00  0.00    +0.000 C 
ATOM     14  C   UNL     1      -2.769  10.743  18.194  0.00  0.00    +0.000 A 
ATOM     15  C   UNL     1      -3.092   9.929  16.969  0.00  0.00    +0.000 C 
ATOM     16  C   UNL     1      -1.544  10.505  18.844  0.00  0.00    +0.000 A 
ATOM     17  C   UNL     1      -1.217  11.204  20.006  0.00  0.00    +0.000 A 
ENDBRANCH   2   5
BRANCH   1  21
ATOM     18  C   UNL     1       3.636   6.115  18.012  0.00  0.00    +0.000 A 
ATOM     19  C   UNL     1       2.969   5.940  19.232  0.00  0.00    +0.000 A 
ATOM     20  C   UNL     1       2.227   6.992  19.826  0.00  0.00    +0.000 A 
ATOM     21  C   UNL     1       2.113   8.242  19.212  0.00  0.00    +0.000 A 
ATOM     22  C   UNL     1       2.754   8.426  17.993  0.00  0.00    +0.000 A 
ATOM     23  C   UNL     1       3.501   7.387  17.419  0.00  0.00    +0.000 A 
BRANCH  18  24
ATOM     24  P   UNL     1       4.500   4.776  17.111  0.00  0.00    +0.000 P 
ATOM     25  O   UNL     1       4.127   3.797  18.242  0.00  0.00    +0.000 OA
BRANCH  24  26
ATOM     26  O   UNL     1       5.316   3.510  16.261  0.00  0.00    +0.000 OA
BRANCH  26  28
ATOM     27  C   UNL     1       5.907   3.986  14.017  0.00  0.00    +0.000 C 
ATOM     28  C   UNL     1       6.417   3.865  15.441  0.00  0.00    +0.000 C 
ENDBRANCH  26  28
ENDBRANCH  24  26
BRANCH  24  29
ATOM     29  O   UNL     1       6.012   5.376  17.462  0.00  0.00    +0.000 OA
BRANCH  29  30
ATOM     30  C   UNL     1       6.433   5.342  18.821  0.00  0.00    +0.000 C 
ATOM     31  C   UNL     1       7.811   5.966  18.928  0.00  0.00    +0.000 C 
ENDBRANCH  29  30
ENDBRANCH  24  29
ENDBRANCH  18  24
ENDBRANCH   1  21
TORSDOF 7
ENDMDL
MODEL 7
REMARK VINA RESULT:      -7.4      1.071      1.511
REMARK  Name = 
REMARK  11 active torsions:
REMARK  status: ('A' for Active; 'I' for Inactive)
REMARK    1  A    between atoms: C_1  and  C_2
REMARK    2  A    between atoms: C_2  and  O_3
REMARK    3  A    between atoms: O_3  and  P_4
REMARK    4  A    between atoms: P_4  and  O_6
REMARK    5  A    between atoms: P_4  and  C_9
REMARK    6  A    between atoms: O_6  and  C_7
REMARK    7  A    between atoms: C_7  and  C_8
REMARK    8  A    between atoms: C_12  and  N_13
REMARK    9  A    between atoms: C_14  and  C_16
REMARK   10  A    between atoms: C_23  and  C_24
REMARK   11  A    between atoms: C_25  and  C_26
REMARK                            x       y       z     vdW  Elec       q    Type
REMARK                         _______ _______ _______ _____ _____    ______ ____
ROOT
ATOM      1  N   UNL     1       0.677   9.595  19.826  0.00  0.00    +0.000 N 
ATOM      2  C   UNL     1       0.807  10.933  19.554  0.00  0.00    +0.000 C 
ATOM      3  O   UNL     1       1.678  11.421  18.837  0.00  0.00    +0.000 OA
ATOM      4  H   UNL     1      -0.138   9.336  20.378  0.00  0.00    +0.000 HD
ENDROOT
BRANCH   2   5
ATOM      5  C   UNL     1      -0.296  11.859  20.152  0.00  0.00    +0.000 C 
ATOM      6  S   UNL     1      -0.767  11.253  21.891  0.00  0.00    +0.000 S 
ATOM      7  C   UNL     1      -2.129  12.415  22.299  0.00  0.00    +0.000 C 
ATOM      8  C   UNL     1      -2.429  13.334  21.155  0.00  0.00    +0.000 C 
ATOM      9  O   UNL     1      -2.461  14.554  21.217  0.00  0.00    +0.000 OA
ATOM     10  C   UNL     1      -2.660  12.634  19.887  0.00  0.00    +0.000 A 
ATOM     11  C   UNL     1      -3.963  12.395  19.468  0.00  0.00    +0.000 A 
ATOM     12  C   UNL     1      -4.178  11.507  18.413  0.00  0.00    +0.000 A 
ATOM     13  C   UNL     1      -5.546  10.911  18.231  0.00  0.00    +0.000 C 
ATOM     14  C   UNL     1      -3.079  11.094  17.630  0.00  0.00    +0.000 A 
ATOM     15  C   UNL     1      -3.244  10.364  16.324  0.00  0.00    +0.000 C 
ATOM     16  C   UNL     1      -1.773  11.327  18.100  0.00  0.00    +0.000 A 
ATOM     17  C   UNL     1      -1.569  11.963  19.325  0.00  0.00    +0.000 A 
ENDBRANCH   2   5
BRANCH   1  21
ATOM     18  C   UNL     1       3.261   6.435  18.492  0.00  0.00    +0.000 A 
ATOM     19  C   UNL     1       2.698   6.393  19.775  0.00  0.00    +0.000 A 
ATOM     20  C   UNL     1       1.853   7.428  20.246  0.00  0.00    +0.000 A 
ATOM     21  C   UNL     1       1.528   8.527  19.445  0.00  0.00    +0.000 A 
ATOM     22  C   UNL     1       2.064   8.575  18.164  0.00  0.00    +0.000 A 
ATOM     23  C   UNL     1       2.914   7.556  17.710  0.00  0.00    +0.000 A 
BRANCH  18  24
ATOM     24  P   UNL     1       4.249   5.081  17.757  0.00  0.00    +0.000 P 
ATOM     25  O   UNL     1       2.948   4.424  17.258  0.00  0.00    +0.000 OA
BRANCH  24  26
ATOM     26  O   UNL     1       5.183   3.801  17.063  0.00  0.00    +0.000 OA
BRANCH  26  28
ATOM     27  C   UNL     1       7.206   5.028  16.948  0.00  0.00    +0.000 C 
ATOM     28  C   UNL     1       6.234   4.152  16.179  0.00  0.00    +0.000 C 
ENDBRANCH  26  28
ENDBRANCH  24  26
BRANCH  24  29
ATOM     29  O   UNL     1       4.606   4.403  19.234  0.00  0.00    +0.000 OA
BRANCH  29  30
ATOM     30  C   UNL     1       4.428   2.997  19.372  0.00  0.00    +0.000 C 
ATOM     31  C   UNL     1       3.302   2.734  20.352  0.00  0.00    +0.000 C 
ENDBRANCH  29  30
ENDBRANCH  24  29
ENDBRANCH  18  24
ENDBRANCH   1  21
TORSDOF 7
ENDMDL
MODEL 8
REMARK VINA RESULT:      -7.3      1.335      1.693
REMARK  Name = 
REMARK  11 active torsions:
REMARK  status: ('A' for Active; 'I' for Inactive)
REMARK    1  A    between atoms: C_1  and  C_2
REMARK    2  A    between atoms: C_2  and  O_3
REMARK    3  A    between atoms: O_3  and  P_4
REMARK    4  A    between atoms: P_4  and  O_6
REMARK    5  A    between atoms: P_4  and  C_9
REMARK    6  A    between atoms: O_6  and  C_7
REMARK    7  A    between atoms: C_7  and  C_8
REMARK    8  A    between atoms: C_12  and  N_13
REMARK    9  A    between atoms: C_14  and  C_16
REMARK   10  A    between atoms: C_23  and  C_24
REMARK   11  A    between atoms: C_25  and  C_26
REMARK                            x       y       z     vdW  Elec       q    Type
REMARK                         _______ _______ _______ _____ _____    ______ ____
ROOT
ATOM      1  N   UNL     1       0.830   9.583  20.000  0.00  0.00    +0.000 N 
ATOM      2  C   UNL     1       0.745  10.124  21.257  0.00  0.00    +0.000 C 
ATOM      3  O   UNL     1       1.428   9.776  22.218  0.00  0.00    +0.000 OA
ATOM      4  H   UNL     1       0.251  10.027  19.290  0.00  0.00    +0.000 HD
ENDROOT
BRANCH   2   5
ATOM      5  C   UNL     1      -0.244  11.320  21.417  0.00  0.00    +0.000 C 
ATOM      6  S   UNL     1      -1.323  11.054  22.959  0.00  0.00    +0.000 S 
ATOM      7  C   UNL     1      -2.444  12.503  22.844  0.00  0.00    +0.000 C 
ATOM      8  C   UNL     1      -2.183  13.303  21.604  0.00  0.00    +0.000 C 
ATOM      9  O   UNL     1      -1.954  14.503  21.572  0.00  0.00    +0.000 OA
ATOM     10  C   UNL     1      -2.189  12.500  20.377  0.00  0.00    +0.000 A 
ATOM     11  C   UNL     1      -3.333  12.467  19.590  0.00  0.00    +0.000 A 
ATOM     12  C   UNL     1      -3.428  11.506  18.581  0.00  0.00    +0.000 A 
ATOM     13  C   UNL     1      -4.783  11.170  18.023  0.00  0.00    +0.000 C 
ATOM     14  C   UNL     1      -2.273  10.786  18.210  0.00  0.00    +0.000 A 
ATOM     15  C   UNL     1      -2.214   9.935  16.969  0.00  0.00    +0.000 C 
ATOM     16  C   UNL     1      -1.143  10.819  19.047  0.00  0.00    +0.000 A 
ATOM     17  C   UNL     1      -1.164  11.559  20.229  0.00  0.00    +0.000 A 
ENDBRANCH   2   5
BRANCH   1  21
ATOM     18  C   UNL     1       3.219   6.348  18.492  0.00  0.00    +0.000 A 
ATOM     19  C   UNL     1       2.611   6.250  19.751  0.00  0.00    +0.000 A 
ATOM     20  C   UNL     1       1.829   7.307  20.279  0.00  0.00    +0.000 A 
ATOM     21  C   UNL     1       1.613   8.486  19.559  0.00  0.00    +0.000 A 
ATOM     22  C   UNL     1       2.194   8.591  18.301  0.00  0.00    +0.000 A 
ATOM     23  C   UNL     1       2.982   7.549  17.792  0.00  0.00    +0.000 A 
BRANCH  18  24
ATOM     24  P   UNL     1       4.129   4.984  17.680  0.00  0.00    +0.000 P 
ATOM     25  O   UNL     1       2.785   4.312  17.337  0.00  0.00    +0.000 OA
BRANCH  24  26
ATOM     26  O   UNL     1       4.989   3.693  16.913  0.00  0.00    +0.000 OA
BRANCH  26  28
ATOM     27  C   UNL     1       5.572   4.349  14.712  0.00  0.00    +0.000 C 
ATOM     28  C   UNL     1       6.100   4.030  16.099  0.00  0.00    +0.000 C 
ENDBRANCH  26  28
ENDBRANCH  24  26
BRANCH  24  29
ATOM     29  O   UNL     1       4.647   4.334  19.122  0.00  0.00    +0.000 OA
BRANCH  29  30
ATOM     30  C   UNL     1       4.449   2.940  19.324  0.00  0.00    +0.000 C 
ATOM     31  C   UNL     1       3.389   2.738  20.390  0.00  0.00    +0.000 C 
ENDBRANCH  29  30
ENDBRANCH  24  29
ENDBRANCH  18  24
ENDBRANCH   1  21
TORSDOF 7
ENDMDL
MODEL 9
REMARK VINA RESULT:      -7.3      1.028      1.155
REMARK  Name = 
REMARK  11 active torsions:
REMARK  status: ('A' for Active; 'I' for Inactive)
REMARK    1  A    between atoms: C_1  and  C_2
REMARK    2  A    between atoms: C_2  and  O_3
REMARK    3  A    between atoms: O_3  and  P_4
REMARK    4  A    between atoms: P_4  and  O_6
REMARK    5  A    between atoms: P_4  and  C_9
REMARK    6  A    between atoms: O_6  and  C_7
REMARK    7  A    between atoms: C_7  and  C_8
REMARK    8  A    between atoms: C_12  and  N_13
REMARK    9  A    between atoms: C_14  and  C_16
REMARK   10  A    between atoms: C_23  and  C_24
REMARK   11  A    between atoms: C_25  and  C_26
REMARK                            x       y       z     vdW  Elec       q    Type
REMARK                         _______ _______ _______ _____ _____    ______ ____
ROOT
ATOM      1  N   UNL     1       0.087  10.142  20.156  0.00  0.00    +0.000 N 
ATOM      2  C   UNL     1       0.393  11.409  20.582  0.00  0.00    +0.000 C 
ATOM      3  O   UNL     1       1.517  11.907  20.549  0.00  0.00    +0.000 OA
ATOM      4  H   UNL     1      -0.901   9.898  20.178  0.00  0.00    +0.000 HD
ENDROOT
BRANCH   2   5
ATOM      5  C   UNL     1      -0.811  12.276  21.062  0.00  0.00    +0.000 C 
ATOM      6  S   UNL     1      -1.470  11.599  22.711  0.00  0.00    +0.000 S 
ATOM      7  C   UNL     1      -2.917  12.698  22.976  0.00  0.00    +0.000 C 
ATOM      8  C   UNL     1      -3.108  13.641  21.828  0.00  0.00    +0.000 C 
ATOM      9  O   UNL     1      -3.197  14.857  21.918  0.00  0.00    +0.000 OA
ATOM     10  C   UNL     1      -3.152  12.974  20.523  0.00  0.00    +0.000 A 
ATOM     11  C   UNL     1      -4.383  12.701  19.938  0.00  0.00    +0.000 A 
ATOM     12  C   UNL     1      -4.430  11.839  18.840  0.00  0.00    +0.000 A 
ATOM     13  C   UNL     1      -5.740  11.200  18.473  0.00  0.00    +0.000 C 
ATOM     14  C   UNL     1      -3.227  11.491  18.191  0.00  0.00    +0.000 A 
ATOM     15  C   UNL     1      -3.199  10.797  16.856  0.00  0.00    +0.000 C 
ATOM     16  C   UNL     1      -1.999  11.755  18.827  0.00  0.00    +0.000 A 
ATOM     17  C   UNL     1      -1.974  12.360  20.084  0.00  0.00    +0.000 A 
ENDBRANCH   2   5
BRANCH   1  21
ATOM     18  C   UNL     1       2.750   7.001  18.937  0.00  0.00    +0.000 A 
ATOM     19  C   UNL     1       2.374   8.000  18.029  0.00  0.00    +0.000 A 
ATOM     20  C   UNL     1       1.486   9.041  18.400  0.00  0.00    +0.000 A 
ATOM     21  C   UNL     1       0.963   9.127  19.693  0.00  0.00    +0.000 A 
ATOM     22  C   UNL     1       1.340   8.154  20.611  0.00  0.00    +0.000 A 
ATOM     23  C   UNL     1       2.204   7.117  20.232  0.00  0.00    +0.000 A 
BRANCH  18  24
ATOM     24  P   UNL     1       3.991   5.704  18.583  0.00  0.00    +0.000 P 
ATOM     25  O   UNL     1       3.054   5.124  17.506  0.00  0.00    +0.000 OA
BRANCH  24  26
ATOM     26  O   UNL     1       5.164   4.477  18.248  0.00  0.00    +0.000 OA
BRANCH  26  28
ATOM     27  C   UNL     1       7.015   4.539  16.771  0.00  0.00    +0.000 C 
ATOM     28  C   UNL     1       6.525   4.865  18.169  0.00  0.00    +0.000 C 
ENDBRANCH  26  28
ENDBRANCH  24  26
BRANCH  24  29
ATOM     29  O   UNL     1       3.684   4.880  19.996  0.00  0.00    +0.000 OA
BRANCH  29  30
ATOM     30  C   UNL     1       2.968   3.654  19.899  0.00  0.00    +0.000 C 
ATOM     31  C   UNL     1       2.268   3.382  21.217  0.00  0.00    +0.000 C 
ENDBRANCH  29  30
ENDBRANCH  24  29
ENDBRANCH  18  24
ENDBRANCH   1  21
TORSDOF 7
ENDMDL
