MODEL 1
REMARK VINA RESULT:      -7.7      0.000      0.000
REMARK  Name = 
REMARK  5 active torsions:
REMARK  status: ('A' for Active; 'I' for Inactive)
REMARK    1  A    between atoms: C_1  and  N_2
REMARK    2  A    between atoms: N_2  and  C_3
REMARK    3  A    between atoms: N_2  and  C_4
REMARK    4  A    between atoms: N_8  and  C_9
REMARK    5  A    between atoms: C_9  and  C_10
REMARK                            x       y       z     vdW  Elec       q    Type
REMARK                         _______ _______ _______ _____ _____    ______ ____
ROOT
ATOM      1  C   UNL     1       2.085   7.260  19.585  0.00  0.00    +0.000 A 
ATOM      2  C   UNL     1       2.804   7.860  18.538  0.00  0.00    +0.000 A 
ATOM      3  C   UNL     1       3.532   7.087  17.636  0.00  0.00    +0.000 A 
ATOM      4  C   UNL     1       3.558   5.693  17.761  0.00  0.00    +0.000 A 
ATOM      5  C   UNL     1       2.844   5.066  18.783  0.00  0.00    +0.000 A 
ATOM      6  C   UNL     1       2.902   3.674  18.908  0.00  0.00    +0.000 A 
ATOM      7  C   UNL     1       2.242   3.018  19.957  0.00  0.00    +0.000 A 
ATOM      8  C   UNL     1       1.472   3.744  20.850  0.00  0.00    +0.000 A 
ATOM      9  C   UNL     1       1.380   5.128  20.711  0.00  0.00    +0.000 A 
ATOM     10  C   UNL     1       2.084   5.838  19.708  0.00  0.00    +0.000 A 
ATOM     11  C   UNL     1       3.623   2.839  17.918  0.00  0.00    +0.000 C 
ATOM     12  O   UNL     1       3.666   1.620  18.028  0.00  0.00    +0.000 OA
ATOM     13  O   UNL     1       4.159   3.469  16.851  0.00  0.00    +0.000 OA
ATOM     14  C   UNL     1       4.429   4.879  16.857  0.00  0.00    +0.000 C 
ENDROOT
BRANCH   1  15
ATOM     15  C   UNL     1       1.470   8.170  20.639  0.00  0.00    +0.000 C 
BRANCH  15  20
ATOM     16  C   UNL     1       0.294  12.532  20.087  0.00  0.00    +0.000 C 
ATOM     17  C   UNL     1      -0.704  11.986  19.040  0.00  0.00    +0.000 C 
ATOM     18  C   UNL     1      -0.395  10.611  18.446  0.00  0.00    +0.000 C 
ATOM     19  C   UNL     1      -0.258   9.441  19.433  0.00  0.00    +0.000 C 
ATOM     20  N   UNL     1       0.988   9.498  20.197  0.00  0.00    +0.000 NA
ATOM     21  C   UNL     1       0.904  10.352  21.398  0.00  0.00    +0.000 C 
ATOM     22  C   UNL     1       0.137  11.676  21.358  0.00  0.00    +0.000 C 
BRANCH  16  24
ATOM     23  C   UNL     1       2.522  13.443  20.566  0.00  0.00    +0.000 C 
ATOM     24  N   UNL     1       1.695  12.673  19.631  0.00  0.00    +0.000 NA
ATOM     25  C   UNL     1       1.816  13.267  18.299  0.00  0.00    +0.000 C 
ENDBRANCH  16  24
ENDBRANCH  15  20
ENDBRANCH   1  15
TORSDOF 3
ENDMDL
MODEL 2
REMARK VINA RESULT:      -7.4      3.859      7.655
REMARK  Name = 
REMARK  5 active torsions:
REMARK  status: ('A' for Active; 'I' for Inactive)
REMARK    1  A    between atoms: C_1  and  N_2
REMARK    2  A    between atoms: N_2  and  C_3
REMARK    3  A    between atoms: N_2  and  C_4
REMARK    4  A    between atoms: N_8  and  C_9
REMARK    5  A    between atoms: C_9  and  C_10
REMARK                            x       y       z     vdW  Elec       q    Type
REMARK                         _______ _______ _______ _____ _____    ______ ____
ROOT
ATOM      1  C   UNL     1       1.945   8.175  19.713  0.00  0.00    +0.000 A 
ATOM      2  C   UNL     1       1.817   8.413  18.335  0.00  0.00    +0.000 A 
ATOM      3  C   UNL     1       0.902   9.347  17.853  0.00  0.00    +0.000 A 
ATOM      4  C   UNL     1       0.094  10.067  18.740  0.00  0.00    +0.000 A 
ATOM      5  C   UNL     1       0.207   9.862  20.116  0.00  0.00    +0.000 A 
ATOM      6  C   UNL     1      -0.627  10.572  20.987  0.00  0.00    +0.000 A 
ATOM      7  C   UNL     1      -0.578  10.350  22.371  0.00  0.00    +0.000 A 
ATOM      8  C   UNL     1       0.345   9.461  22.895  0.00  0.00    +0.000 A 
ATOM      9  C   UNL     1       1.205   8.777  22.037  0.00  0.00    +0.000 A 
ATOM     10  C   UNL     1       1.144   8.921  20.629  0.00  0.00    +0.000 A 
ATOM     11  C   UNL     1      -1.559  11.612  20.488  0.00  0.00    +0.000 C 
ATOM     12  O   UNL     1      -2.282  12.235  21.255  0.00  0.00    +0.000 OA
ATOM     13  O   UNL     1      -1.517  11.899  19.169  0.00  0.00    +0.000 OA
ATOM     14  C   UNL     1      -0.960  10.987  18.210  0.00  0.00    +0.000 C 
ENDROOT
BRANCH   1  15
ATOM     15  C   UNL     1       2.823   7.013  20.156  0.00  0.00    +0.000 C 
BRANCH  15  20
ATOM     16  C   UNL     1       1.813   3.085  18.092  0.00  0.00    +0.000 C 
ATOM     17  C   UNL     1       0.852   2.866  19.285  0.00  0.00    +0.000 C 
ATOM     18  C   UNL     1       1.148   3.654  20.561  0.00  0.00    +0.000 C 
ATOM     19  C   UNL     1       1.199   5.186  20.436  0.00  0.00    +0.000 C 
ATOM     20  N   UNL     1       2.406   5.651  19.754  0.00  0.00    +0.000 NA
ATOM     21  C   UNL     1       2.287   5.650  18.282  0.00  0.00    +0.000 C 
ATOM     22  C   UNL     1       1.564   4.508  17.562  0.00  0.00    +0.000 C 
BRANCH  16  24
ATOM     23  C   UNL     1       4.113   3.186  17.243  0.00  0.00    +0.000 C 
ATOM     24  N   UNL     1       3.238   2.781  18.348  0.00  0.00    +0.000 NA
ATOM     25  C   UNL     1       3.488   1.372  18.652  0.00  0.00    +0.000 C 
ENDBRANCH  16  24
ENDBRANCH  15  20
ENDBRANCH   1  15
TORSDOF 3
ENDMDL
MODEL 3
REMARK VINA RESULT:      -7.1      3.889      7.710
REMARK  Name = 
REMARK  5 active torsions:
REMARK  status: ('A' for Active; 'I' for Inactive)
REMARK    1  A    between atoms: C_1  and  N_2
REMARK    2  A    between atoms: N_2  and  C_3
REMARK    3  A    between atoms: N_2  and  C_4
REMARK    4  A    between atoms: N_8  and  C_9
REMARK    5  A    between atoms: C_9  and  C_10
REMARK                            x       y       z     vdW  Elec       q    Type
REMARK                         _______ _______ _______ _____ _____    ______ ____
ROOT
ATOM      1  C   UNL     1       1.590   8.529  19.255  0.00  0.00    +0.000 A 
ATOM      2  C   UNL     1       1.889   7.710  20.355  0.00  0.00    +0.000 A 
ATOM      3  C   UNL     1       1.380   7.997  21.619  0.00  0.00    +0.000 A 
ATOM      4  C   UNL     1       0.557   9.112  21.813  0.00  0.00    +0.000 A 
ATOM      5  C   UNL     1       0.231   9.939  20.736  0.00  0.00    +0.000 A 
ATOM      6  C   UNL     1      -0.572  11.064  20.953  0.00  0.00    +0.000 A 
ATOM      7  C   UNL     1      -0.872  11.946  19.905  0.00  0.00    +0.000 A 
ATOM      8  C   UNL     1      -0.421  11.676  18.624  0.00  0.00    +0.000 A 
ATOM      9  C   UNL     1       0.349  10.536  18.393  0.00  0.00    +0.000 A 
ATOM     10  C   UNL     1       0.732   9.656  19.434  0.00  0.00    +0.000 A 
ATOM     11  C   UNL     1      -1.169  11.344  22.281  0.00  0.00    +0.000 C 
ATOM     12  O   UNL     1      -1.876  12.327  22.465  0.00  0.00    +0.000 OA
ATOM     13  O   UNL     1      -0.967  10.430  23.254  0.00  0.00    +0.000 OA
ATOM     14  C   UNL     1       0.104   9.475  23.192  0.00  0.00    +0.000 C 
ENDROOT
BRANCH   1  15
ATOM     15  C   UNL     1       2.329   8.267  17.950  0.00  0.00    +0.000 C 
BRANCH  15  20
ATOM     16  C   UNL     1       5.788   5.384  17.289  0.00  0.00    +0.000 C 
ATOM     17  C   UNL     1       4.816   4.311  17.834  0.00  0.00    +0.000 C 
ATOM     18  C   UNL     1       3.651   4.809  18.690  0.00  0.00    +0.000 C 
ATOM     19  C   UNL     1       2.705   5.837  18.048  0.00  0.00    +0.000 C 
ATOM     20  N   UNL     1       3.313   7.162  17.934  0.00  0.00    +0.000 NA
ATOM     21  C   UNL     1       4.135   7.329  16.719  0.00  0.00    +0.000 C 
ATOM     22  C   UNL     1       5.026   6.189  16.220  0.00  0.00    +0.000 C 
BRANCH  16  24
ATOM     23  C   UNL     1       7.482   7.103  17.733  0.00  0.00    +0.000 C 
ATOM     24  N   UNL     1       6.457   6.224  18.306  0.00  0.00    +0.000 NA
ATOM     25  C   UNL     1       7.058   5.452  19.395  0.00  0.00    +0.000 C 
ENDBRANCH  16  24
ENDBRANCH  15  20
ENDBRANCH   1  15
TORSDOF 3
ENDMDL
MODEL 4
REMARK VINA RESULT:      -7.0      4.020      8.105
REMARK  Name = 
REMARK  5 active torsions:
REMARK  status: ('A' for Active; 'I' for Inactive)
REMARK    1  A    between atoms: C_1  and  N_2
REMARK    2  A    between atoms: N_2  and  C_3
REMARK    3  A    between atoms: N_2  and  C_4
REMARK    4  A    between atoms: N_8  and  C_9
REMARK    5  A    between atoms: C_9  and  C_10
REMARK                            x       y       z     vdW  Elec       q    Type
REMARK                         _______ _______ _______ _____ _____    ______ ____
ROOT
ATOM      1  C   UNL     1       1.356   8.605  20.345  0.00  0.00    +0.000 A 
ATOM      2  C   UNL     1       1.464   8.493  21.741  0.00  0.00    +0.000 A 
ATOM      3  C   UNL     1       0.693   9.291  22.583  0.00  0.00    +0.000 A 
ATOM      4  C   UNL     1      -0.205  10.222  22.048  0.00  0.00    +0.000 A 
ATOM      5  C   UNL     1      -0.344  10.348  20.665  0.00  0.00    +0.000 A 
ATOM      6  C   UNL     1      -1.228  11.301  20.148  0.00  0.00    +0.000 A 
ATOM      7  C   UNL     1      -1.350  11.492  18.764  0.00  0.00    +0.000 A 
ATOM      8  C   UNL     1      -0.634  10.691  17.890  0.00  0.00    +0.000 A 
ATOM      9  C   UNL     1       0.221   9.714  18.398  0.00  0.00    +0.000 A 
ATOM     10  C   UNL     1       0.426   9.533  19.788  0.00  0.00    +0.000 A 
ATOM     11  C   UNL     1      -2.096  12.112  21.035  0.00  0.00    +0.000 C 
ATOM     12  O   UNL     1      -2.873  12.941  20.577  0.00  0.00    +0.000 OA
ATOM     13  O   UNL     1      -2.054  11.841  22.357  0.00  0.00    +0.000 OA
ATOM     14  C   UNL     1      -0.947  11.150  22.957  0.00  0.00    +0.000 C 
ENDROOT
BRANCH   1  15
ATOM     15  C   UNL     1       2.358   7.841  19.491  0.00  0.00    +0.000 C 
BRANCH  15  20
ATOM     16  C   UNL     1       2.317   3.362  18.689  0.00  0.00    +0.000 C 
ATOM     17  C   UNL     1       1.497   3.276  19.998  0.00  0.00    +0.000 C 
ATOM     18  C   UNL     1       1.631   4.446  20.972  0.00  0.00    +0.000 C 
ATOM     19  C   UNL     1       1.277   5.843  20.435  0.00  0.00    +0.000 C 
ATOM     20  N   UNL     1       2.292   6.363  19.520  0.00  0.00    +0.000 NA
ATOM     21  C   UNL     1       2.117   5.908  18.127  0.00  0.00    +0.000 C 
ATOM     22  C   UNL     1       1.686   4.470  17.827  0.00  0.00    +0.000 C 
BRANCH  16  24
ATOM     23  C   UNL     1       4.502   3.462  17.576  0.00  0.00    +0.000 C 
ATOM     24  N   UNL     1       3.782   3.493  18.853  0.00  0.00    +0.000 NA
ATOM     25  C   UNL     1       4.360   2.483  19.742  0.00  0.00    +0.000 C 
ENDBRANCH  16  24
ENDBRANCH  15  20
ENDBRANCH   1  15
TORSDOF 3
ENDMDL
MODEL 5
REMARK VINA RESULT:      -7.0      3.884      7.906
REMARK  Name = 
REMARK  5 active torsions:
REMARK  status: ('A' for Active; 'I' for Inactive)
REMARK    1  A    between atoms: C_1  and  N_2
REMARK    2  A    between atoms: N_2  and  C_3
REMARK    3  A    between atoms: N_2  and  C_4
REMARK    4  A    between atoms: N_8  and  C_9
REMARK    5  A    between atoms: C_9  and  C_10
REMARK                            x       y       z     vdW  Elec       q    Type
REMARK                         _______ _______ _______ _____ _____    ______ ____
ROOT
ATOM      1  C   UNL     1       1.482   8.619  19.515  0.00  0.00    +0.000 A 
ATOM      2  C   UNL     1       1.662   7.852  20.678  0.00  0.00    +0.000 A 
ATOM      3  C   UNL     1       1.045   8.213  21.874  0.00  0.00    +0.000 A 
ATOM      4  C   UNL     1       0.231   9.350  21.934  0.00  0.00    +0.000 A 
ATOM      5  C   UNL     1       0.023  10.125  20.792  0.00  0.00    +0.000 A 
ATOM      6  C   UNL     1      -0.772  11.273  20.876  0.00  0.00    +0.000 A 
ATOM      7  C   UNL     1      -0.957  12.104  19.762  0.00  0.00    +0.000 A 
ATOM      8  C   UNL     1      -0.396  11.760  18.544  0.00  0.00    +0.000 A 
ATOM      9  C   UNL     1       0.368  10.598  18.442  0.00  0.00    +0.000 A 
ATOM     10  C   UNL     1       0.635   9.767  19.558  0.00  0.00    +0.000 A 
ATOM     11  C   UNL     1      -1.483  11.631  22.128  0.00  0.00    +0.000 C 
ATOM     12  O   UNL     1      -2.183  12.633  22.195  0.00  0.00    +0.000 OA
ATOM     13  O   UNL     1      -1.391  10.765  23.160  0.00  0.00    +0.000 OA
ATOM     14  C   UNL     1      -0.339   9.792  23.245  0.00  0.00    +0.000 C 
ENDROOT
BRANCH   1  15
ATOM     15  C   UNL     1       2.332   8.277  18.299  0.00  0.00    +0.000 C 
BRANCH  15  20
ATOM     16  C   UNL     1       4.434   4.303  17.592  0.00  0.00    +0.000 C 
ATOM     17  C   UNL     1       3.009   3.749  17.359  0.00  0.00    +0.000 C 
ATOM     18  C   UNL     1       1.853   4.548  17.961  0.00  0.00    +0.000 C 
ATOM     19  C   UNL     1       1.725   6.019  17.533  0.00  0.00    +0.000 C 
ATOM     20  N   UNL     1       2.753   6.867  18.135  0.00  0.00    +0.000 NA
ATOM     21  C   UNL     1       4.023   6.877  17.383  0.00  0.00    +0.000 C 
ATOM     22  C   UNL     1       4.566   5.590  16.757  0.00  0.00    +0.000 C 
BRANCH  16  24
ATOM     23  C   UNL     1       6.205   4.980  19.150  0.00  0.00    +0.000 C 
ATOM     24  N   UNL     1       4.840   4.462  19.006  0.00  0.00    +0.000 NA
ATOM     25  C   UNL     1       4.721   3.231  19.788  0.00  0.00    +0.000 C 
ENDBRANCH  16  24
ENDBRANCH  15  20
ENDBRANCH   1  15
TORSDOF 3
ENDMDL
MODEL 6
REMARK VINA RESULT:      -7.0      1.353      3.126
REMARK  Name = 
REMARK  5 active torsions:
REMARK  status: ('A' for Active; 'I' for Inactive)
REMARK    1  A    between atoms: C_1  and  N_2
REMARK    2  A    between atoms: N_2  and  C_3
REMARK    3  A    between atoms: N_2  and  C_4
REMARK    4  A    between atoms: N_8  and  C_9
REMARK    5  A    between atoms: C_9  and  C_10
REMARK                            x       y       z     vdW  Elec       q    Type
REMARK                         _______ _______ _______ _____ _____    ______ ____
ROOT
ATOM      1  C   UNL     1       2.573   7.528  18.760  0.00  0.00    +0.000 A 
ATOM      2  C   UNL     1       1.833   7.557  19.954  0.00  0.00    +0.000 A 
ATOM      3  C   UNL     1       1.719   6.421  20.752  0.00  0.00    +0.000 A 
ATOM      4  C   UNL     1       2.345   5.227  20.374  0.00  0.00    +0.000 A 
ATOM      5  C   UNL     1       3.097   5.170  19.200  0.00  0.00    +0.000 A 
ATOM      6  C   UNL     1       3.694   3.961  18.825  0.00  0.00    +0.000 A 
ATOM      7  C   UNL     1       4.410   3.855  17.624  0.00  0.00    +0.000 A 
ATOM      8  C   UNL     1       4.584   4.970  16.822  0.00  0.00    +0.000 A 
ATOM      9  C   UNL     1       4.023   6.188  17.207  0.00  0.00    +0.000 A 
ATOM     10  C   UNL     1       3.236   6.323  18.377  0.00  0.00    +0.000 A 
ATOM     11  C   UNL     1       3.630   2.764  19.698  0.00  0.00    +0.000 C 
ATOM     12  O   UNL     1       4.160   1.710  19.368  0.00  0.00    +0.000 OA
ATOM     13  O   UNL     1       3.037   2.908  20.902  0.00  0.00    +0.000 OA
ATOM     14  C   UNL     1       2.128   3.985  21.178  0.00  0.00    +0.000 C 
ENDROOT
BRANCH   1  15
ATOM     15  C   UNL     1       2.499   8.744  17.847  0.00  0.00    +0.000 C 
BRANCH  15  20
ATOM     16  C   UNL     1      -0.342  11.915  19.454  0.00  0.00    +0.000 C 
ATOM     17  C   UNL     1       0.700  12.923  18.915  0.00  0.00    +0.000 C 
ATOM     18  C   UNL     1       2.122  12.400  18.709  0.00  0.00    +0.000 C 
ATOM     19  C   UNL     1       2.291  11.195  17.770  0.00  0.00    +0.000 C 
ATOM     20  N   UNL     1       1.815   9.948  18.369  0.00  0.00    +0.000 NA
ATOM     21  C   UNL     1       0.365   9.731  18.202  0.00  0.00    +0.000 C 
ATOM     22  C   UNL     1      -0.617  10.899  18.331  0.00  0.00    +0.000 C 
BRANCH  16  24
ATOM     23  C   UNL     1      -0.800  10.076  21.013  0.00  0.00    +0.000 C 
ATOM     24  N   UNL     1      -0.024  11.294  20.759  0.00  0.00    +0.000 NA
ATOM     25  C   UNL     1      -0.193  12.203  21.893  0.00  0.00    +0.000 C 
ENDBRANCH  16  24
ENDBRANCH  15  20
ENDBRANCH   1  15
TORSDOF 3
ENDMDL
MODEL 7
REMARK VINA RESULT:      -6.9      3.805      8.075
REMARK  Name = 
REMARK  5 active torsions:
REMARK  status: ('A' for Active; 'I' for Inactive)
REMARK    1  A    between atoms: C_1  and  N_2
REMARK    2  A    between atoms: N_2  and  C_3
REMARK    3  A    between atoms: N_2  and  C_4
REMARK    4  A    between atoms: N_8  and  C_9
REMARK    5  A    between atoms: C_9  and  C_10
REMARK                            x       y       z     vdW  Elec       q    Type
REMARK                         _______ _______ _______ _____ _____    ______ ____
ROOT
ATOM      1  C   UNL     1       1.980   7.677  19.364  0.00  0.00    +0.000 A 
ATOM      2  C   UNL     1       1.587   7.028  20.545  0.00  0.00    +0.000 A 
ATOM      3  C   UNL     1       0.925   7.722  21.556  0.00  0.00    +0.000 A 
ATOM      4  C   UNL     1       0.641   9.084  21.407  0.00  0.00    +0.000 A 
ATOM      5  C   UNL     1       1.007   9.754  20.240  0.00  0.00    +0.000 A 
ATOM      6  C   UNL     1       0.737  11.122  20.119  0.00  0.00    +0.000 A 
ATOM      7  C   UNL     1       1.142  11.838  18.983  0.00  0.00    +0.000 A 
ATOM      8  C   UNL     1       1.764  11.178  17.937  0.00  0.00    +0.000 A 
ATOM      9  C   UNL     1       2.004   9.808  18.033  0.00  0.00    +0.000 A 
ATOM     10  C   UNL     1       1.673   9.060  19.190  0.00  0.00    +0.000 A 
ATOM     11  C   UNL     1      -0.020  11.855  21.162  0.00  0.00    +0.000 C 
ATOM     12  O   UNL     1      -0.259  13.051  21.050  0.00  0.00    +0.000 OA
ATOM     13  O   UNL     1      -0.503  11.134  22.197  0.00  0.00    +0.000 OA
ATOM     14  C   UNL     1       0.029   9.846  22.541  0.00  0.00    +0.000 C 
ENDROOT
BRANCH   1  15
ATOM     15  C   UNL     1       2.860   6.908  18.388  0.00  0.00    +0.000 C 
BRANCH  15  20
ATOM     16  C   UNL     1       3.630   2.425  18.522  0.00  0.00    +0.000 C 
ATOM     17  C   UNL     1       2.168   2.300  18.032  0.00  0.00    +0.000 C 
ATOM     18  C   UNL     1       1.251   3.495  18.290  0.00  0.00    +0.000 C 
ATOM     19  C   UNL     1       1.693   4.850  17.714  0.00  0.00    +0.000 C 
ATOM     20  N   UNL     1       2.816   5.430  18.448  0.00  0.00    +0.000 NA
ATOM     21  C   UNL     1       4.132   4.937  17.997  0.00  0.00    +0.000 C 
ATOM     22  C   UNL     1       4.325   3.465  17.625  0.00  0.00    +0.000 C 
BRANCH  16  24
ATOM     23  C   UNL     1       4.851   1.835  20.567  0.00  0.00    +0.000 C 
ATOM     24  N   UNL     1       3.805   2.672  19.971  0.00  0.00    +0.000 NA
ATOM     25  C   UNL     1       2.573   2.504  20.743  0.00  0.00    +0.000 C 
ENDBRANCH  16  24
ENDBRANCH  15  20
ENDBRANCH   1  15
TORSDOF 3
ENDMDL
MODEL 8
REMARK VINA RESULT:      -6.9      1.132      1.191
REMARK  Name = 
REMARK  5 active torsions:
REMARK  status: ('A' for Active; 'I' for Inactive)
REMARK    1  A    between atoms: C_1  and  N_2
REMARK    2  A    between atoms: N_2  and  C_3
REMARK    3  A    between atoms: N_2  and  C_4
REMARK    4  A    between atoms: N_8  and  C_9
REMARK    5  A    between atoms: C_9  and  C_10
REMARK                            x       y       z     vdW  Elec       q    Type
REMARK                         _______ _______ _______ _____ _____    ______ ____
ROOT
ATOM      1  C   UNL     1       1.684   8.056  19.395  0.00  0.00    +0.000 A 
ATOM      2  C   UNL     1       2.244   8.725  18.295  0.00  0.00    +0.000 A 
ATOM      3  C   UNL     1       3.244   8.130  17.529  0.00  0.00    +0.000 A 
ATOM      4  C   UNL     1       3.708   6.848  17.847  0.00  0.00    +0.000 A 
ATOM      5  C   UNL     1       3.163   6.152  18.928  0.00  0.00    +0.000 A 
ATOM      6  C   UNL     1       3.657   4.883  19.247  0.00  0.00    +0.000 A 
ATOM      7  C   UNL     1       3.170   4.180  20.359  0.00  0.00    +0.000 A 
ATOM      8  C   UNL     1       2.147   4.717  21.121  0.00  0.00    +0.000 A 
ATOM      9  C   UNL     1       1.624   5.967  20.788  0.00  0.00    +0.000 A 
ATOM     10  C   UNL     1       2.132   6.739  19.715  0.00  0.00    +0.000 A 
ATOM     11  C   UNL     1       4.677   4.216  18.402  0.00  0.00    +0.000 C 
ATOM     12  O   UNL     1       5.101   3.101  18.682  0.00  0.00    +0.000 OA
ATOM     13  O   UNL     1       5.055   4.850  17.272  0.00  0.00    +0.000 OA
ATOM     14  C   UNL     1       4.856   6.261  17.089  0.00  0.00    +0.000 C 
ENDROOT
BRANCH   1  15
ATOM     15  C   UNL     1       0.736   8.836  20.296  0.00  0.00    +0.000 C 
BRANCH  15  20
ATOM     16  C   UNL     1       0.464  13.376  20.143  0.00  0.00    +0.000 C 
ATOM     17  C   UNL     1      -0.668  13.135  19.116  0.00  0.00    +0.000 C 
ATOM     18  C   UNL     1      -0.674  11.782  18.403  0.00  0.00    +0.000 C 
ATOM     19  C   UNL     1      -0.740  10.529  19.290  0.00  0.00    +0.000 C 
ATOM     20  N   UNL     1       0.521  10.267  19.983  0.00  0.00    +0.000 NA
ATOM     21  C   UNL     1       0.664  11.014  21.248  0.00  0.00    +0.000 C 
ATOM     22  C   UNL     1       0.185  12.465  21.352  0.00  0.00    +0.000 C 
BRANCH  16  24
ATOM     23  C   UNL     1       2.850  13.769  20.562  0.00  0.00    +0.000 C 
ATOM     24  N   UNL     1       1.844  13.270  19.619  0.00  0.00    +0.000 NA
ATOM     25  C   UNL     1       2.031  13.944  18.333  0.00  0.00    +0.000 C 
ENDBRANCH  16  24
ENDBRANCH  15  20
ENDBRANCH   1  15
TORSDOF 3
ENDMDL
MODEL 9
REMARK VINA RESULT:      -6.8      3.881      7.545
REMARK  Name = 
REMARK  5 active torsions:
REMARK  status: ('A' for Active; 'I' for Inactive)
REMARK    1  A    between atoms: C_1  and  N_2
REMARK    2  A    between atoms: N_2  and  C_3
REMARK    3  A    between atoms: N_2  and  C_4
REMARK    4  A    between atoms: N_8  and  C_9
REMARK    5  A    between atoms: C_9  and  C_10
REMARK                            x       y       z     vdW  Elec       q    Type
REMARK                         _______ _______ _______ _____ _____    ______ ____
ROOT
ATOM      1  C   UNL     1       1.864   7.951  19.208  0.00  0.00    +0.000 A 
ATOM      2  C   UNL     1       2.241   8.603  18.022  0.00  0.00    +0.000 A 
ATOM      3  C   UNL     1       1.995   9.963  17.846  0.00  0.00    +0.000 A 
ATOM      4  C   UNL     1       1.367  10.704  18.853  0.00  0.00    +0.000 A 
ATOM      5  C   UNL     1       0.992  10.087  20.048  0.00  0.00    +0.000 A 
ATOM      6  C   UNL     1       0.341  10.837  21.034  0.00  0.00    +0.000 A 
ATOM      7  C   UNL     1      -0.098  10.236  22.222  0.00  0.00    +0.000 A 
ATOM      8  C   UNL     1       0.163   8.897  22.456  0.00  0.00    +0.000 A 
ATOM      9  C   UNL     1       0.844   8.151  21.494  0.00  0.00    +0.000 A 
ATOM     10  C   UNL     1       1.245   8.701  20.252  0.00  0.00    +0.000 A 
ATOM     11  C   UNL     1       0.131  12.297  20.881  0.00  0.00    +0.000 C 
ATOM     12  O   UNL     1      -0.434  12.951  21.749  0.00  0.00    +0.000 OA
ATOM     13  O   UNL     1       0.658  12.887  19.786  0.00  0.00    +0.000 OA
ATOM     14  C   UNL     1       1.008  12.136  18.613  0.00  0.00    +0.000 C 
ENDROOT
BRANCH   1  15
ATOM     15  C   UNL     1       1.991   6.435  19.257  0.00  0.00    +0.000 C 
BRANCH  15  20
ATOM     16  C   UNL     1       5.257   4.287  16.927  0.00  0.00    +0.000 C 
ATOM     17  C   UNL     1       6.025   4.292  18.269  0.00  0.00    +0.000 C 
ATOM     18  C   UNL     1       5.603   5.339  19.300  0.00  0.00    +0.000 C 
ATOM     19  C   UNL     1       4.132   5.324  19.745  0.00  0.00    +0.000 C 
ATOM     20  N   UNL     1       3.231   5.836  18.714  0.00  0.00    +0.000 NA
ATOM     21  C   UNL     1       2.824   4.815  17.728  0.00  0.00    +0.000 C 
ATOM     22  C   UNL     1       3.832   3.782  17.218  0.00  0.00    +0.000 C 
BRANCH  16  24
ATOM     23  C   UNL     1       5.606   5.339  14.737  0.00  0.00    +0.000 C 
ATOM     24  N   UNL     1       5.299   5.549  16.155  0.00  0.00    +0.000 NA
ATOM     25  C   UNL     1       6.238   6.532  16.698  0.00  0.00    +0.000 C 
ENDBRANCH  16  24
ENDBRANCH  15  20
ENDBRANCH   1  15
TORSDOF 3
ENDMDL
