MODEL 1
REMARK VINA RESULT:      -7.2      0.000      0.000
REMARK  Name = 
REMARK  7 active torsions:
REMARK  status: ('A' for Active; 'I' for Inactive)
REMARK    1  A    between atoms: C_1  and  N_2
REMARK    2  A    between atoms: N_2  and  C_3
REMARK    3  A    between atoms: N_2  and  C_11
REMARK    4  A    between atoms: C_3  and  C_4
REMARK    5  A    between atoms: C_4  and  C_5
REMARK    6  A    between atoms: C_11  and  C_12
REMARK    7  A    between atoms: C_15  and  C_16
REMARK                            x       y       z     vdW  Elec       q    Type
REMARK                         _______ _______ _______ _____ _____    ______ ____
ROOT
ATOM      1  C   UNL     1       5.929   6.270  16.589  0.00  0.00    +0.000 C 
ENDROOT
BRANCH   1   2
ATOM      2  C   UNL     1       6.963   6.972  17.401  0.00  0.00    +0.000 A 
ATOM      3  C   UNL     1       7.792   6.474  18.380  0.00  0.00    +0.000 A 
ATOM      4  O   UNL     1       8.543   7.500  18.863  0.00  0.00    +0.000 OA
ATOM      5  C   UNL     1       8.126   8.591  18.145  0.00  0.00    +0.000 A 
ATOM      6  N   UNL     1       7.193   8.323  17.251  0.00  0.00    +0.000 NA
BRANCH   5   7
ATOM      7  C   UNL     1       8.736   9.874  18.472  0.00  0.00    +0.000 A 
ATOM      8  C   UNL     1       9.412  10.083  19.683  0.00  0.00    +0.000 A 
ATOM      9  C   UNL     1       9.966  11.331  19.983  0.00  0.00    +0.000 A 
ATOM     10  C   UNL     1       9.852  12.381  19.075  0.00  0.00    +0.000 A 
ATOM     11  C   UNL     1       9.188  12.188  17.864  0.00  0.00    +0.000 A 
ATOM     12  C   UNL     1       8.634  10.941  17.568  0.00  0.00    +0.000 A 
ENDBRANCH   5   7
ENDBRANCH   1   2
BRANCH   1  14
ATOM     13  C   UNL     1       3.745   6.864  17.463  0.00  0.00    +0.000 C 
ATOM     14  N   UNL     1       4.792   5.827  17.427  0.00  0.00    +0.000 NA
BRANCH  14  15
ATOM     15  C   UNL     1       4.197   4.582  16.883  0.00  0.00    +0.000 C 
BRANCH  15  16
ATOM     16  C   UNL     1       4.258   3.381  17.837  0.00  0.00    +0.000 C 
BRANCH  16  17
ATOM     17  C   UNL     1       3.096   3.401  18.795  0.00  0.00    +0.000 A 
ATOM     18  C   UNL     1       1.844   2.937  18.406  0.00  0.00    +0.000 A 
ATOM     19  C   UNL     1       0.805   2.959  19.331  0.00  0.00    +0.000 A 
ATOM     20  C   UNL     1       1.041   3.440  20.613  0.00  0.00    +0.000 A 
ATOM     21  C   UNL     1       2.317   3.881  20.919  0.00  0.00    +0.000 A 
ATOM     22  N   UNL     1       3.346   3.868  20.044  0.00  0.00    +0.000 NA
ENDBRANCH  16  17
ENDBRANCH  15  16
ENDBRANCH  14  15
ENDBRANCH   1  14
TORSDOF 6
ENDMDL
MODEL 2
REMARK VINA RESULT:      -7.2      3.506      6.191
REMARK  Name = 
REMARK  7 active torsions:
REMARK  status: ('A' for Active; 'I' for Inactive)
REMARK    1  A    between atoms: C_1  and  N_2
REMARK    2  A    between atoms: N_2  and  C_3
REMARK    3  A    between atoms: N_2  and  C_11
REMARK    4  A    between atoms: C_3  and  C_4
REMARK    5  A    between atoms: C_4  and  C_5
REMARK    6  A    between atoms: C_11  and  C_12
REMARK    7  A    between atoms: C_15  and  C_16
REMARK                            x       y       z     vdW  Elec       q    Type
REMARK                         _______ _______ _______ _____ _____    ______ ____
ROOT
ATOM      1  C   UNL     1       5.455   5.194  19.210  0.00  0.00    +0.000 C 
ENDROOT
BRANCH   1   2
ATOM      2  C   UNL     1       6.175   5.388  17.918  0.00  0.00    +0.000 A 
ATOM      3  C   UNL     1       7.186   6.266  17.605  0.00  0.00    +0.000 A 
ATOM      4  O   UNL     1       7.500   6.101  16.292  0.00  0.00    +0.000 OA
ATOM      5  C   UNL     1       6.649   5.115  15.862  0.00  0.00    +0.000 A 
ATOM      6  N   UNL     1       5.847   4.649  16.801  0.00  0.00    +0.000 NA
BRANCH   5   7
ATOM      7  C   UNL     1       6.724   4.739  14.457  0.00  0.00    +0.000 A 
ATOM      8  C   UNL     1       5.880   3.763  13.906  0.00  0.00    +0.000 A 
ATOM      9  C   UNL     1       5.991   3.403  12.560  0.00  0.00    +0.000 A 
ATOM     10  C   UNL     1       6.944   4.016  11.750  0.00  0.00    +0.000 A 
ATOM     11  C   UNL     1       7.786   4.992  12.280  0.00  0.00    +0.000 A 
ATOM     12  C   UNL     1       7.675   5.349  13.626  0.00  0.00    +0.000 A 
ENDBRANCH   5   7
ENDBRANCH   1   2
BRANCH   1  14
ATOM     13  C   UNL     1       3.823   3.474  19.723  0.00  0.00    +0.000 C 
ATOM     14  N   UNL     1       4.067   4.729  18.990  0.00  0.00    +0.000 NA
BRANCH  14  15
ATOM     15  C   UNL     1       3.096   5.744  19.467  0.00  0.00    +0.000 C 
BRANCH  15  16
ATOM     16  C   UNL     1       2.763   6.836  18.441  0.00  0.00    +0.000 C 
BRANCH  16  17
ATOM     17  C   UNL     1       2.001   7.962  19.088  0.00  0.00    +0.000 A 
ATOM     18  C   UNL     1       1.656   7.906  20.434  0.00  0.00    +0.000 A 
ATOM     19  C   UNL     1       0.967   8.977  20.994  0.00  0.00    +0.000 A 
ATOM     20  C   UNL     1       0.643  10.071  20.200  0.00  0.00    +0.000 A 
ATOM     21  C   UNL     1       1.027  10.048  18.871  0.00  0.00    +0.000 A 
ATOM     22  N   UNL     1       1.700   9.025  18.301  0.00  0.00    +0.000 NA
ENDBRANCH  16  17
ENDBRANCH  15  16
ENDBRANCH  14  15
ENDBRANCH   1  14
TORSDOF 6
ENDMDL
MODEL 3
REMARK VINA RESULT:      -7.0      4.457      7.294
REMARK  Name = 
REMARK  7 active torsions:
REMARK  status: ('A' for Active; 'I' for Inactive)
REMARK    1  A    between atoms: C_1  and  N_2
REMARK    2  A    between atoms: N_2  and  C_3
REMARK    3  A    between atoms: N_2  and  C_11
REMARK    4  A    between atoms: C_3  and  C_4
REMARK    5  A    between atoms: C_4  and  C_5
REMARK    6  A    between atoms: C_11  and  C_12
REMARK    7  A    between atoms: C_15  and  C_16
REMARK                            x       y       z     vdW  Elec       q    Type
REMARK                         _______ _______ _______ _____ _____    ______ ____
ROOT
ATOM      1  C   UNL     1       3.698   5.654  18.535  0.00  0.00    +0.000 C 
ENDROOT
BRANCH   1   2
ATOM      2  C   UNL     1       2.908   6.902  18.735  0.00  0.00    +0.000 A 
ATOM      3  C   UNL     1       2.721   7.964  17.882  0.00  0.00    +0.000 A 
ATOM      4  O   UNL     1       1.952   8.889  18.515  0.00  0.00    +0.000 OA
ATOM      5  C   UNL     1       1.705   8.336  19.746  0.00  0.00    +0.000 A 
ATOM      6  N   UNL     1       2.245   7.145  19.920  0.00  0.00    +0.000 NA
BRANCH   5   7
ATOM      7  C   UNL     1       0.920   9.128  20.684  0.00  0.00    +0.000 A 
ATOM      8  C   UNL     1       0.549   8.631  21.942  0.00  0.00    +0.000 A 
ATOM      9  C   UNL     1      -0.227   9.402  22.813  0.00  0.00    +0.000 A 
ATOM     10  C   UNL     1      -0.637  10.679  22.436  0.00  0.00    +0.000 A 
ATOM     11  C   UNL     1      -0.272  11.190  21.192  0.00  0.00    +0.000 A 
ATOM     12  C   UNL     1       0.501  10.417  20.323  0.00  0.00    +0.000 A 
ENDBRANCH   5   7
ENDBRANCH   1   2
BRANCH   1  14
ATOM     13  C   UNL     1       6.062   5.253  18.908  0.00  0.00    +0.000 C 
ATOM     14  N   UNL     1       5.071   5.951  18.070  0.00  0.00    +0.000 NA
BRANCH  14  15
ATOM     15  C   UNL     1       5.253   5.509  16.666  0.00  0.00    +0.000 C 
BRANCH  15  16
ATOM     16  C   UNL     1       6.718   5.399  16.220  0.00  0.00    +0.000 C 
BRANCH  16  17
ATOM     17  C   UNL     1       6.807   4.925  14.793  0.00  0.00    +0.000 A 
ATOM     18  C   UNL     1       5.927   3.965  14.306  0.00  0.00    +0.000 A 
ATOM     19  C   UNL     1       6.035   3.570  12.976  0.00  0.00    +0.000 A 
ATOM     20  C   UNL     1       7.013   4.142  12.172  0.00  0.00    +0.000 A 
ATOM     21  C   UNL     1       7.846   5.093  12.734  0.00  0.00    +0.000 A 
ATOM     22  N   UNL     1       7.762   5.499  14.019  0.00  0.00    +0.000 NA
ENDBRANCH  16  17
ENDBRANCH  15  16
ENDBRANCH  14  15
ENDBRANCH   1  14
TORSDOF 6
ENDMDL
MODEL 4
REMARK VINA RESULT:      -7.0      4.360      6.152
REMARK  Name = 
REMARK  7 active torsions:
REMARK  status: ('A' for Active; 'I' for Inactive)
REMARK    1  A    between atoms: C_1  and  N_2
REMARK    2  A    between atoms: N_2  and  C_3
REMARK    3  A    between atoms: N_2  and  C_11
REMARK    4  A    between atoms: C_3  and  C_4
REMARK    5  A    between atoms: C_4  and  C_5
REMARK    6  A    between atoms: C_11  and  C_12
REMARK    7  A    between atoms: C_15  and  C_16
REMARK                            x       y       z     vdW  Elec       q    Type
REMARK                         _______ _______ _______ _____ _____    ______ ____
ROOT
ATOM      1  C   UNL     1       3.770   6.127  18.628  0.00  0.00    +0.000 C 
ENDROOT
BRANCH   1   2
ATOM      2  C   UNL     1       2.782   7.227  18.821  0.00  0.00    +0.000 A 
ATOM      3  C   UNL     1       2.278   8.119  17.904  0.00  0.00    +0.000 A 
ATOM      4  O   UNL     1       1.430   8.962  18.553  0.00  0.00    +0.000 OA
ATOM      5  C   UNL     1       1.462   8.535  19.856  0.00  0.00    +0.000 A 
ATOM      6  N   UNL     1       2.245   7.494  20.063  0.00  0.00    +0.000 NA
BRANCH   5   7
ATOM      7  C   UNL     1       0.665   9.285  20.820  0.00  0.00    +0.000 A 
ATOM      8  C   UNL     1      -0.033  10.446  20.457  0.00  0.00    +0.000 A 
ATOM      9  C   UNL     1      -0.769  11.160  21.407  0.00  0.00    +0.000 A 
ATOM     10  C   UNL     1      -0.817  10.720  22.728  0.00  0.00    +0.000 A 
ATOM     11  C   UNL     1      -0.133   9.564  23.103  0.00  0.00    +0.000 A 
ATOM     12  C   UNL     1       0.603   8.854  22.153  0.00  0.00    +0.000 A 
ENDBRANCH   5   7
ENDBRANCH   1   2
BRANCH   1  14
ATOM     13  C   UNL     1       4.921   6.258  16.497  0.00  0.00    +0.000 C 
ATOM     14  N   UNL     1       3.789   5.658  17.224  0.00  0.00    +0.000 NA
BRANCH  14  15
ATOM     15  C   UNL     1       3.929   4.182  17.170  0.00  0.00    +0.000 C 
BRANCH  15  16
ATOM     16  C   UNL     1       2.621   3.412  17.398  0.00  0.00    +0.000 C 
BRANCH  16  17
ATOM     17  C   UNL     1       2.382   3.191  18.868  0.00  0.00    +0.000 A 
ATOM     18  C   UNL     1       1.145   3.472  19.438  0.00  0.00    +0.000 A 
ATOM     19  C   UNL     1       0.964   3.236  20.797  0.00  0.00    +0.000 A 
ATOM     20  C   UNL     1       2.017   2.726  21.547  0.00  0.00    +0.000 A 
ATOM     21  C   UNL     1       3.214   2.471  20.902  0.00  0.00    +0.000 A 
ATOM     22  N   UNL     1       3.417   2.686  19.584  0.00  0.00    +0.000 NA
ENDBRANCH  16  17
ENDBRANCH  15  16
ENDBRANCH  14  15
ENDBRANCH   1  14
TORSDOF 6
ENDMDL
MODEL 5
REMARK VINA RESULT:      -6.9      0.746      1.233
REMARK  Name = 
REMARK  7 active torsions:
REMARK  status: ('A' for Active; 'I' for Inactive)
REMARK    1  A    between atoms: C_1  and  N_2
REMARK    2  A    between atoms: N_2  and  C_3
REMARK    3  A    between atoms: N_2  and  C_11
REMARK    4  A    between atoms: C_3  and  C_4
REMARK    5  A    between atoms: C_4  and  C_5
REMARK    6  A    between atoms: C_11  and  C_12
REMARK    7  A    between atoms: C_15  and  C_16
REMARK                            x       y       z     vdW  Elec       q    Type
REMARK                         _______ _______ _______ _____ _____    ______ ____
ROOT
ATOM      1  C   UNL     1       5.966   6.780  16.822  0.00  0.00    +0.000 C 
ENDROOT
BRANCH   1   2
ATOM      2  C   UNL     1       7.090   7.377  17.599  0.00  0.00    +0.000 A 
ATOM      3  C   UNL     1       7.932   6.787  18.512  0.00  0.00    +0.000 A 
ATOM      4  O   UNL     1       8.779   7.739  18.986  0.00  0.00    +0.000 OA
ATOM      5  C   UNL     1       8.403   8.883  18.329  0.00  0.00    +0.000 A 
ATOM      6  N   UNL     1       7.407   8.714  17.481  0.00  0.00    +0.000 NA
BRANCH   5   7
ATOM      7  C   UNL     1       9.120  10.107  18.665  0.00  0.00    +0.000 A 
ATOM      8  C   UNL     1       9.599  10.978  17.674  0.00  0.00    +0.000 A 
ATOM      9  C   UNL     1      10.306  12.132  18.023  0.00  0.00    +0.000 A 
ATOM     10  C   UNL     1      10.538  12.430  19.364  0.00  0.00    +0.000 A 
ATOM     11  C   UNL     1      10.063  11.578  20.360  0.00  0.00    +0.000 A 
ATOM     12  C   UNL     1       9.359  10.424  20.010  0.00  0.00    +0.000 A 
ENDBRANCH   5   7
ENDBRANCH   1   2
BRANCH   1  14
ATOM     13  C   UNL     1       3.616   6.905  17.411  0.00  0.00    +0.000 C 
ATOM     14  N   UNL     1       4.906   6.262  17.717  0.00  0.00    +0.000 NA
BRANCH  14  15
ATOM     15  C   UNL     1       4.749   4.797  17.546  0.00  0.00    +0.000 C 
BRANCH  15  16
ATOM     16  C   UNL     1       3.306   4.338  17.296  0.00  0.00    +0.000 C 
BRANCH  16  17
ATOM     17  C   UNL     1       2.708   3.754  18.550  0.00  0.00    +0.000 A 
ATOM     18  C   UNL     1       1.334   3.570  18.664  0.00  0.00    +0.000 A 
ATOM     19  C   UNL     1       0.828   3.012  19.833  0.00  0.00    +0.000 A 
ATOM     20  C   UNL     1       1.702   2.652  20.852  0.00  0.00    +0.000 A 
ATOM     21  C   UNL     1       3.055   2.866  20.656  0.00  0.00    +0.000 A 
ATOM     22  N   UNL     1       3.576   3.402  19.531  0.00  0.00    +0.000 NA
ENDBRANCH  16  17
ENDBRANCH  15  16
ENDBRANCH  14  15
ENDBRANCH   1  14
TORSDOF 6
ENDMDL
MODEL 6
REMARK VINA RESULT:      -6.9      4.706      6.856
REMARK  Name = 
REMARK  7 active torsions:
REMARK  status: ('A' for Active; 'I' for Inactive)
REMARK    1  A    between atoms: C_1  and  N_2
REMARK    2  A    between atoms: N_2  and  C_3
REMARK    3  A    between atoms: N_2  and  C_11
REMARK    4  A    between atoms: C_3  and  C_4
REMARK    5  A    between atoms: C_4  and  C_5
REMARK    6  A    between atoms: C_11  and  C_12
REMARK    7  A    between atoms: C_15  and  C_16
REMARK                            x       y       z     vdW  Elec       q    Type
REMARK                         _______ _______ _______ _____ _____    ______ ____
ROOT
ATOM      1  C   UNL     1       4.883   4.019  18.974  0.00  0.00    +0.000 C 
ENDROOT
BRANCH   1   2
ATOM      2  C   UNL     1       3.774   4.894  19.453  0.00  0.00    +0.000 A 
ATOM      3  C   UNL     1       2.739   4.603  20.310  0.00  0.00    +0.000 A 
ATOM      4  O   UNL     1       1.955   5.709  20.421  0.00  0.00    +0.000 OA
ATOM      5  C   UNL     1       2.561   6.635  19.610  0.00  0.00    +0.000 A 
ATOM      6  N   UNL     1       3.657   6.198  19.020  0.00  0.00    +0.000 NA
BRANCH   5   7
ATOM      7  C   UNL     1       1.916   7.936  19.491  0.00  0.00    +0.000 A 
ATOM      8  C   UNL     1       1.918   8.655  18.286  0.00  0.00    +0.000 A 
ATOM      9  C   UNL     1       1.314   9.913  18.206  0.00  0.00    +0.000 A 
ATOM     10  C   UNL     1       0.699  10.464  19.328  0.00  0.00    +0.000 A 
ATOM     11  C   UNL     1       0.683   9.759  20.532  0.00  0.00    +0.000 A 
ATOM     12  C   UNL     1       1.289   8.504  20.609  0.00  0.00    +0.000 A 
ENDBRANCH   5   7
ENDBRANCH   1   2
BRANCH   1  14
ATOM     13  C   UNL     1       3.207   3.153  17.449  0.00  0.00    +0.000 C 
ATOM     14  N   UNL     1       4.625   3.520  17.605  0.00  0.00    +0.000 NA
BRANCH  14  15
ATOM     15  C   UNL     1       4.950   4.563  16.601  0.00  0.00    +0.000 C 
BRANCH  15  16
ATOM     16  C   UNL     1       6.448   4.702  16.293  0.00  0.00    +0.000 C 
BRANCH  16  17
ATOM     17  C   UNL     1       6.702   4.567  14.814  0.00  0.00    +0.000 A 
ATOM     18  C   UNL     1       5.956   3.684  14.042  0.00  0.00    +0.000 A 
ATOM     19  C   UNL     1       6.214   3.605  12.677  0.00  0.00    +0.000 A 
ATOM     20  C   UNL     1       7.204   4.407  12.122  0.00  0.00    +0.000 A 
ATOM     21  C   UNL     1       7.898   5.261  12.961  0.00  0.00    +0.000 A 
ATOM     22  N   UNL     1       7.667   5.362  14.287  0.00  0.00    +0.000 NA
ENDBRANCH  16  17
ENDBRANCH  15  16
ENDBRANCH  14  15
ENDBRANCH   1  14
TORSDOF 6
ENDMDL
MODEL 7
REMARK VINA RESULT:      -6.9      1.369      1.917
REMARK  Name = 
REMARK  7 active torsions:
REMARK  status: ('A' for Active; 'I' for Inactive)
REMARK    1  A    between atoms: C_1  and  N_2
REMARK    2  A    between atoms: N_2  and  C_3
REMARK    3  A    between atoms: N_2  and  C_11
REMARK    4  A    between atoms: C_3  and  C_4
REMARK    5  A    between atoms: C_4  and  C_5
REMARK    6  A    between atoms: C_11  and  C_12
REMARK    7  A    between atoms: C_15  and  C_16
REMARK                            x       y       z     vdW  Elec       q    Type
REMARK                         _______ _______ _______ _____ _____    ______ ____
ROOT
ATOM      1  C   UNL     1       7.604   5.811  18.158  0.00  0.00    +0.000 C 
ENDROOT
BRANCH   1   2
ATOM      2  C   UNL     1       7.755   7.293  18.083  0.00  0.00    +0.000 A 
ATOM      3  C   UNL     1       7.058   8.204  17.324  0.00  0.00    +0.000 A 
ATOM      4  O   UNL     1       7.574   9.440  17.565  0.00  0.00    +0.000 OA
ATOM      5  C   UNL     1       8.577   9.216  18.473  0.00  0.00    +0.000 A 
ATOM      6  N   UNL     1       8.715   7.951  18.822  0.00  0.00    +0.000 NA
BRANCH   5   7
ATOM      7  C   UNL     1       9.354  10.372  18.902  0.00  0.00    +0.000 A 
ATOM      8  C   UNL     1      10.057  11.170  17.987  0.00  0.00    +0.000 A 
ATOM      9  C   UNL     1      10.816  12.258  18.429  0.00  0.00    +0.000 A 
ATOM     10  C   UNL     1      10.877  12.561  19.787  0.00  0.00    +0.000 A 
ATOM     11  C   UNL     1      10.179  11.781  20.708  0.00  0.00    +0.000 A 
ATOM     12  C   UNL     1       9.423  10.694  20.265  0.00  0.00    +0.000 A 
ENDBRANCH   5   7
ENDBRANCH   1   2
BRANCH   1  14
ATOM     13  C   UNL     1       7.198   4.709  16.036  0.00  0.00    +0.000 C 
ATOM     14  N   UNL     1       6.570   5.325  17.218  0.00  0.00    +0.000 NA
BRANCH  14  15
ATOM     15  C   UNL     1       5.709   4.309  17.870  0.00  0.00    +0.000 C 
BRANCH  15  16
ATOM     16  C   UNL     1       4.337   4.119  17.207  0.00  0.00    +0.000 C 
BRANCH  16  17
ATOM     17  C   UNL     1       3.257   3.973  18.247  0.00  0.00    +0.000 A 
ATOM     18  C   UNL     1       1.954   3.655  17.879  0.00  0.00    +0.000 A 
ATOM     19  C   UNL     1       0.993   3.513  18.875  0.00  0.00    +0.000 A 
ATOM     20  C   UNL     1       1.357   3.691  20.205  0.00  0.00    +0.000 A 
ATOM     21  C   UNL     1       2.675   4.003  20.484  0.00  0.00    +0.000 A 
ATOM     22  N   UNL     1       3.630   4.143  19.540  0.00  0.00    +0.000 NA
ENDBRANCH  16  17
ENDBRANCH  15  16
ENDBRANCH  14  15
ENDBRANCH   1  14
TORSDOF 6
ENDMDL
MODEL 8
REMARK VINA RESULT:      -6.9      4.152      5.835
REMARK  Name = 
REMARK  7 active torsions:
REMARK  status: ('A' for Active; 'I' for Inactive)
REMARK    1  A    between atoms: C_1  and  N_2
REMARK    2  A    between atoms: N_2  and  C_3
REMARK    3  A    between atoms: N_2  and  C_11
REMARK    4  A    between atoms: C_3  and  C_4
REMARK    5  A    between atoms: C_4  and  C_5
REMARK    6  A    between atoms: C_11  and  C_12
REMARK    7  A    between atoms: C_15  and  C_16
REMARK                            x       y       z     vdW  Elec       q    Type
REMARK                         _______ _______ _______ _____ _____    ______ ____
ROOT
ATOM      1  C   UNL     1       5.134   4.241  19.048  0.00  0.00    +0.000 C 
ENDROOT
BRANCH   1   2
ATOM      2  C   UNL     1       6.073   4.358  17.896  0.00  0.00    +0.000 A 
ATOM      3  C   UNL     1       7.420   4.638  17.892  0.00  0.00    +0.000 A 
ATOM      4  O   UNL     1       7.842   4.676  16.600  0.00  0.00    +0.000 OA
ATOM      5  C   UNL     1       6.712   4.413  15.868  0.00  0.00    +0.000 A 
ATOM      6  N   UNL     1       5.634   4.205  16.599  0.00  0.00    +0.000 NA
BRANCH   5   7
ATOM      7  C   UNL     1       6.844   4.424  14.416  0.00  0.00    +0.000 A 
ATOM      8  C   UNL     1       6.135   3.527  13.603  0.00  0.00    +0.000 A 
ATOM      9  C   UNL     1       6.300   3.542  12.215  0.00  0.00    +0.000 A 
ATOM     10  C   UNL     1       7.172   4.454  11.626  0.00  0.00    +0.000 A 
ATOM     11  C   UNL     1       7.879   5.356  12.419  0.00  0.00    +0.000 A 
ATOM     12  C   UNL     1       7.715   5.338  13.806  0.00  0.00    +0.000 A 
ENDBRANCH   5   7
ENDBRANCH   1   2
BRANCH   1  14
ATOM     13  C   UNL     1       4.208   2.428  20.367  0.00  0.00    +0.000 C 
ATOM     14  N   UNL     1       4.384   2.965  19.007  0.00  0.00    +0.000 NA
BRANCH  14  15
ATOM     15  C   UNL     1       3.042   3.169  18.409  0.00  0.00    +0.000 C 
BRANCH  15  16
ATOM     16  C   UNL     1       1.997   3.743  19.375  0.00  0.00    +0.000 C 
BRANCH  16  17
ATOM     17  C   UNL     1       2.020   5.249  19.352  0.00  0.00    +0.000 A 
ATOM     18  C   UNL     1       1.795   5.982  20.513  0.00  0.00    +0.000 A 
ATOM     19  C   UNL     1       1.842   7.371  20.447  0.00  0.00    +0.000 A 
ATOM     20  C   UNL     1       2.114   7.988  19.232  0.00  0.00    +0.000 A 
ATOM     21  C   UNL     1       2.329   7.185  18.126  0.00  0.00    +0.000 A 
ATOM     22  N   UNL     1       2.293   5.836  18.160  0.00  0.00    +0.000 NA
ENDBRANCH  16  17
ENDBRANCH  15  16
ENDBRANCH  14  15
ENDBRANCH   1  14
TORSDOF 6
ENDMDL
MODEL 9
REMARK VINA RESULT:      -6.8      1.799      8.864
REMARK  Name = 
REMARK  7 active torsions:
REMARK  status: ('A' for Active; 'I' for Inactive)
REMARK    1  A    between atoms: C_1  and  N_2
REMARK    2  A    between atoms: N_2  and  C_3
REMARK    3  A    between atoms: N_2  and  C_11
REMARK    4  A    between atoms: C_3  and  C_4
REMARK    5  A    between atoms: C_4  and  C_5
REMARK    6  A    between atoms: C_11  and  C_12
REMARK    7  A    between atoms: C_15  and  C_16
REMARK                            x       y       z     vdW  Elec       q    Type
REMARK                         _______ _______ _______ _____ _____    ______ ____
ROOT
ATOM      1  C   UNL     1       7.657   5.941  18.841  0.00  0.00    +0.000 C 
ENDROOT
BRANCH   1   2
ATOM      2  C   UNL     1       6.467   5.131  18.452  0.00  0.00    +0.000 A 
ATOM      3  C   UNL     1       6.230   4.427  17.294  0.00  0.00    +0.000 A 
ATOM      4  O   UNL     1       4.990   3.874  17.379  0.00  0.00    +0.000 OA
ATOM      5  C   UNL     1       4.524   4.277  18.605  0.00  0.00    +0.000 A 
ATOM      6  N   UNL     1       5.376   5.019  19.287  0.00  0.00    +0.000 NA
BRANCH   5   7
ATOM      7  C   UNL     1       3.176   3.863  18.972  0.00  0.00    +0.000 A 
ATOM      8  C   UNL     1       2.458   4.505  19.992  0.00  0.00    +0.000 A 
ATOM      9  C   UNL     1       1.176   4.071  20.341  0.00  0.00    +0.000 A 
ATOM     10  C   UNL     1       0.597   2.994  19.673  0.00  0.00    +0.000 A 
ATOM     11  C   UNL     1       1.296   2.349  18.653  0.00  0.00    +0.000 A 
ATOM     12  C   UNL     1       2.577   2.783  18.308  0.00  0.00    +0.000 A 
ENDBRANCH   5   7
ENDBRANCH   1   2
BRANCH   1  14
ATOM     13  C   UNL     1       6.548   7.543  17.396  0.00  0.00    +0.000 C 
ATOM     14  N   UNL     1       7.845   7.096  17.934  0.00  0.00    +0.000 NA
BRANCH  14  15
ATOM     15  C   UNL     1       8.466   8.231  18.657  0.00  0.00    +0.000 C 
BRANCH  15  16
ATOM     16  C   UNL     1       8.415   9.568  17.904  0.00  0.00    +0.000 C 
BRANCH  16  17
ATOM     17  C   UNL     1       9.252  10.606  18.604  0.00  0.00    +0.000 A 
ATOM     18  C   UNL     1       9.393  10.593  19.987  0.00  0.00    +0.000 A 
ATOM     19  C   UNL     1      10.191  11.561  20.588  0.00  0.00    +0.000 A 
ATOM     20  C   UNL     1      10.825  12.511  19.797  0.00  0.00    +0.000 A 
ATOM     21  C   UNL     1      10.635  12.452  18.427  0.00  0.00    +0.000 A 
ATOM     22  N   UNL     1       9.870  11.522  17.816  0.00  0.00    +0.000 NA
ENDBRANCH  16  17
ENDBRANCH  15  16
ENDBRANCH  14  15
ENDBRANCH   1  14
TORSDOF 6
ENDMDL
