MODEL 1
REMARK VINA RESULT:      -8.9      0.000      0.000
REMARK  Name = 
REMARK  6 active torsions:
REMARK  status: ('A' for Active; 'I' for Inactive)
REMARK    1  A    between atoms: C_2  and  C_3
REMARK    2  A    between atoms: C_3  and  C_4
REMARK    3  A    between atoms: C_4  and  S_5
REMARK    4  A    between atoms: S_5  and  C_8
REMARK    5  A    between atoms: C_8  and  C_9
REMARK    6  A    between atoms: N_14  and  N_15
REMARK                            x       y       z     vdW  Elec       q    Type
REMARK                         _______ _______ _______ _____ _____    ______ ____
ROOT
ATOM      1  N   UNL     1       1.748   8.921  18.328  0.00  0.00    +0.000 N 
ATOM      2  C   UNL     1       1.770  10.312  18.172  0.00  0.00    +0.000 C 
ATOM      3  O   UNL     1       2.573  10.850  17.411  0.00  0.00    +0.000 OA
ATOM      4  N   UNL     1       0.783  11.001  18.915  0.00  0.00    +0.000 N 
ATOM      5  C   UNL     1      -0.332  10.304  19.565  0.00  0.00    +0.000 C 
ATOM      6  C   UNL     1      -1.597  10.531  18.791  0.00  0.00    +0.000 A 
ATOM      7  C   UNL     1      -2.199   9.559  17.985  0.00  0.00    +0.000 A 
ATOM      8  C   UNL     1      -3.378   9.858  17.294  0.00  0.00    +0.000 A 
ATOM      9  C   UNL     1      -3.959  11.122  17.410  0.00  0.00    +0.000 A 
ATOM     10  C   UNL     1      -3.353  12.096  18.203  0.00  0.00    +0.000 A 
ATOM     11  C   UNL     1      -2.165  11.799  18.867  0.00  0.00    +0.000 A 
ATOM     12  O   UNL     1      -1.623  12.744  19.698  0.00  0.00    +0.000 OA
ATOM     13  C   UNL     1      -0.360  13.218  19.393  0.00  0.00    +0.000 A 
ATOM     14  C   UNL     1      -0.281  14.615  19.554  0.00  0.00    +0.000 A 
ATOM     15  C   UNL     1       0.899  15.300  19.289  0.00  0.00    +0.000 A 
ATOM     16  C   UNL     1       2.012  14.587  18.879  0.00  0.00    +0.000 A 
ATOM     17 CL   UNL     1       3.483  15.424  18.552  0.00  0.00    +0.000 Cl
ATOM     18  C   UNL     1       1.957  13.193  18.748  0.00  0.00    +0.000 A 
ATOM     19  C   UNL     1       0.775  12.461  19.002  0.00  0.00    +0.000 A 
ATOM     20  H   UNL     1       0.821   8.539  18.187  0.00  0.00    +0.000 HD
ENDROOT
BRANCH   1  23
ATOM     21  O   UNL     1       2.737   6.365  19.191  0.00  0.00    +0.000 OA
ATOM     22  C   UNL     1       3.160   6.918  18.181  0.00  0.00    +0.000 C 
ATOM     23  N   UNL     1       2.736   8.140  17.669  0.00  0.00    +0.000 N 
ATOM     24  H   UNL     1       2.943   8.378  16.704  0.00  0.00    +0.000 HD
BRANCH  22  25
ATOM     25  C   UNL     1       4.210   6.284  17.300  0.00  0.00    +0.000 C 
BRANCH  25  26
ATOM     26  C   UNL     1       5.607   6.521  17.865  0.00  0.00    +0.000 C 
BRANCH  26  27
ATOM     27  S   UNL     1       6.237   5.042  18.609  0.00  0.00    +0.000 S 
ATOM     28  O   UNL     1       6.797   5.414  19.891  0.00  0.00    +0.000 OA
ATOM     29  O   UNL     1       5.179   4.047  18.529  0.00  0.00    +0.000 OA
BRANCH  27  30
ATOM     30  C   UNL     1       7.570   4.566  17.502  0.00  0.00    +0.000 C 
BRANCH  30  31
ATOM     31  C   UNL     1       7.056   4.439  16.121  0.00  0.00    +0.000 A 
ATOM     32  C   UNL     1       6.075   3.665  15.530  0.00  0.00    +0.000 A 
ATOM     33  C   UNL     1       6.025   4.047  14.168  0.00  0.00    +0.000 A 
ATOM     34  C   UNL     1       6.966   5.033  14.012  0.00  0.00    +0.000 A 
ATOM     35  O   UNL     1       7.592   5.285  15.193  0.00  0.00    +0.000 OA
ENDBRANCH  30  31
ENDBRANCH  27  30
ENDBRANCH  26  27
ENDBRANCH  25  26
ENDBRANCH  22  25
ENDBRANCH   1  23
TORSDOF 6
ENDMDL
MODEL 2
REMARK VINA RESULT:      -8.8      0.932      1.077
REMARK  Name = 
REMARK  6 active torsions:
REMARK  status: ('A' for Active; 'I' for Inactive)
REMARK    1  A    between atoms: C_2  and  C_3
REMARK    2  A    between atoms: C_3  and  C_4
REMARK    3  A    between atoms: C_4  and  S_5
REMARK    4  A    between atoms: S_5  and  C_8
REMARK    5  A    between atoms: C_8  and  C_9
REMARK    6  A    between atoms: N_14  and  N_15
REMARK                            x       y       z     vdW  Elec       q    Type
REMARK                         _______ _______ _______ _____ _____    ______ ____
ROOT
ATOM      1  N   UNL     1       1.581   9.079  18.274  0.00  0.00    +0.000 N 
ATOM      2  C   UNL     1       1.471  10.466  18.432  0.00  0.00    +0.000 C 
ATOM      3  O   UNL     1       2.362  11.218  18.044  0.00  0.00    +0.000 OA
ATOM      4  N   UNL     1       0.258  10.894  19.018  0.00  0.00    +0.000 N 
ATOM      5  C   UNL     1      -0.888   9.994  19.186  0.00  0.00    +0.000 C 
ATOM      6  C   UNL     1      -1.947  10.319  18.173  0.00  0.00    +0.000 A 
ATOM      7  C   UNL     1      -2.212   9.531  17.048  0.00  0.00    +0.000 A 
ATOM      8  C   UNL     1      -3.216   9.912  16.152  0.00  0.00    +0.000 A 
ATOM      9  C   UNL     1      -3.958  11.073  16.378  0.00  0.00    +0.000 A 
ATOM     10  C   UNL     1      -3.685  11.865  17.493  0.00  0.00    +0.000 A 
ATOM     11  C   UNL     1      -2.666  11.494  18.368  0.00  0.00    +0.000 A 
ATOM     12  O   UNL     1      -2.460  12.246  19.494  0.00  0.00    +0.000 OA
ATOM     13  C   UNL     1      -1.228  12.856  19.642  0.00  0.00    +0.000 A 
ATOM     14  C   UNL     1      -1.362  14.177  20.115  0.00  0.00    +0.000 A 
ATOM     15  C   UNL     1      -0.246  14.978  20.323  0.00  0.00    +0.000 A 
ATOM     16  C   UNL     1       1.012  14.454  20.078  0.00  0.00    +0.000 A 
ATOM     17 CL   UNL     1       2.405  15.436  20.338  0.00  0.00    +0.000 Cl
ATOM     18  C   UNL     1       1.161  13.131  19.641  0.00  0.00    +0.000 A 
ATOM     19  C   UNL     1       0.051  12.288  19.411  0.00  0.00    +0.000 A 
ATOM     20  H   UNL     1       0.771   8.684  17.816  0.00  0.00    +0.000 HD
ENDROOT
BRANCH   1  23
ATOM     21  O   UNL     1       2.560   6.407  18.674  0.00  0.00    +0.000 OA
ATOM     22  C   UNL     1       3.181   7.234  18.016  0.00  0.00    +0.000 C 
ATOM     23  N   UNL     1       2.788   8.541  17.748  0.00  0.00    +0.000 N 
ATOM     24  H   UNL     1       3.223   9.049  16.984  0.00  0.00    +0.000 HD
BRANCH  22  25
ATOM     25  C   UNL     1       4.492   6.902  17.342  0.00  0.00    +0.000 C 
BRANCH  25  26
ATOM     26  C   UNL     1       5.056   5.589  17.874  0.00  0.00    +0.000 C 
BRANCH  26  27
ATOM     27  S   UNL     1       6.746   5.790  18.365  0.00  0.00    +0.000 S 
ATOM     28  O   UNL     1       7.184   7.078  17.872  0.00  0.00    +0.000 OA
ATOM     29  O   UNL     1       6.810   5.487  19.786  0.00  0.00    +0.000 OA
BRANCH  27  30
ATOM     30  C   UNL     1       7.592   4.493  17.453  0.00  0.00    +0.000 C 
BRANCH  30  31
ATOM     31  C   UNL     1       7.053   4.411  16.078  0.00  0.00    +0.000 A 
ATOM     32  C   UNL     1       6.053   3.665  15.484  0.00  0.00    +0.000 A 
ATOM     33  C   UNL     1       5.983   4.085  14.134  0.00  0.00    +0.000 A 
ATOM     34  C   UNL     1       6.933   5.065  13.988  0.00  0.00    +0.000 A 
ATOM     35  O   UNL     1       7.583   5.276  15.164  0.00  0.00    +0.000 OA
ENDBRANCH  30  31
ENDBRANCH  27  30
ENDBRANCH  26  27
ENDBRANCH  25  26
ENDBRANCH  22  25
ENDBRANCH   1  23
TORSDOF 6
ENDMDL
MODEL 3
REMARK VINA RESULT:      -8.8      0.838      1.009
REMARK  Name = 
REMARK  6 active torsions:
REMARK  status: ('A' for Active; 'I' for Inactive)
REMARK    1  A    between atoms: C_2  and  C_3
REMARK    2  A    between atoms: C_3  and  C_4
REMARK    3  A    between atoms: C_4  and  S_5
REMARK    4  A    between atoms: S_5  and  C_8
REMARK    5  A    between atoms: C_8  and  C_9
REMARK    6  A    between atoms: N_14  and  N_15
REMARK                            x       y       z     vdW  Elec       q    Type
REMARK                         _______ _______ _______ _____ _____    ______ ____
ROOT
ATOM      1  N   UNL     1       1.707   8.775  18.493  0.00  0.00    +0.000 N 
ATOM      2  C   UNL     1       1.770  10.147  18.221  0.00  0.00    +0.000 C 
ATOM      3  O   UNL     1       2.597  10.596  17.430  0.00  0.00    +0.000 OA
ATOM      4  N   UNL     1       0.793  10.922  18.887  0.00  0.00    +0.000 N 
ATOM      5  C   UNL     1      -0.350  10.313  19.576  0.00  0.00    +0.000 C 
ATOM      6  C   UNL     1      -1.598  10.507  18.767  0.00  0.00    +0.000 A 
ATOM      7  C   UNL     1      -2.216   9.486  18.036  0.00  0.00    +0.000 A 
ATOM      8  C   UNL     1      -3.377   9.757  17.304  0.00  0.00    +0.000 A 
ATOM      9  C   UNL     1      -3.924  11.042  17.304  0.00  0.00    +0.000 A 
ATOM     10  C   UNL     1      -3.302  12.063  18.021  0.00  0.00    +0.000 A 
ATOM     11  C   UNL     1      -2.131  11.792  18.727  0.00  0.00    +0.000 A 
ATOM     12  O   UNL     1      -1.574  12.789  19.483  0.00  0.00    +0.000 OA
ATOM     13  C   UNL     1      -0.294  13.201  19.159  0.00  0.00    +0.000 A 
ATOM     14  C   UNL     1      -0.178  14.604  19.203  0.00  0.00    +0.000 A 
ATOM     15  C   UNL     1       1.023  15.233  18.899  0.00  0.00    +0.000 A 
ATOM     16  C   UNL     1       2.122  14.458  18.569  0.00  0.00    +0.000 A 
ATOM     17 CL   UNL     1       3.619  15.225  18.195  0.00  0.00    +0.000 Cl
ATOM     18  C   UNL     1       2.030  13.060  18.554  0.00  0.00    +0.000 A 
ATOM     19  C   UNL     1       0.824  12.384  18.851  0.00  0.00    +0.000 A 
ATOM     20  H   UNL     1       0.772   8.407  18.370  0.00  0.00    +0.000 HD
ENDROOT
BRANCH   1  23
ATOM     21  O   UNL     1       2.686   6.326  19.633  0.00  0.00    +0.000 OA
ATOM     22  C   UNL     1       3.102   6.756  18.562  0.00  0.00    +0.000 C 
ATOM     23  N   UNL     1       2.682   7.914  17.918  0.00  0.00    +0.000 N 
ATOM     24  H   UNL     1       2.879   8.039  16.930  0.00  0.00    +0.000 HD
BRANCH  22  25
ATOM     25  C   UNL     1       4.137   6.015  17.748  0.00  0.00    +0.000 C 
BRANCH  25  26
ATOM     26  C   UNL     1       5.364   5.696  18.596  0.00  0.00    +0.000 C 
BRANCH  26  27
ATOM     27  S   UNL     1       6.845   6.187  17.757  0.00  0.00    +0.000 S 
ATOM     28  O   UNL     1       6.451   7.049  16.663  0.00  0.00    +0.000 OA
ATOM     29  O   UNL     1       7.766   6.666  18.776  0.00  0.00    +0.000 OA
BRANCH  27  30
ATOM     30  C   UNL     1       7.468   4.639  17.090  0.00  0.00    +0.000 C 
BRANCH  30  31
ATOM     31  C   UNL     1       6.989   4.460  15.702  0.00  0.00    +0.000 A 
ATOM     32  C   UNL     1       5.907   3.812  15.137  0.00  0.00    +0.000 A 
ATOM     33  C   UNL     1       5.974   4.052  13.744  0.00  0.00    +0.000 A 
ATOM     34  C   UNL     1       7.082   4.837  13.544  0.00  0.00    +0.000 A 
ATOM     35  O   UNL     1       7.701   5.097  14.727  0.00  0.00    +0.000 OA
ENDBRANCH  30  31
ENDBRANCH  27  30
ENDBRANCH  26  27
ENDBRANCH  25  26
ENDBRANCH  22  25
ENDBRANCH   1  23
TORSDOF 6
ENDMDL
MODEL 4
REMARK VINA RESULT:      -8.6      2.387      3.614
REMARK  Name = 
REMARK  6 active torsions:
REMARK  status: ('A' for Active; 'I' for Inactive)
REMARK    1  A    between atoms: C_2  and  C_3
REMARK    2  A    between atoms: C_3  and  C_4
REMARK    3  A    between atoms: C_4  and  S_5
REMARK    4  A    between atoms: S_5  and  C_8
REMARK    5  A    between atoms: C_8  and  C_9
REMARK    6  A    between atoms: N_14  and  N_15
REMARK                            x       y       z     vdW  Elec       q    Type
REMARK                         _______ _______ _______ _____ _____    ______ ____
ROOT
ATOM      1  N   UNL     1       2.437   8.907  18.263  0.00  0.00    +0.000 N 
ATOM      2  C   UNL     1       1.075   9.060  17.978  0.00  0.00    +0.000 C 
ATOM      3  O   UNL     1       0.483   8.249  17.268  0.00  0.00    +0.000 OA
ATOM      4  N   UNL     1       0.466  10.171  18.605  0.00  0.00    +0.000 N 
ATOM      5  C   UNL     1       1.132  10.927  19.671  0.00  0.00    +0.000 C 
ATOM      6  C   UNL     1       0.518  10.590  20.998  0.00  0.00    +0.000 A 
ATOM      7  C   UNL     1       1.138   9.781  21.957  0.00  0.00    +0.000 A 
ATOM      8  C   UNL     1       0.490   9.514  23.168  0.00  0.00    +0.000 A 
ATOM      9  C   UNL     1      -0.771  10.055  23.425  0.00  0.00    +0.000 A 
ATOM     10  C   UNL     1      -1.395  10.851  22.464  0.00  0.00    +0.000 A 
ATOM     11  C   UNL     1      -0.755  11.091  21.250  0.00  0.00    +0.000 A 
ATOM     12  O   UNL     1      -1.352  11.932  20.348  0.00  0.00    +0.000 OA
ATOM     13  C   UNL     1      -1.691  11.412  19.112  0.00  0.00    +0.000 A 
ATOM     14  C   UNL     1      -2.966  11.848  18.702  0.00  0.00    +0.000 A 
ATOM     15  C   UNL     1      -3.509  11.434  17.493  0.00  0.00    +0.000 A 
ATOM     16  C   UNL     1      -2.769  10.595  16.676  0.00  0.00    +0.000 A 
ATOM     17 CL   UNL     1      -3.429  10.078  15.171  0.00  0.00    +0.000 Cl
ATOM     18  C   UNL     1      -1.486  10.181  17.056  0.00  0.00    +0.000 A 
ATOM     19  C   UNL     1      -0.902  10.576  18.281  0.00  0.00    +0.000 A 
ATOM     20  H   UNL     1       2.622   8.939  19.257  0.00  0.00    +0.000 HD
ENDROOT
BRANCH   1  23
ATOM     21  O   UNL     1       2.764   6.240  19.280  0.00  0.00    +0.000 OA
ATOM     22  C   UNL     1       3.270   6.598  18.222  0.00  0.00    +0.000 C 
ATOM     23  N   UNL     1       3.156   7.853  17.635  0.00  0.00    +0.000 N 
ATOM     24  H   UNL     1       3.374   7.968  16.650  0.00  0.00    +0.000 HD
BRANCH  22  25
ATOM     25  C   UNL     1       4.077   5.655  17.360  0.00  0.00    +0.000 C 
BRANCH  25  26
ATOM     26  C   UNL     1       5.179   6.407  16.622  0.00  0.00    +0.000 C 
BRANCH  26  27
ATOM     27  S   UNL     1       6.729   6.221  17.458  0.00  0.00    +0.000 S 
ATOM     28  O   UNL     1       7.610   7.256  16.962  0.00  0.00    +0.000 OA
ATOM     29  O   UNL     1       6.432   6.126  18.879  0.00  0.00    +0.000 OA
BRANCH  27  30
ATOM     30  C   UNL     1       7.315   4.624  16.878  0.00  0.00    +0.000 C 
BRANCH  30  31
ATOM     31  C   UNL     1       6.992   4.460  15.443  0.00  0.00    +0.000 A 
ATOM     32  C   UNL     1       6.050   3.727  14.750  0.00  0.00    +0.000 A 
ATOM     33  C   UNL     1       6.220   4.039  13.381  0.00  0.00    +0.000 A 
ATOM     34  C   UNL     1       7.246   4.949  13.321  0.00  0.00    +0.000 A 
ATOM     35  O   UNL     1       7.717   5.218  14.567  0.00  0.00    +0.000 OA
ENDBRANCH  30  31
ENDBRANCH  27  30
ENDBRANCH  26  27
ENDBRANCH  25  26
ENDBRANCH  22  25
ENDBRANCH   1  23
TORSDOF 6
ENDMDL
MODEL 5
REMARK VINA RESULT:      -8.5      6.306      8.359
REMARK  Name = 
REMARK  6 active torsions:
REMARK  status: ('A' for Active; 'I' for Inactive)
REMARK    1  A    between atoms: C_2  and  C_3
REMARK    2  A    between atoms: C_3  and  C_4
REMARK    3  A    between atoms: C_4  and  S_5
REMARK    4  A    between atoms: S_5  and  C_8
REMARK    5  A    between atoms: C_8  and  C_9
REMARK    6  A    between atoms: N_14  and  N_15
REMARK                            x       y       z     vdW  Elec       q    Type
REMARK                         _______ _______ _______ _____ _____    ______ ____
ROOT
ATOM      1  N   UNL     1       8.893  10.228  18.883  0.00  0.00    +0.000 N 
ATOM      2  C   UNL     1       9.028  11.597  18.625  0.00  0.00    +0.000 C 
ATOM      3  O   UNL     1       8.545  12.099  17.612  0.00  0.00    +0.000 OA
ATOM      4  N   UNL     1       9.708  12.319  19.633  0.00  0.00    +0.000 N 
ATOM      5  C   UNL     1       9.997  11.739  20.949  0.00  0.00    +0.000 C 
ATOM      6  C   UNL     1       9.074  12.321  21.978  0.00  0.00    +0.000 A 
ATOM      7  C   UNL     1       7.995  11.626  22.536  0.00  0.00    +0.000 A 
ATOM      8  C   UNL     1       7.182  12.248  23.488  0.00  0.00    +0.000 A 
ATOM      9  C   UNL     1       7.446  13.560  23.889  0.00  0.00    +0.000 A 
ATOM     10  C   UNL     1       8.514  14.258  23.325  0.00  0.00    +0.000 A 
ATOM     11  C   UNL     1       9.303  13.640  22.357  0.00  0.00    +0.000 A 
ATOM     12  O   UNL     1      10.390  14.316  21.867  0.00  0.00    +0.000 OA
ATOM     13  C   UNL     1      10.415  14.594  20.513  0.00  0.00    +0.000 A 
ATOM     14  C   UNL     1      10.866  15.906  20.265  0.00  0.00    +0.000 A 
ATOM     15  C   UNL     1      10.956  16.398  18.969  0.00  0.00    +0.000 A 
ATOM     16  C   UNL     1      10.614  15.573  17.911  0.00  0.00    +0.000 A 
ATOM     17 CL   UNL     1      10.727  16.169  16.298  0.00  0.00    +0.000 Cl
ATOM     18  C   UNL     1      10.197  14.255  18.141  0.00  0.00    +0.000 A 
ATOM     19  C   UNL     1      10.085  13.720  19.445  0.00  0.00    +0.000 A 
ATOM     20  H   UNL     1       8.517  10.051  19.806  0.00  0.00    +0.000 HD
ENDROOT
BRANCH   1  23
ATOM     21  O   UNL     1       8.556   7.379  19.042  0.00  0.00    +0.000 OA
ATOM     22  C   UNL     1       8.178   8.024  18.070  0.00  0.00    +0.000 C 
ATOM     23  N   UNL     1       8.276   9.401  17.905  0.00  0.00    +0.000 N 
ATOM     24  H   UNL     1       7.700   9.865  17.209  0.00  0.00    +0.000 HD
BRANCH  22  25
ATOM     25  C   UNL     1       7.479   7.374  16.899  0.00  0.00    +0.000 C 
BRANCH  25  26
ATOM     26  C   UNL     1       6.212   6.659  17.354  0.00  0.00    +0.000 C 
BRANCH  26  27
ATOM     27  S   UNL     1       6.373   4.908  17.141  0.00  0.00    +0.000 S 
ATOM     28  O   UNL     1       5.655   4.556  15.936  0.00  0.00    +0.000 OA
ATOM     29  O   UNL     1       7.788   4.598  17.271  0.00  0.00    +0.000 OA
BRANCH  27  30
ATOM     30  C   UNL     1       5.498   4.243  18.563  0.00  0.00    +0.000 C 
BRANCH  30  31
ATOM     31  C   UNL     1       4.079   4.007  18.215  0.00  0.00    +0.000 A 
ATOM     32  C   UNL     1       2.986   4.832  18.035  0.00  0.00    +0.000 A 
ATOM     33  C   UNL     1       1.907   3.998  17.658  0.00  0.00    +0.000 A 
ATOM     34  C   UNL     1       2.407   2.720  17.619  0.00  0.00    +0.000 A 
ATOM     35  O   UNL     1       3.726   2.715  17.948  0.00  0.00    +0.000 OA
ENDBRANCH  30  31
ENDBRANCH  27  30
ENDBRANCH  26  27
ENDBRANCH  25  26
ENDBRANCH  22  25
ENDBRANCH   1  23
TORSDOF 6
ENDMDL
MODEL 6
REMARK VINA RESULT:      -8.4      1.897      2.981
REMARK  Name = 
REMARK  6 active torsions:
REMARK  status: ('A' for Active; 'I' for Inactive)
REMARK    1  A    between atoms: C_2  and  C_3
REMARK    2  A    between atoms: C_3  and  C_4
REMARK    3  A    between atoms: C_4  and  S_5
REMARK    4  A    between atoms: S_5  and  C_8
REMARK    5  A    between atoms: C_8  and  C_9
REMARK    6  A    between atoms: N_14  and  N_15
REMARK                            x       y       z     vdW  Elec       q    Type
REMARK                         _______ _______ _______ _____ _____    ______ ____
ROOT
ATOM      1  N   UNL     1       1.822   9.065  18.491  0.00  0.00    +0.000 N 
ATOM      2  C   UNL     1       1.792  10.444  18.254  0.00  0.00    +0.000 C 
ATOM      3  O   UNL     1       2.595  10.970  17.485  0.00  0.00    +0.000 OA
ATOM      4  N   UNL     1       0.757  11.132  18.927  0.00  0.00    +0.000 N 
ATOM      5  C   UNL     1      -0.348  10.428  19.586  0.00  0.00    +0.000 C 
ATOM      6  C   UNL     1      -1.598  10.555  18.766  0.00  0.00    +0.000 A 
ATOM      7  C   UNL     1      -2.135   9.512  18.003  0.00  0.00    +0.000 A 
ATOM      8  C   UNL     1      -3.304   9.720  17.263  0.00  0.00    +0.000 A 
ATOM      9  C   UNL     1      -3.940  10.963  17.288  0.00  0.00    +0.000 A 
ATOM     10  C   UNL     1      -3.398  12.006  18.038  0.00  0.00    +0.000 A 
ATOM     11  C   UNL     1      -2.219  11.800  18.751  0.00  0.00    +0.000 A 
ATOM     12  O   UNL     1      -1.741  12.814  19.539  0.00  0.00    +0.000 OA
ATOM     13  C   UNL     1      -0.490  13.322  19.241  0.00  0.00    +0.000 A 
ATOM     14  C   UNL     1      -0.473  14.729  19.321  0.00  0.00    +0.000 A 
ATOM     15  C   UNL     1       0.684  15.447  19.048  0.00  0.00    +0.000 A 
ATOM     16  C   UNL     1       1.838  14.759  18.712  0.00  0.00    +0.000 A 
ATOM     17 CL   UNL     1       3.282  15.638  18.377  0.00  0.00    +0.000 Cl
ATOM     18  C   UNL     1       1.844  13.359  18.662  0.00  0.00    +0.000 A 
ATOM     19  C   UNL     1       0.686  12.593  18.927  0.00  0.00    +0.000 A 
ATOM     20  H   UNL     1       0.917   8.636  18.348  0.00  0.00    +0.000 HD
ENDROOT
BRANCH   1  23
ATOM     21  O   UNL     1       1.993   6.197  18.482  0.00  0.00    +0.000 OA
ATOM     22  C   UNL     1       2.859   6.900  17.973  0.00  0.00    +0.000 C 
ATOM     23  N   UNL     1       2.862   8.289  17.908  0.00  0.00    +0.000 N 
ATOM     24  H   UNL     1       3.467   8.759  17.241  0.00  0.00    +0.000 HD
BRANCH  22  25
ATOM     25  C   UNL     1       4.064   6.311  17.278  0.00  0.00    +0.000 C 
BRANCH  25  26
ATOM     26  C   UNL     1       4.129   4.803  17.492  0.00  0.00    +0.000 C 
BRANCH  26  27
ATOM     27  S   UNL     1       5.204   4.411  18.844  0.00  0.00    +0.000 S 
ATOM     28  O   UNL     1       6.516   4.159  18.287  0.00  0.00    +0.000 OA
ATOM     29  O   UNL     1       5.017   5.449  19.845  0.00  0.00    +0.000 OA
BRANCH  27  30
ATOM     30  C   UNL     1       4.525   2.869  19.469  0.00  0.00    +0.000 C 
BRANCH  30  31
ATOM     31  C   UNL     1       3.102   3.054  19.827  0.00  0.00    +0.000 A 
ATOM     32  C   UNL     1       2.448   3.689  20.864  0.00  0.00    +0.000 A 
ATOM     33  C   UNL     1       1.062   3.555  20.613  0.00  0.00    +0.000 A 
ATOM     34  C   UNL     1       0.953   2.858  19.436  0.00  0.00    +0.000 A 
ATOM     35  O   UNL     1       2.185   2.555  18.946  0.00  0.00    +0.000 OA
ENDBRANCH  30  31
ENDBRANCH  27  30
ENDBRANCH  26  27
ENDBRANCH  25  26
ENDBRANCH  22  25
ENDBRANCH   1  23
TORSDOF 6
ENDMDL
MODEL 7
REMARK VINA RESULT:      -8.3      1.662      2.334
REMARK  Name = 
REMARK  6 active torsions:
REMARK  status: ('A' for Active; 'I' for Inactive)
REMARK    1  A    between atoms: C_2  and  C_3
REMARK    2  A    between atoms: C_3  and  C_4
REMARK    3  A    between atoms: C_4  and  S_5
REMARK    4  A    between atoms: S_5  and  C_8
REMARK    5  A    between atoms: C_8  and  C_9
REMARK    6  A    between atoms: N_14  and  N_15
REMARK                            x       y       z     vdW  Elec       q    Type
REMARK                         _______ _______ _______ _____ _____    ______ ____
ROOT
ATOM      1  N   UNL     1       1.653   9.003  18.197  0.00  0.00    +0.000 N 
ATOM      2  C   UNL     1       1.643  10.402  18.221  0.00  0.00    +0.000 C 
ATOM      3  O   UNL     1       2.470  11.051  17.582  0.00  0.00    +0.000 OA
ATOM      4  N   UNL     1       0.598  10.968  18.987  0.00  0.00    +0.000 N 
ATOM      5  C   UNL     1      -0.530  10.169  19.478  0.00  0.00    +0.000 C 
ATOM      6  C   UNL     1      -1.758  10.466  18.668  0.00  0.00    +0.000 A 
ATOM      7  C   UNL     1      -2.287   9.592  17.711  0.00  0.00    +0.000 A 
ATOM      8  C   UNL     1      -3.434   9.952  16.997  0.00  0.00    +0.000 A 
ATOM      9  C   UNL     1      -4.057  11.178  17.240  0.00  0.00    +0.000 A 
ATOM     10  C   UNL     1      -3.524  12.054  18.184  0.00  0.00    +0.000 A 
ATOM     11  C   UNL     1      -2.365  11.701  18.872  0.00  0.00    +0.000 A 
ATOM     12  O   UNL     1      -1.897  12.543  19.846  0.00  0.00    +0.000 OA
ATOM     13  C   UNL     1      -0.633  13.079  19.678  0.00  0.00    +0.000 A 
ATOM     14  C   UNL     1      -0.604  14.445  20.020  0.00  0.00    +0.000 A 
ATOM     15  C   UNL     1       0.567  15.185  19.912  0.00  0.00    +0.000 A 
ATOM     16  C   UNL     1       1.722  14.554  19.479  0.00  0.00    +0.000 A 
ATOM     17 CL   UNL     1       3.183  15.459  19.347  0.00  0.00    +0.000 Cl
ATOM     18  C   UNL     1       1.715  13.188  19.169  0.00  0.00    +0.000 A 
ATOM     19  C   UNL     1       0.542  12.404  19.259  0.00  0.00    +0.000 A 
ATOM     20  H   UNL     1       0.747   8.621  17.955  0.00  0.00    +0.000 HD
ENDROOT
BRANCH   1  23
ATOM     21  O   UNL     1       3.045   6.652  19.087  0.00  0.00    +0.000 OA
ATOM     22  C   UNL     1       3.321   7.209  18.030  0.00  0.00    +0.000 C 
ATOM     23  N   UNL     1       2.698   8.334  17.502  0.00  0.00    +0.000 N 
ATOM     24  H   UNL     1       2.808   8.552  16.517  0.00  0.00    +0.000 HD
BRANCH  22  25
ATOM     25  C   UNL     1       4.392   6.684  17.103  0.00  0.00    +0.000 C 
BRANCH  25  26
ATOM     26  C   UNL     1       5.642   6.296  17.886  0.00  0.00    +0.000 C 
BRANCH  26  27
ATOM     27  S   UNL     1       5.880   4.541  17.851  0.00  0.00    +0.000 S 
ATOM     28  O   UNL     1       7.185   4.298  17.275  0.00  0.00    +0.000 OA
ATOM     29  O   UNL     1       5.559   4.047  19.180  0.00  0.00    +0.000 OA
BRANCH  27  30
ATOM     30  C   UNL     1       4.617   3.982  16.701  0.00  0.00    +0.000 C 
BRANCH  30  31
ATOM     31  C   UNL     1       3.568   3.235  17.429  0.00  0.00    +0.000 A 
ATOM     32  C   UNL     1       3.522   1.998  18.040  0.00  0.00    +0.000 A 
ATOM     33  C   UNL     1       2.234   1.877  18.614  0.00  0.00    +0.000 A 
ATOM     34  C   UNL     1       1.577   3.049  18.329  0.00  0.00    +0.000 A 
ATOM     35  O   UNL     1       2.381   3.883  17.617  0.00  0.00    +0.000 OA
ENDBRANCH  30  31
ENDBRANCH  27  30
ENDBRANCH  26  27
ENDBRANCH  25  26
ENDBRANCH  22  25
ENDBRANCH   1  23
TORSDOF 6
ENDMDL
MODEL 8
REMARK VINA RESULT:      -8.3      2.548      3.833
REMARK  Name = 
REMARK  6 active torsions:
REMARK  status: ('A' for Active; 'I' for Inactive)
REMARK    1  A    between atoms: C_2  and  C_3
REMARK    2  A    between atoms: C_3  and  C_4
REMARK    3  A    between atoms: C_4  and  S_5
REMARK    4  A    between atoms: S_5  and  C_8
REMARK    5  A    between atoms: C_8  and  C_9
REMARK    6  A    between atoms: N_14  and  N_15
REMARK                            x       y       z     vdW  Elec       q    Type
REMARK                         _______ _______ _______ _____ _____    ______ ____
ROOT
ATOM      1  N   UNL     1       2.293   8.929  18.263  0.00  0.00    +0.000 N 
ATOM      2  C   UNL     1       0.935   9.107  17.975  0.00  0.00    +0.000 C 
ATOM      3  O   UNL     1       0.326   8.300  17.276  0.00  0.00    +0.000 OA
ATOM      4  N   UNL     1       0.351  10.240  18.586  0.00  0.00    +0.000 N 
ATOM      5  C   UNL     1       1.033  10.996  19.643  0.00  0.00    +0.000 C 
ATOM      6  C   UNL     1       0.411  10.690  20.973  0.00  0.00    +0.000 A 
ATOM      7  C   UNL     1       1.012   9.882  21.944  0.00  0.00    +0.000 A 
ATOM      8  C   UNL     1       0.358   9.646  23.158  0.00  0.00    +0.000 A 
ATOM      9  C   UNL     1      -0.891  10.218  23.406  0.00  0.00    +0.000 A 
ATOM     10  C   UNL     1      -1.497  11.014  22.434  0.00  0.00    +0.000 A 
ATOM     11  C   UNL     1      -0.852  11.223  21.217  0.00  0.00    +0.000 A 
ATOM     12  O   UNL     1      -1.429  12.065  20.303  0.00  0.00    +0.000 OA
ATOM     13  C   UNL     1      -1.779  11.535  19.075  0.00  0.00    +0.000 A 
ATOM     14  C   UNL     1      -3.044  11.994  18.658  0.00  0.00    +0.000 A 
ATOM     15  C   UNL     1      -3.596  11.574  17.454  0.00  0.00    +0.000 A 
ATOM     16  C   UNL     1      -2.874  10.708  16.650  0.00  0.00    +0.000 A 
ATOM     17 CL   UNL     1      -3.545  10.185  15.151  0.00  0.00    +0.000 Cl
ATOM     18  C   UNL     1      -1.600  10.272  17.036  0.00  0.00    +0.000 A 
ATOM     19  C   UNL     1      -1.008  10.670  18.256  0.00  0.00    +0.000 A 
ATOM     20  H   UNL     1       2.479   8.970  19.257  0.00  0.00    +0.000 HD
ENDROOT
BRANCH   1  23
ATOM     21  O   UNL     1       2.883   6.389  19.472  0.00  0.00    +0.000 OA
ATOM     22  C   UNL     1       3.240   6.664  18.331  0.00  0.00    +0.000 C 
ATOM     23  N   UNL     1       2.989   7.851  17.650  0.00  0.00    +0.000 N 
ATOM     24  H   UNL     1       3.082   7.878  16.640  0.00  0.00    +0.000 HD
BRANCH  22  25
ATOM     25  C   UNL     1       3.990   5.678  17.466  0.00  0.00    +0.000 C 
BRANCH  25  26
ATOM     26  C   UNL     1       5.487   5.741  17.747  0.00  0.00    +0.000 C 
BRANCH  26  27
ATOM     27  S   UNL     1       6.387   6.072  16.257  0.00  0.00    +0.000 S 
ATOM     28  O   UNL     1       5.448   6.625  15.305  0.00  0.00    +0.000 OA
ATOM     29  O   UNL     1       7.574   6.820  16.640  0.00  0.00    +0.000 OA
BRANCH  27  30
ATOM     30  C   UNL     1       6.882   4.433  15.709  0.00  0.00    +0.000 C 
BRANCH  30  31
ATOM     31  C   UNL     1       6.919   4.387  14.231  0.00  0.00    +0.000 A 
ATOM     32  C   UNL     1       7.669   5.036  13.270  0.00  0.00    +0.000 A 
ATOM     33  C   UNL     1       7.264   4.515  12.018  0.00  0.00    +0.000 A 
ATOM     34  C   UNL     1       6.301   3.574  12.290  0.00  0.00    +0.000 A 
ATOM     35  O   UNL     1       6.090   3.483  13.630  0.00  0.00    +0.000 OA
ENDBRANCH  30  31
ENDBRANCH  27  30
ENDBRANCH  26  27
ENDBRANCH  25  26
ENDBRANCH  22  25
ENDBRANCH   1  23
TORSDOF 6
ENDMDL
MODEL 9
REMARK VINA RESULT:      -8.3      3.811     10.462
REMARK  Name = 
REMARK  6 active torsions:
REMARK  status: ('A' for Active; 'I' for Inactive)
REMARK    1  A    between atoms: C_2  and  C_3
REMARK    2  A    between atoms: C_3  and  C_4
REMARK    3  A    between atoms: C_4  and  S_5
REMARK    4  A    between atoms: S_5  and  C_8
REMARK    5  A    between atoms: C_8  and  C_9
REMARK    6  A    between atoms: N_14  and  N_15
REMARK                            x       y       z     vdW  Elec       q    Type
REMARK                         _______ _______ _______ _____ _____    ______ ____
ROOT
ATOM      1  N   UNL     1       2.820   8.227  17.925  0.00  0.00    +0.000 N 
ATOM      2  C   UNL     1       2.580   6.929  18.391  0.00  0.00    +0.000 C 
ATOM      3  O   UNL     1       1.434   6.532  18.592  0.00  0.00    +0.000 OA
ATOM      4  N   UNL     1       3.742   6.141  18.555  0.00  0.00    +0.000 N 
ATOM      5  C   UNL     1       5.046   6.551  18.022  0.00  0.00    +0.000 C 
ATOM      6  C   UNL     1       5.380   5.738  16.806  0.00  0.00    +0.000 A 
ATOM      7  C   UNL     1       5.321   6.235  15.500  0.00  0.00    +0.000 A 
ATOM      8  C   UNL     1       5.646   5.405  14.422  0.00  0.00    +0.000 A 
ATOM      9  C   UNL     1       6.034   4.082  14.646  0.00  0.00    +0.000 A 
ATOM     10  C   UNL     1       6.081   3.582  15.947  0.00  0.00    +0.000 A 
ATOM     11  C   UNL     1       5.730   4.408  17.014  0.00  0.00    +0.000 A 
ATOM     12  O   UNL     1       5.850   3.921  18.289  0.00  0.00    +0.000 OA
ATOM     13  C   UNL     1       4.703   3.844  19.057  0.00  0.00    +0.000 A 
ATOM     14  C   UNL     1       4.645   2.634  19.775  0.00  0.00    +0.000 A 
ATOM     15  C   UNL     1       3.567   2.344  20.602  0.00  0.00    +0.000 A 
ATOM     16  C   UNL     1       2.550   3.275  20.732  0.00  0.00    +0.000 A 
ATOM     17 CL   UNL     1       1.211   2.931  21.760  0.00  0.00    +0.000 Cl
ATOM     18  C   UNL     1       2.612   4.498  20.050  0.00  0.00    +0.000 A 
ATOM     19  C   UNL     1       3.688   4.826  19.194  0.00  0.00    +0.000 A 
ATOM     20  H   UNL     1       3.409   8.231  17.102  0.00  0.00    +0.000 HD
ENDROOT
BRANCH   1  23
ATOM     21  O   UNL     1       1.370   9.485  20.063  0.00  0.00    +0.000 OA
ATOM     22  C   UNL     1       1.076   9.663  18.886  0.00  0.00    +0.000 C 
ATOM     23  N   UNL     1       1.723   9.120  17.781  0.00  0.00    +0.000 N 
ATOM     24  H   UNL     1       1.585   9.534  16.865  0.00  0.00    +0.000 HD
BRANCH  22  25
ATOM     25  C   UNL     1      -0.050  10.581  18.471  0.00  0.00    +0.000 C 
BRANCH  25  26
ATOM     26  C   UNL     1      -1.057   9.841  17.596  0.00  0.00    +0.000 C 
BRANCH  26  27
ATOM     27  S   UNL     1      -2.403  10.906  17.158  0.00  0.00    +0.000 S 
ATOM     28  O   UNL     1      -2.257  12.119  17.931  0.00  0.00    +0.000 OA
ATOM     29  O   UNL     1      -2.439  10.959  15.705  0.00  0.00    +0.000 OA
BRANCH  27  30
ATOM     30  C   UNL     1      -3.843  10.004  17.744  0.00  0.00    +0.000 C 
BRANCH  30  31
ATOM     31  C   UNL     1      -5.011  10.909  17.809  0.00  0.00    +0.000 A 
ATOM     32  C   UNL     1      -5.432  11.987  17.054  0.00  0.00    +0.000 A 
ATOM     33  C   UNL     1      -6.671  12.402  17.597  0.00  0.00    +0.000 A 
ATOM     34  C   UNL     1      -6.936  11.550  18.640  0.00  0.00    +0.000 A 
ATOM     35  O   UNL     1      -5.939  10.635  18.772  0.00  0.00    +0.000 OA
ENDBRANCH  30  31
ENDBRANCH  27  30
ENDBRANCH  26  27
ENDBRANCH  25  26
ENDBRANCH  22  25
ENDBRANCH   1  23
TORSDOF 6
ENDMDL
