MODEL 1
REMARK VINA RESULT:      -7.5      0.000      0.000
REMARK  Name = 
REMARK  6 active torsions:
REMARK  status: ('A' for Active; 'I' for Inactive)
REMARK    1  A    between atoms: C_2  and  C_4
REMARK    2  A    between atoms: N_6  and  C_7
REMARK    3  A    between atoms: C_10  and  O_11
REMARK    4  A    between atoms: C_17  and  O_18
REMARK    5  A    between atoms: N_24  and  C_25
REMARK    6  A    between atoms: C_25  and  C_26
REMARK                            x       y       z     vdW  Elec       q    Type
REMARK                         _______ _______ _______ _____ _____    ______ ____
ROOT
ATOM      1  C   UNL     1       2.394   7.488  19.842  0.00  0.00    +0.000 C 
ATOM      2  C   UNL     1       2.293   7.749  18.311  0.00  0.00    +0.000 C 
ATOM      3  C   UNL     1       2.009   6.560  17.441  0.00  0.00    +0.000 C 
ATOM      4  C   UNL     1       2.661   5.270  17.908  0.00  0.00    +0.000 C 
ATOM      5  C   UNL     1       3.712   4.608  16.965  0.00  0.00    +0.000 C 
ATOM      6  C   UNL     1       3.850   3.073  17.456  0.00  0.00    +0.000 C 
ATOM      7  C   UNL     1       3.330   2.784  18.884  0.00  0.00    +0.000 A 
ATOM      8  C   UNL     1       2.724   1.598  19.279  0.00  0.00    +0.000 A 
ATOM      9  C   UNL     1       1.951   1.570  20.466  0.00  0.00    +0.000 A 
ATOM     10  C   UNL     1       1.718   2.736  21.228  0.00  0.00    +0.000 A 
ATOM     11  C   UNL     1       2.275   3.920  20.808  0.00  0.00    +0.000 A 
ATOM     12  C   UNL     1       3.137   3.881  19.736  0.00  0.00    +0.000 A 
ATOM     13  C   UNL     1       3.419   5.257  19.280  0.00  0.00    +0.000 C 
ATOM     14  C   UNL     1       4.958   5.363  19.321  0.00  0.00    +0.000 C 
ATOM     15  C   UNL     1       5.456   6.041  18.091  0.00  0.00    +0.000 C 
ATOM     16  N   UNL     1       5.064   5.285  16.901  0.00  0.00    +0.000 NA
ATOM     17  C   UNL     1       2.813   6.081  20.387  0.00  0.00    +0.000 C 
ATOM     18  O   UNL     1       1.874   5.220  21.108  0.00  0.00    +0.000 OA
ENDROOT
BRANCH   1  21
ATOM     19  C   UNL     1       0.909   9.387  20.378  0.00  0.00    +0.000 C 
ATOM     20  O   UNL     1       1.410  10.130  19.541  0.00  0.00    +0.000 OA
ATOM     21  N   UNL     1       1.309   8.087  20.575  0.00  0.00    +0.000 N 
ATOM     22  H   UNL     1       0.932   7.592  21.378  0.00  0.00    +0.000 HD
BRANCH  19  24
ATOM     23  C   UNL     1      -0.483   9.072  22.364  0.00  0.00    +0.000 C 
ATOM     24  C   UNL     1      -0.185   9.819  21.297  0.00  0.00    +0.000 C 
ATOM     25 CL   UNL     1      -1.073  11.263  20.967  0.00  0.00    +0.000 Cl
ENDBRANCH  19  24
ENDBRANCH   1  21
BRANCH   4  26
ATOM     26  O   UNL     1       1.444   4.442  17.909  0.00  0.00    +0.000 OA
ATOM     27  H   UNL     1       1.683   3.558  18.225  0.00  0.00    +0.000 HD
ENDBRANCH   4  26
BRANCH  10  28
ATOM     28  O   UNL     1       0.912   2.707  22.323  0.00  0.00    +0.000 OA
ATOM     29  H   UNL     1       1.476   2.648  23.110  0.00  0.00    +0.000 HD
ENDBRANCH  10  28
BRANCH  16  30
ATOM     30  C   UNL     1       5.287   6.111  15.706  0.00  0.00    +0.000 C 
BRANCH  30  31
ATOM     31  C   UNL     1       6.186   5.397  14.710  0.00  0.00    +0.000 C 
ATOM     32  C   UNL     1       6.676   4.001  14.998  0.00  0.00    +0.000 C 
ATOM     33  C   UNL     1       5.686   4.221  13.891  0.00  0.00    +0.000 C 
ENDBRANCH  30  31
ENDBRANCH  16  30
TORSDOF 6
ENDMDL
MODEL 2
REMARK VINA RESULT:      -7.3      6.297     10.463
REMARK  Name = 
REMARK  6 active torsions:
REMARK  status: ('A' for Active; 'I' for Inactive)
REMARK    1  A    between atoms: C_2  and  C_4
REMARK    2  A    between atoms: N_6  and  C_7
REMARK    3  A    between atoms: C_10  and  O_11
REMARK    4  A    between atoms: C_17  and  O_18
REMARK    5  A    between atoms: N_24  and  C_25
REMARK    6  A    between atoms: C_25  and  C_26
REMARK                            x       y       z     vdW  Elec       q    Type
REMARK                         _______ _______ _______ _____ _____    ______ ____
ROOT
ATOM      1  C   UNL     1      -0.640  15.070  19.560  0.00  0.00    +0.000 C 
ATOM      2  C   UNL     1      -0.569  15.493  21.056  0.00  0.00    +0.000 C 
ATOM      3  C   UNL     1       0.016  14.497  22.012  0.00  0.00    +0.000 C 
ATOM      4  C   UNL     1      -0.313  13.050  21.692  0.00  0.00    +0.000 C 
ATOM      5  C   UNL     1      -1.149  12.248  22.737  0.00  0.00    +0.000 C 
ATOM      6  C   UNL     1      -0.919  10.685  22.388  0.00  0.00    +0.000 C 
ATOM      7  C   UNL     1      -0.379  10.393  20.969  0.00  0.00    +0.000 A 
ATOM      8  C   UNL     1       0.488   9.355  20.652  0.00  0.00    +0.000 A 
ATOM      9  C   UNL     1       1.217   9.399  19.437  0.00  0.00    +0.000 A 
ATOM     10  C   UNL     1       1.141  10.508  18.567  0.00  0.00    +0.000 A 
ATOM     11  C   UNL     1       0.322  11.559  18.907  0.00  0.00    +0.000 A 
ATOM     12  C   UNL     1      -0.479  11.417  20.016  0.00  0.00    +0.000 A 
ATOM     13  C   UNL     1      -1.077  12.723  20.362  0.00  0.00    +0.000 C 
ATOM     14  C   UNL     1      -2.596  12.451  20.384  0.00  0.00    +0.000 C 
ATOM     15  C   UNL     1      -3.214  13.105  21.571  0.00  0.00    +0.000 C 
ATOM     16  N   UNL     1      -2.623  12.583  22.803  0.00  0.00    +0.000 NA
ATOM     17  C   UNL     1      -0.716  13.558  19.161  0.00  0.00    +0.000 C 
ATOM     18  O   UNL     1       0.387  12.882  18.475  0.00  0.00    +0.000 OA
ENDROOT
BRANCH   1  21
ATOM     19  C   UNL     1      -0.102  17.056  18.195  0.00  0.00    +0.000 C 
ATOM     20  O   UNL     1      -1.175  17.607  18.413  0.00  0.00    +0.000 OA
ATOM     21  N   UNL     1       0.249  15.838  18.727  0.00  0.00    +0.000 N 
ATOM     22  H   UNL     1       1.098  15.398  18.385  0.00  0.00    +0.000 HD
BRANCH  19  24
ATOM     23  C   UNL     1       0.608  18.580  16.419  0.00  0.00    +0.000 C 
ATOM     24  C   UNL     1       0.946  17.640  17.306  0.00  0.00    +0.000 C 
ATOM     25 CL   UNL     1       2.578  17.085  17.411  0.00  0.00    +0.000 Cl
ENDBRANCH  19  24
ENDBRANCH   1  21
BRANCH   4  26
ATOM     26  O   UNL     1       1.069  12.542  21.707  0.00  0.00    +0.000 OA
ATOM     27  H   UNL     1       1.034  11.575  21.645  0.00  0.00    +0.000 HD
ENDBRANCH   4  26
BRANCH  10  28
ATOM     28  O   UNL     1       1.903  10.569  17.442  0.00  0.00    +0.000 OA
ATOM     29  H   UNL     1       1.927   9.684  17.047  0.00  0.00    +0.000 HD
ENDBRANCH  10  28
BRANCH  16  30
ATOM     30  C   UNL     1      -3.012  13.443  23.930  0.00  0.00    +0.000 C 
BRANCH  30  31
ATOM     31  C   UNL     1      -3.433  14.820  23.445  0.00  0.00    +0.000 C 
ATOM     32  C   UNL     1      -4.242  15.723  24.341  0.00  0.00    +0.000 C 
ATOM     33  C   UNL     1      -2.821  16.085  24.020  0.00  0.00    +0.000 C 
ENDBRANCH  30  31
ENDBRANCH  16  30
TORSDOF 6
ENDMDL
MODEL 3
REMARK VINA RESULT:      -7.1      4.597      7.114
REMARK  Name = 
REMARK  6 active torsions:
REMARK  status: ('A' for Active; 'I' for Inactive)
REMARK    1  A    between atoms: C_2  and  C_4
REMARK    2  A    between atoms: N_6  and  C_7
REMARK    3  A    between atoms: C_10  and  O_11
REMARK    4  A    between atoms: C_17  and  O_18
REMARK    5  A    between atoms: N_24  and  C_25
REMARK    6  A    between atoms: C_25  and  C_26
REMARK                            x       y       z     vdW  Elec       q    Type
REMARK                         _______ _______ _______ _____ _____    ______ ____
ROOT
ATOM      1  C   UNL     1       5.638   4.717  14.494  0.00  0.00    +0.000 C 
ATOM      2  C   UNL     1       7.136   5.000  14.807  0.00  0.00    +0.000 C 
ATOM      3  C   UNL     1       7.616   4.646  16.183  0.00  0.00    +0.000 C 
ATOM      4  C   UNL     1       6.596   4.880  17.284  0.00  0.00    +0.000 C 
ATOM      5  C   UNL     1       6.945   5.929  18.384  0.00  0.00    +0.000 C 
ATOM      6  C   UNL     1       5.965   5.613  19.631  0.00  0.00    +0.000 C 
ATOM      7  C   UNL     1       4.722   4.754  19.298  0.00  0.00    +0.000 A 
ATOM      8  C   UNL     1       4.148   3.829  20.160  0.00  0.00    +0.000 A 
ATOM      9  C   UNL     1       3.277   2.839  19.642  0.00  0.00    +0.000 A 
ATOM     10  C   UNL     1       3.030   2.719  18.257  0.00  0.00    +0.000 A 
ATOM     11  C   UNL     1       3.641   3.602  17.399  0.00  0.00    +0.000 A 
ATOM     12  C   UNL     1       4.360   4.639  17.948  0.00  0.00    +0.000 A 
ATOM     13  C   UNL     1       5.141   5.311  16.890  0.00  0.00    +0.000 C 
ATOM     14  C   UNL     1       4.715   6.791  16.985  0.00  0.00    +0.000 C 
ATOM     15  C   UNL     1       5.910   7.674  16.885  0.00  0.00    +0.000 C 
ATOM     16  N   UNL     1       6.850   7.381  17.967  0.00  0.00    +0.000 NA
ATOM     17  C   UNL     1       4.573   4.687  15.641  0.00  0.00    +0.000 C 
ATOM     18  O   UNL     1       3.900   3.449  16.040  0.00  0.00    +0.000 OA
ENDROOT
BRANCH   1  21
ATOM     19  C   UNL     1       6.240   3.567  12.393  0.00  0.00    +0.000 C 
ATOM     20  O   UNL     1       7.158   4.336  12.131  0.00  0.00    +0.000 OA
ATOM     21  N   UNL     1       5.467   3.665  13.526  0.00  0.00    +0.000 N 
ATOM     22  H   UNL     1       4.647   3.070  13.592  0.00  0.00    +0.000 HD
BRANCH  19  24
ATOM     23  C   UNL     1       4.569   2.331  11.104  0.00  0.00    +0.000 C 
ATOM     24  C   UNL     1       5.841   2.442  11.496  0.00  0.00    +0.000 C 
ATOM     25 CL   UNL     1       7.015   1.281  10.989  0.00  0.00    +0.000 Cl
ENDBRANCH  19  24
ENDBRANCH   1  21
BRANCH   4  26
ATOM     26  O   UNL     1       6.662   3.535  17.881  0.00  0.00    +0.000 OA
ATOM     27  H   UNL     1       6.755   3.637  18.840  0.00  0.00    +0.000 HD
ENDBRANCH   4  26
BRANCH  10  28
ATOM     28  O   UNL     1       2.251   1.715  17.769  0.00  0.00    +0.000 OA
ATOM     29  H   UNL     1       2.211   1.015  18.438  0.00  0.00    +0.000 HD
ENDBRANCH  10  28
BRANCH  16  30
ATOM     30  C   UNL     1       8.138   8.028  17.681  0.00  0.00    +0.000 C 
BRANCH  30  31
ATOM     31  C   UNL     1       8.147   9.466  18.174  0.00  0.00    +0.000 C 
ATOM     32  C   UNL     1       9.115   9.890  19.249  0.00  0.00    +0.000 C 
ATOM     33  C   UNL     1       9.292  10.408  17.852  0.00  0.00    +0.000 C 
ENDBRANCH  30  31
ENDBRANCH  16  30
TORSDOF 6
ENDMDL
MODEL 4
REMARK VINA RESULT:      -7.0      4.504     10.446
REMARK  Name = 
REMARK  6 active torsions:
REMARK  status: ('A' for Active; 'I' for Inactive)
REMARK    1  A    between atoms: C_2  and  C_4
REMARK    2  A    between atoms: N_6  and  C_7
REMARK    3  A    between atoms: C_10  and  O_11
REMARK    4  A    between atoms: C_17  and  O_18
REMARK    5  A    between atoms: N_24  and  C_25
REMARK    6  A    between atoms: C_25  and  C_26
REMARK                            x       y       z     vdW  Elec       q    Type
REMARK                         _______ _______ _______ _____ _____    ______ ____
ROOT
ATOM      1  C   UNL     1       0.470  10.397  19.867  0.00  0.00    +0.000 C 
ATOM      2  C   UNL     1      -1.075  10.345  19.682  0.00  0.00    +0.000 C 
ATOM      3  C   UNL     1      -1.721  11.551  19.067  0.00  0.00    +0.000 C 
ATOM      4  C   UNL     1      -1.089  12.874  19.463  0.00  0.00    +0.000 C 
ATOM      5  C   UNL     1      -1.971  13.890  20.253  0.00  0.00    +0.000 C 
ATOM      6  C   UNL     1      -1.245  15.327  20.098  0.00  0.00    +0.000 C 
ATOM      7  C   UNL     1       0.239  15.277  19.664  0.00  0.00    +0.000 A 
ATOM      8  C   UNL     1       0.856  16.223  18.854  0.00  0.00    +0.000 A 
ATOM      9  C   UNL     1       2.076  15.900  18.208  0.00  0.00    +0.000 A 
ATOM     10  C   UNL     1       2.649  14.613  18.306  0.00  0.00    +0.000 A 
ATOM     11  C   UNL     1       2.010  13.662  19.066  0.00  0.00    +0.000 A 
ATOM     12  C   UNL     1       0.911  14.054  19.795  0.00  0.00    +0.000 A 
ATOM     13  C   UNL     1       0.221  12.860  20.325  0.00  0.00    +0.000 C 
ATOM     14  C   UNL     1       0.154  13.105  21.847  0.00  0.00    +0.000 C 
ATOM     15  C   UNL     1      -1.197  12.746  22.363  0.00  0.00    +0.000 C 
ATOM     16  N   UNL     1      -2.223  13.558  21.707  0.00  0.00    +0.000 NA
ATOM     17  C   UNL     1       1.212  11.767  20.019  0.00  0.00    +0.000 C 
ATOM     18  O   UNL     1       2.117  12.276  18.987  0.00  0.00    +0.000 OA
ENDROOT
BRANCH   1  21
ATOM     19  C   UNL     1       1.711   8.296  19.481  0.00  0.00    +0.000 C 
ATOM     20  O   UNL     1       1.633   7.932  20.648  0.00  0.00    +0.000 OA
ATOM     21  N   UNL     1       1.158   9.465  19.011  0.00  0.00    +0.000 N 
ATOM     22  H   UNL     1       1.388   9.751  18.064  0.00  0.00    +0.000 HD
BRANCH  19  24
ATOM     23  C   UNL     1       3.181   8.166  17.530  0.00  0.00    +0.000 C 
ATOM     24  C   UNL     1       2.437   7.520  18.433  0.00  0.00    +0.000 C 
ATOM     25 CL   UNL     1       2.296   5.799  18.378  0.00  0.00    +0.000 Cl
ENDBRANCH  19  24
ENDBRANCH   1  21
BRANCH   4  26
ATOM     26  O   UNL     1      -0.882  13.392  18.101  0.00  0.00    +0.000 OA
ATOM     27  H   UNL     1      -0.827  14.358  18.152  0.00  0.00    +0.000 HD
ENDBRANCH   4  26
BRANCH  10  28
ATOM     28  O   UNL     1       3.780  14.296  17.619  0.00  0.00    +0.000 OA
ATOM     29  H   UNL     1       3.934  14.989  16.959  0.00  0.00    +0.000 HD
ENDBRANCH  10  28
BRANCH  16  30
ATOM     30  C   UNL     1      -3.547  12.988  21.991  0.00  0.00    +0.000 C 
BRANCH  30  31
ATOM     31  C   UNL     1      -4.043  13.418  23.362  0.00  0.00    +0.000 C 
ATOM     32  C   UNL     1      -5.432  13.045  23.816  0.00  0.00    +0.000 C 
ATOM     33  C   UNL     1      -4.244  12.415  24.483  0.00  0.00    +0.000 C 
ENDBRANCH  30  31
ENDBRANCH  16  30
TORSDOF 6
ENDMDL
MODEL 5
REMARK VINA RESULT:      -7.0      4.496     10.135
REMARK  Name = 
REMARK  6 active torsions:
REMARK  status: ('A' for Active; 'I' for Inactive)
REMARK    1  A    between atoms: C_2  and  C_4
REMARK    2  A    between atoms: N_6  and  C_7
REMARK    3  A    between atoms: C_10  and  O_11
REMARK    4  A    between atoms: C_17  and  O_18
REMARK    5  A    between atoms: N_24  and  C_25
REMARK    6  A    between atoms: C_25  and  C_26
REMARK                            x       y       z     vdW  Elec       q    Type
REMARK                         _______ _______ _______ _____ _____    ______ ____
ROOT
ATOM      1  C   UNL     1       0.506  10.265  19.655  0.00  0.00    +0.000 C 
ATOM      2  C   UNL     1      -1.027  10.261  19.389  0.00  0.00    +0.000 C 
ATOM      3  C   UNL     1      -1.605  11.493  18.758  0.00  0.00    +0.000 C 
ATOM      4  C   UNL     1      -0.958  12.792  19.207  0.00  0.00    +0.000 C 
ATOM      5  C   UNL     1      -1.851  13.822  19.964  0.00  0.00    +0.000 C 
ATOM      6  C   UNL     1      -1.077  15.239  19.870  0.00  0.00    +0.000 C 
ATOM      7  C   UNL     1       0.425  15.152  19.514  0.00  0.00    +0.000 A 
ATOM      8  C   UNL     1       1.111  16.090  18.752  0.00  0.00    +0.000 A 
ATOM      9  C   UNL     1       2.354  15.740  18.167  0.00  0.00    +0.000 A 
ATOM     10  C   UNL     1       2.884  14.436  18.276  0.00  0.00    +0.000 A 
ATOM     11  C   UNL     1       2.179  13.494  18.986  0.00  0.00    +0.000 A 
ATOM     12  C   UNL     1       1.054  13.908  19.662  0.00  0.00    +0.000 A 
ATOM     13  C   UNL     1       0.303  12.728  20.137  0.00  0.00    +0.000 C 
ATOM     14  C   UNL     1       0.162  12.955  21.657  0.00  0.00    +0.000 C 
ATOM     15  C   UNL     1      -1.224  12.628  22.095  0.00  0.00    +0.000 C 
ATOM     16  N   UNL     1      -2.190  13.478  21.398  0.00  0.00    +0.000 NA
ATOM     17  C   UNL     1       1.278  11.611  19.867  0.00  0.00    +0.000 C 
ATOM     18  O   UNL     1       2.251  12.107  18.892  0.00  0.00    +0.000 OA
ENDROOT
BRANCH   1  21
ATOM     19  C   UNL     1       1.793   8.183  19.324  0.00  0.00    +0.000 C 
ATOM     20  O   UNL     1       1.727   7.850  20.502  0.00  0.00    +0.000 OA
ATOM     21  N   UNL     1       1.212   9.325  18.824  0.00  0.00    +0.000 N 
ATOM     22  H   UNL     1       1.433   9.589  17.868  0.00  0.00    +0.000 HD
BRANCH  19  24
ATOM     23  C   UNL     1       3.385   8.014  17.475  0.00  0.00    +0.000 C 
ATOM     24  C   UNL     1       2.533   7.393  18.296  0.00  0.00    +0.000 C 
ATOM     25 CL   UNL     1       2.270   5.692  18.156  0.00  0.00    +0.000 Cl
ENDBRANCH  19  24
ENDBRANCH   1  21
BRANCH   4  26
ATOM     26  O   UNL     1      -0.663  13.321  17.865  0.00  0.00    +0.000 OA
ATOM     27  H   UNL     1      -0.300  12.600  17.331  0.00  0.00    +0.000 HD
ENDBRANCH   4  26
BRANCH  10  28
ATOM     28  O   UNL     1       4.041  14.096  17.645  0.00  0.00    +0.000 OA
ATOM     29  H   UNL     1       4.664  14.832  17.743  0.00  0.00    +0.000 HD
ENDBRANCH  10  28
BRANCH  16  30
ATOM     30  C   UNL     1      -3.543  12.943  21.603  0.00  0.00    +0.000 C 
BRANCH  30  31
ATOM     31  C   UNL     1      -4.461  13.327  20.454  0.00  0.00    +0.000 C 
ATOM     32  C   UNL     1      -5.142  12.256  19.640  0.00  0.00    +0.000 C 
ATOM     33  C   UNL     1      -5.964  13.132  20.540  0.00  0.00    +0.000 C 
ENDBRANCH  30  31
ENDBRANCH  16  30
TORSDOF 6
ENDMDL
MODEL 6
REMARK VINA RESULT:      -6.9      5.050     10.846
REMARK  Name = 
REMARK  6 active torsions:
REMARK  status: ('A' for Active; 'I' for Inactive)
REMARK    1  A    between atoms: C_2  and  C_4
REMARK    2  A    between atoms: N_6  and  C_7
REMARK    3  A    between atoms: C_10  and  O_11
REMARK    4  A    between atoms: C_17  and  O_18
REMARK    5  A    between atoms: N_24  and  C_25
REMARK    6  A    between atoms: C_25  and  C_26
REMARK                            x       y       z     vdW  Elec       q    Type
REMARK                         _______ _______ _______ _____ _____    ______ ____
ROOT
ATOM      1  C   UNL     1       0.564  11.531  20.418  0.00  0.00    +0.000 C 
ATOM      2  C   UNL     1      -0.986  11.669  20.386  0.00  0.00    +0.000 C 
ATOM      3  C   UNL     1      -1.542  12.863  19.668  0.00  0.00    +0.000 C 
ATOM      4  C   UNL     1      -0.712  14.127  19.814  0.00  0.00    +0.000 C 
ATOM      5  C   UNL     1      -1.370  15.346  20.530  0.00  0.00    +0.000 C 
ATOM      6  C   UNL     1      -0.493  16.638  20.108  0.00  0.00    +0.000 C 
ATOM      7  C   UNL     1       0.917  16.331  19.550  0.00  0.00    +0.000 A 
ATOM      8  C   UNL     1       1.553  17.071  18.562  0.00  0.00    +0.000 A 
ATOM      9  C   UNL     1       2.645  16.503  17.858  0.00  0.00    +0.000 A 
ATOM     10  C   UNL     1       3.062  15.173  18.084  0.00  0.00    +0.000 A 
ATOM     11  C   UNL     1       2.398  14.424  19.025  0.00  0.00    +0.000 A 
ATOM     12  C   UNL     1       1.442  15.053  19.790  0.00  0.00    +0.000 A 
ATOM     13  C   UNL     1       0.672  14.043  20.545  0.00  0.00    +0.000 C 
ATOM     14  C   UNL     1       0.804  14.488  22.017  0.00  0.00    +0.000 C 
ATOM     15  C   UNL     1      -0.516  14.387  22.701  0.00  0.00    +0.000 C 
ATOM     16  N   UNL     1      -1.499  15.241  22.034  0.00  0.00    +0.000 NA
ATOM     17  C   UNL     1       1.481  12.794  20.306  0.00  0.00    +0.000 C 
ATOM     18  O   UNL     1       2.323  13.038  19.133  0.00  0.00    +0.000 OA
ENDROOT
BRANCH   1  21
ATOM     19  C   UNL     1       1.312   9.187  20.203  0.00  0.00    +0.000 C 
ATOM     20  O   UNL     1       1.149   8.933  21.391  0.00  0.00    +0.000 OA
ATOM     21  N   UNL     1       1.033  10.411  19.643  0.00  0.00    +0.000 N 
ATOM     22  H   UNL     1       1.325  10.571  18.684  0.00  0.00    +0.000 HD
BRANCH  19  24
ATOM     23  C   UNL     1       1.959   8.532  17.937  0.00  0.00    +0.000 C 
ATOM     24  C   UNL     1       1.853   8.197  19.226  0.00  0.00    +0.000 C 
ATOM     25 CL   UNL     1       2.319   6.621  19.759  0.00  0.00    +0.000 Cl
ENDBRANCH  19  24
ENDBRANCH   1  21
BRANCH   4  26
ATOM     26  O   UNL     1      -0.593  14.433  18.379  0.00  0.00    +0.000 OA
ATOM     27  H   UNL     1      -1.159  15.195  18.187  0.00  0.00    +0.000 HD
ENDBRANCH   4  26
BRANCH  10  28
ATOM     28  O   UNL     1       4.063  14.619  17.347  0.00  0.00    +0.000 OA
ATOM     29  H   UNL     1       4.575  14.035  17.928  0.00  0.00    +0.000 HD
ENDBRANCH  10  28
BRANCH  16  30
ATOM     30  C   UNL     1      -2.845  14.899  22.517  0.00  0.00    +0.000 C 
BRANCH  30  31
ATOM     31  C   UNL     1      -2.877  13.492  23.091  0.00  0.00    +0.000 C 
ATOM     32  C   UNL     1      -3.858  13.142  24.181  0.00  0.00    +0.000 C 
ATOM     33  C   UNL     1      -4.033  12.549  22.814  0.00  0.00    +0.000 C 
ENDBRANCH  30  31
ENDBRANCH  16  30
TORSDOF 6
ENDMDL
MODEL 7
REMARK VINA RESULT:      -6.9      6.421     12.104
REMARK  Name = 
REMARK  6 active torsions:
REMARK  status: ('A' for Active; 'I' for Inactive)
REMARK    1  A    between atoms: C_2  and  C_4
REMARK    2  A    between atoms: N_6  and  C_7
REMARK    3  A    between atoms: C_10  and  O_11
REMARK    4  A    between atoms: C_17  and  O_18
REMARK    5  A    between atoms: N_24  and  C_25
REMARK    6  A    between atoms: C_25  and  C_26
REMARK                            x       y       z     vdW  Elec       q    Type
REMARK                         _______ _______ _______ _____ _____    ______ ____
ROOT
ATOM      1  C   UNL     1      -1.725  12.566  21.560  0.00  0.00    +0.000 C 
ATOM      2  C   UNL     1      -1.942  12.649  23.099  0.00  0.00    +0.000 C 
ATOM      3  C   UNL     1      -3.360  12.592  23.584  0.00  0.00    +0.000 C 
ATOM      4  C   UNL     1      -4.362  13.290  22.681  0.00  0.00    +0.000 C 
ATOM      5  C   UNL     1      -5.133  14.514  23.264  0.00  0.00    +0.000 C 
ATOM      6  C   UNL     1      -6.425  14.722  22.312  0.00  0.00    +0.000 C 
ATOM      7  C   UNL     1      -6.344  14.044  20.924  0.00  0.00    +0.000 A 
ATOM      8  C   UNL     1      -7.428  13.500  20.247  0.00  0.00    +0.000 A 
ATOM      9  C   UNL     1      -7.203  12.581  19.192  0.00  0.00    +0.000 A 
ATOM     10  C   UNL     1      -5.904  12.143  18.854  0.00  0.00    +0.000 A 
ATOM     11  C   UNL     1      -4.836  12.642  19.560  0.00  0.00    +0.000 A 
ATOM     12  C   UNL     1      -5.079  13.640  20.475  0.00  0.00    +0.000 A 
ATOM     13  C   UNL     1      -3.874  13.855  21.302  0.00  0.00    +0.000 C 
ATOM     14  C   UNL     1      -3.566  15.359  21.142  0.00  0.00    +0.000 C 
ATOM     15  C   UNL     1      -3.223  15.953  22.464  0.00  0.00    +0.000 C 
ATOM     16  N   UNL     1      -4.340  15.795  23.397  0.00  0.00    +0.000 NA
ATOM     17  C   UNL     1      -2.844  13.034  20.569  0.00  0.00    +0.000 C 
ATOM     18  O   UNL     1      -3.567  12.088  19.716  0.00  0.00    +0.000 OA
ENDROOT
BRANCH   1  21
ATOM     19  C   UNL     1       0.287  11.224  21.060  0.00  0.00    +0.000 C 
ATOM     20  O   UNL     1       1.067  12.127  21.340  0.00  0.00    +0.000 OA
ATOM     21  N   UNL     1      -1.080  11.343  21.159  0.00  0.00    +0.000 N 
ATOM     22  H   UNL     1      -1.649  10.593  20.778  0.00  0.00    +0.000 HD
BRANCH  19  24
ATOM     23  C   UNL     1       0.735   8.842  21.386  0.00  0.00    +0.000 C 
ATOM     24  C   UNL     1       0.732   9.891  20.558  0.00  0.00    +0.000 C 
ATOM     25 CL   UNL     1       1.259   9.713  18.923  0.00  0.00    +0.000 Cl
ENDBRANCH  19  24
ENDBRANCH   1  21
BRANCH   4  26
ATOM     26  O   UNL     1      -5.301  12.163  22.547  0.00  0.00    +0.000 OA
ATOM     27  H   UNL     1      -5.941  12.219  23.271  0.00  0.00    +0.000 HD
ENDBRANCH   4  26
BRANCH  10  28
ATOM     28  O   UNL     1      -5.711  11.203  17.890  0.00  0.00    +0.000 OA
ATOM     29  H   UNL     1      -5.410  11.655  17.086  0.00  0.00    +0.000 HD
ENDBRANCH  10  28
BRANCH  16  30
ATOM     30  C   UNL     1      -3.881  16.100  24.759  0.00  0.00    +0.000 C 
BRANCH  30  31
ATOM     31  C   UNL     1      -2.363  16.109  24.834  0.00  0.00    +0.000 C 
ATOM     32  C   UNL     1      -1.661  16.949  25.871  0.00  0.00    +0.000 C 
ATOM     33  C   UNL     1      -1.622  15.452  25.984  0.00  0.00    +0.000 C 
ENDBRANCH  30  31
ENDBRANCH  16  30
TORSDOF 6
ENDMDL
MODEL 8
REMARK VINA RESULT:      -6.9      6.241     10.234
REMARK  Name = 
REMARK  6 active torsions:
REMARK  status: ('A' for Active; 'I' for Inactive)
REMARK    1  A    between atoms: C_2  and  C_4
REMARK    2  A    between atoms: N_6  and  C_7
REMARK    3  A    between atoms: C_10  and  O_11
REMARK    4  A    between atoms: C_17  and  O_18
REMARK    5  A    between atoms: N_24  and  C_25
REMARK    6  A    between atoms: C_25  and  C_26
REMARK                            x       y       z     vdW  Elec       q    Type
REMARK                         _______ _______ _______ _____ _____    ______ ____
ROOT
ATOM      1  C   UNL     1      -0.706  14.940  19.533  0.00  0.00    +0.000 C 
ATOM      2  C   UNL     1      -0.609  15.391  21.019  0.00  0.00    +0.000 C 
ATOM      3  C   UNL     1       0.010  14.419  21.980  0.00  0.00    +0.000 C 
ATOM      4  C   UNL     1      -0.306  12.962  21.692  0.00  0.00    +0.000 C 
ATOM      5  C   UNL     1      -1.108  12.169  22.768  0.00  0.00    +0.000 C 
ATOM      6  C   UNL     1      -0.865  10.603  22.443  0.00  0.00    +0.000 C 
ATOM      7  C   UNL     1      -0.352  10.293  21.017  0.00  0.00    +0.000 A 
ATOM      8  C   UNL     1       0.522   9.261  20.700  0.00  0.00    +0.000 A 
ATOM      9  C   UNL     1       1.223   9.293  19.469  0.00  0.00    +0.000 A 
ATOM     10  C   UNL     1       1.114  10.385  18.581  0.00  0.00    +0.000 A 
ATOM     11  C   UNL     1       0.289  11.431  18.920  0.00  0.00    +0.000 A 
ATOM     12  C   UNL     1      -0.487  11.298  20.049  0.00  0.00    +0.000 A 
ATOM     13  C   UNL     1      -1.094  12.602  20.385  0.00  0.00    +0.000 C 
ATOM     14  C   UNL     1      -2.609  12.311  20.444  0.00  0.00    +0.000 C 
ATOM     15  C   UNL     1      -3.210  12.977  21.633  0.00  0.00    +0.000 C 
ATOM     16  N   UNL     1      -2.585  12.486  22.862  0.00  0.00    +0.000 NA
ATOM     17  C   UNL     1      -0.771  13.420  19.162  0.00  0.00    +0.000 C 
ATOM     18  O   UNL     1       0.327  12.747  18.464  0.00  0.00    +0.000 OA
ENDROOT
BRANCH   1  21
ATOM     19  C   UNL     1       1.514  15.785  18.857  0.00  0.00    +0.000 C 
ATOM     20  O   UNL     1       2.111  15.186  19.745  0.00  0.00    +0.000 OA
ATOM     21  N   UNL     1       0.154  15.705  18.668  0.00  0.00    +0.000 N 
ATOM     22  H   UNL     1      -0.269  16.338  17.996  0.00  0.00    +0.000 HD
BRANCH  19  24
ATOM     23  C   UNL     1       3.461  16.445  17.533  0.00  0.00    +0.000 C 
ATOM     24  C   UNL     1       2.196  16.690  17.885  0.00  0.00    +0.000 C 
ATOM     25 CL   UNL     1       1.358  18.055  17.239  0.00  0.00    +0.000 Cl
ENDBRANCH  19  24
ENDBRANCH   1  21
BRANCH   4  26
ATOM     26  O   UNL     1       1.083  12.473  21.685  0.00  0.00    +0.000 OA
ATOM     27  H   UNL     1       1.289  12.144  22.573  0.00  0.00    +0.000 HD
ENDBRANCH   4  26
BRANCH  10  28
ATOM     28  O   UNL     1       1.851  10.436  17.438  0.00  0.00    +0.000 OA
ATOM     29  H   UNL     1       2.775  10.256  17.670  0.00  0.00    +0.000 HD
ENDBRANCH  10  28
BRANCH  16  30
ATOM     30  C   UNL     1      -2.961  13.360  23.981  0.00  0.00    +0.000 C 
BRANCH  30  31
ATOM     31  C   UNL     1      -3.388  14.730  23.483  0.00  0.00    +0.000 C 
ATOM     32  C   UNL     1      -4.173  15.651  24.382  0.00  0.00    +0.000 C 
ATOM     33  C   UNL     1      -2.759  16.002  24.022  0.00  0.00    +0.000 C 
ENDBRANCH  30  31
ENDBRANCH  16  30
TORSDOF 6
ENDMDL
MODEL 9
REMARK VINA RESULT:      -6.7      6.906     12.330
REMARK  Name = 
REMARK  6 active torsions:
REMARK  status: ('A' for Active; 'I' for Inactive)
REMARK    1  A    between atoms: C_2  and  C_4
REMARK    2  A    between atoms: N_6  and  C_7
REMARK    3  A    between atoms: C_10  and  O_11
REMARK    4  A    between atoms: C_17  and  O_18
REMARK    5  A    between atoms: N_24  and  C_25
REMARK    6  A    between atoms: C_25  and  C_26
REMARK                            x       y       z     vdW  Elec       q    Type
REMARK                         _______ _______ _______ _____ _____    ______ ____
ROOT
ATOM      1  C   UNL     1      -2.363  13.054  20.348  0.00  0.00    +0.000 C 
ATOM      2  C   UNL     1      -1.535  13.391  21.622  0.00  0.00    +0.000 C 
ATOM      3  C   UNL     1      -2.244  13.274  22.938  0.00  0.00    +0.000 C 
ATOM      4  C   UNL     1      -3.705  13.687  22.903  0.00  0.00    +0.000 C 
ATOM      5  C   UNL     1      -4.134  14.908  23.773  0.00  0.00    +0.000 C 
ATOM      6  C   UNL     1      -5.741  14.803  23.930  0.00  0.00    +0.000 C 
ATOM      7  C   UNL     1      -6.451  13.897  22.897  0.00  0.00    +0.000 A 
ATOM      8  C   UNL     1      -7.577  13.128  23.163  0.00  0.00    +0.000 A 
ATOM      9  C   UNL     1      -7.916  12.062  22.294  0.00  0.00    +0.000 A 
ATOM     10  C   UNL     1      -7.099  11.709  21.197  0.00  0.00    +0.000 A 
ATOM     11  C   UNL     1      -5.957  12.438  20.966  0.00  0.00    +0.000 A 
ATOM     12  C   UNL     1      -5.737  13.554  21.739  0.00  0.00    +0.000 A 
ATOM     13  C   UNL     1      -4.360  14.041  21.523  0.00  0.00    +0.000 C 
ATOM     14  C   UNL     1      -4.540  15.514  21.101  0.00  0.00    +0.000 C 
ATOM     15  C   UNL     1      -3.546  16.372  21.806  0.00  0.00    +0.000 C 
ATOM     16  N   UNL     1      -3.723  16.268  23.255  0.00  0.00    +0.000 NA
ATOM     17  C   UNL     1      -3.920  13.214  20.342  0.00  0.00    +0.000 C 
ATOM     18  O   UNL     1      -4.816  12.058  20.261  0.00  0.00    +0.000 OA
ENDROOT
BRANCH   1  21
ATOM     19  C   UNL     1      -1.197  11.873  18.519  0.00  0.00    +0.000 C 
ATOM     20  O   UNL     1      -0.858  12.904  17.949  0.00  0.00    +0.000 OA
ATOM     21  N   UNL     1      -1.908  11.853  19.696  0.00  0.00    +0.000 N 
ATOM     22  H   UNL     1      -2.259  10.958  20.022  0.00  0.00    +0.000 HD
BRANCH  19  24
ATOM     23  C   UNL     1       0.240   9.901  18.349  0.00  0.00    +0.000 C 
ATOM     24  C   UNL     1      -0.892  10.512  17.987  0.00  0.00    +0.000 C 
ATOM     25 CL   UNL     1      -1.987   9.744  16.895  0.00  0.00    +0.000 Cl
ENDBRANCH  19  24
ENDBRANCH   1  21
BRANCH   4  26
ATOM     26  O   UNL     1      -4.255  12.462  23.509  0.00  0.00    +0.000 OA
ATOM     27  H   UNL     1      -4.684  12.706  24.342  0.00  0.00    +0.000 HD
ENDBRANCH   4  26
BRANCH  10  28
ATOM     28  O   UNL     1      -7.398  10.636  20.417  0.00  0.00    +0.000 OA
ATOM     29  H   UNL     1      -6.916   9.869  20.763  0.00  0.00    +0.000 HD
ENDBRANCH  10  28
BRANCH  16  30
ATOM     30  C   UNL     1      -2.560  16.862  23.929  0.00  0.00    +0.000 C 
BRANCH  30  31
ATOM     31  C   UNL     1      -2.408  16.314  25.339  0.00  0.00    +0.000 C 
ATOM     32  C   UNL     1      -1.184  15.518  25.713  0.00  0.00    +0.000 C 
ATOM     33  C   UNL     1      -1.386  16.882  26.305  0.00  0.00    +0.000 C 
ENDBRANCH  30  31
ENDBRANCH  16  30
TORSDOF 6
ENDMDL
