MODEL 1
REMARK VINA RESULT:      -7.7      0.000      0.000
REMARK  Name = 
REMARK  7 active torsions:
REMARK  status: ('A' for Active; 'I' for Inactive)
REMARK    1  A    between atoms: C_1  and  O_2
REMARK    2  A    between atoms: O_2  and  C_3
REMARK    3  A    between atoms: C_5  and  N_6
REMARK    4  A    between atoms: C_7  and  C_8
REMARK    5  A    between atoms: C_12  and  C_13
REMARK    6  A    between atoms: N_15  and  N_16
REMARK    7  A    between atoms: C_17  and  C_18
REMARK                            x       y       z     vdW  Elec       q    Type
REMARK                         _______ _______ _______ _____ _____    ______ ____
ROOT
ATOM      1  C   UNL     1       4.009   5.915  18.167  0.00  0.00    +0.000 C 
ATOM      2  O   UNL     1       4.092   5.384  19.276  0.00  0.00    +0.000 OA
ATOM      3  N   UNL     1       3.189   7.005  17.906  0.00  0.00    +0.000 N 
ATOM      4  H   UNL     1       3.163   7.426  16.981  0.00  0.00    +0.000 HD
ENDROOT
BRANCH   1  10
ATOM      5  C   UNL     1       5.864   6.011  16.377  0.00  0.00    +0.000 A 
ATOM      6  C   UNL     1       6.525   5.359  15.320  0.00  0.00    +0.000 A 
ATOM      7  C   UNL     1       6.110   4.115  14.839  0.00  0.00    +0.000 A 
ATOM      8  C   UNL     1       5.090   3.450  15.514  0.00  0.00    +0.000 A 
ATOM      9  C   UNL     1       4.464   4.057  16.610  0.00  0.00    +0.000 A 
ATOM     10  C   UNL     1       4.824   5.349  17.044  0.00  0.00    +0.000 A 
BRANCH   7  11
ATOM     11  N   UNL     1       6.637   3.523  13.668  0.00  0.00    +0.000 N 
ATOM     12  C   UNL     1       5.949   3.273  12.491  0.00  0.00    +0.000 C 
ATOM     13  C   UNL     1       6.749   2.491  11.483  0.00  0.00    +0.000 C 
ATOM     14  O   UNL     1       4.804   3.622  12.221  0.00  0.00    +0.000 OA
ATOM     15  H   UNL     1       7.578   3.151  13.740  0.00  0.00    +0.000 HD
ENDBRANCH   7  11
BRANCH   5  17
ATOM     16  C   UNL     1       7.450   7.379  17.483  0.00  0.00    +0.000 C 
ATOM     17  O   UNL     1       6.210   7.284  16.769  0.00  0.00    +0.000 OA
ENDBRANCH   5  17
ENDBRANCH   1  10
BRANCH   3  18
ATOM     18  N   UNL     1       2.434   7.495  18.928  0.00  0.00    +0.000 NA
ATOM     19  C   UNL     1       1.798   8.605  18.746  0.00  0.00    +0.000 C 
BRANCH  19  20
ATOM     20  C   UNL     1       0.988   9.174  19.855  0.00  0.00    +0.000 A 
ATOM     21  C   UNL     1       1.342   8.847  21.177  0.00  0.00    +0.000 A 
ATOM     22  C   UNL     1       0.650   9.396  22.259  0.00  0.00    +0.000 A 
ATOM     23  C   UNL     1      -0.402  10.278  22.024  0.00  0.00    +0.000 A 
ATOM     24 CL   UNL     1      -1.231  10.985  23.356  0.00  0.00    +0.000 Cl
ATOM     25  C   UNL     1      -0.778  10.598  20.722  0.00  0.00    +0.000 A 
ATOM     26  C   UNL     1      -0.086  10.045  19.633  0.00  0.00    +0.000 A 
ATOM     27 CL   UNL     1      -0.625  10.482  18.051  0.00  0.00    +0.000 Cl
ENDBRANCH  19  20
ENDBRANCH   3  18
TORSDOF 5
ENDMDL
MODEL 2
REMARK VINA RESULT:      -7.5      5.028      7.490
REMARK  Name = 
REMARK  7 active torsions:
REMARK  status: ('A' for Active; 'I' for Inactive)
REMARK    1  A    between atoms: C_1  and  O_2
REMARK    2  A    between atoms: O_2  and  C_3
REMARK    3  A    between atoms: C_5  and  N_6
REMARK    4  A    between atoms: C_7  and  C_8
REMARK    5  A    between atoms: C_12  and  C_13
REMARK    6  A    between atoms: N_15  and  N_16
REMARK    7  A    between atoms: C_17  and  C_18
REMARK                            x       y       z     vdW  Elec       q    Type
REMARK                         _______ _______ _______ _____ _____    ______ ____
ROOT
ATOM      1  C   UNL     1       7.202   7.006  17.111  0.00  0.00    +0.000 C 
ATOM      2  O   UNL     1       8.113   6.808  16.305  0.00  0.00    +0.000 OA
ATOM      3  N   UNL     1       7.043   8.201  17.801  0.00  0.00    +0.000 N 
ATOM      4  H   UNL     1       6.267   8.331  18.444  0.00  0.00    +0.000 HD
ENDROOT
BRANCH   1  10
ATOM      5  C   UNL     1       5.665   5.063  16.393  0.00  0.00    +0.000 A 
ATOM      6  C   UNL     1       4.740   4.076  16.784  0.00  0.00    +0.000 A 
ATOM      7  C   UNL     1       4.280   3.969  18.098  0.00  0.00    +0.000 A 
ATOM      8  C   UNL     1       4.854   4.785  19.070  0.00  0.00    +0.000 A 
ATOM      9  C   UNL     1       5.823   5.728  18.709  0.00  0.00    +0.000 A 
ATOM     10  C   UNL     1       6.227   5.897  17.369  0.00  0.00    +0.000 A 
BRANCH   7  11
ATOM     11  N   UNL     1       3.222   3.112  18.480  0.00  0.00    +0.000 N 
ATOM     12  C   UNL     1       1.882   3.266  18.159  0.00  0.00    +0.000 C 
ATOM     13  C   UNL     1       0.984   2.271  18.847  0.00  0.00    +0.000 C 
ATOM     14  O   UNL     1       1.399   4.100  17.400  0.00  0.00    +0.000 OA
ATOM     15  H   UNL     1       3.457   2.378  19.139  0.00  0.00    +0.000 HD
ENDBRANCH   7  11
BRANCH   5  17
ATOM     16  C   UNL     1       6.070   4.025  14.303  0.00  0.00    +0.000 C 
ATOM     17  O   UNL     1       6.027   5.232  15.075  0.00  0.00    +0.000 OA
ENDBRANCH   5  17
ENDBRANCH   1  10
BRANCH   3  18
ATOM     18  N   UNL     1       7.950   9.192  17.577  0.00  0.00    +0.000 NA
ATOM     19  C   UNL     1       8.241   9.990  18.551  0.00  0.00    +0.000 C 
BRANCH  19  20
ATOM     20  C   UNL     1       9.208  11.096  18.325  0.00  0.00    +0.000 A 
ATOM     21  C   UNL     1      10.532  10.928  18.769  0.00  0.00    +0.000 A 
ATOM     22  C   UNL     1      11.496  11.912  18.535  0.00  0.00    +0.000 A 
ATOM     23  C   UNL     1      11.139  13.072  17.855  0.00  0.00    +0.000 A 
ATOM     24 CL   UNL     1      12.333  14.269  17.533  0.00  0.00    +0.000 Cl
ATOM     25  C   UNL     1       9.828  13.264  17.425  0.00  0.00    +0.000 A 
ATOM     26  C   UNL     1       8.858  12.279  17.661  0.00  0.00    +0.000 A 
ATOM     27 CL   UNL     1       7.254  12.601  17.109  0.00  0.00    +0.000 Cl
ENDBRANCH  19  20
ENDBRANCH   3  18
TORSDOF 5
ENDMDL
MODEL 3
REMARK VINA RESULT:      -7.3      4.745     10.173
REMARK  Name = 
REMARK  7 active torsions:
REMARK  status: ('A' for Active; 'I' for Inactive)
REMARK    1  A    between atoms: C_1  and  O_2
REMARK    2  A    between atoms: O_2  and  C_3
REMARK    3  A    between atoms: C_5  and  N_6
REMARK    4  A    between atoms: C_7  and  C_8
REMARK    5  A    between atoms: C_12  and  C_13
REMARK    6  A    between atoms: N_15  and  N_16
REMARK    7  A    between atoms: C_17  and  C_18
REMARK                            x       y       z     vdW  Elec       q    Type
REMARK                         _______ _______ _______ _____ _____    ______ ____
ROOT
ATOM      1  C   UNL     1       0.693   9.751  19.379  0.00  0.00    +0.000 C 
ATOM      2  O   UNL     1       1.180   9.350  20.438  0.00  0.00    +0.000 OA
ATOM      3  N   UNL     1       1.267   9.508  18.138  0.00  0.00    +0.000 N 
ATOM      4  H   UNL     1       0.823   9.840  17.286  0.00  0.00    +0.000 HD
ENDROOT
BRANCH   1  10
ATOM      5  C   UNL     1      -1.554  10.596  18.435  0.00  0.00    +0.000 A 
ATOM      6  C   UNL     1      -2.684  11.414  18.619  0.00  0.00    +0.000 A 
ATOM      7  C   UNL     1      -2.812  12.268  19.717  0.00  0.00    +0.000 A 
ATOM      8  C   UNL     1      -1.848  12.206  20.721  0.00  0.00    +0.000 A 
ATOM      9  C   UNL     1      -0.750  11.348  20.585  0.00  0.00    +0.000 A 
ATOM     10  C   UNL     1      -0.574  10.550  19.436  0.00  0.00    +0.000 A 
BRANCH   7  11
ATOM     11  N   UNL     1      -3.843  13.229  19.834  0.00  0.00    +0.000 N 
ATOM     12  C   UNL     1      -5.006  13.100  20.577  0.00  0.00    +0.000 C 
ATOM     13  C   UNL     1      -5.976  14.235  20.371  0.00  0.00    +0.000 C 
ATOM     14  O   UNL     1      -5.291  12.187  21.345  0.00  0.00    +0.000 OA
ATOM     15  H   UNL     1      -3.767  14.040  19.232  0.00  0.00    +0.000 HD
ENDBRANCH   7  11
BRANCH   5  17
ATOM     16  C   UNL     1      -2.448   9.952  16.339  0.00  0.00    +0.000 C 
ATOM     17  O   UNL     1      -1.385   9.843  17.294  0.00  0.00    +0.000 OA
ENDBRANCH   5  17
ENDBRANCH   1  10
BRANCH   3  18
ATOM     18  N   UNL     1       2.432   8.803  18.101  0.00  0.00    +0.000 NA
ATOM     19  C   UNL     1       2.374   7.529  17.891  0.00  0.00    +0.000 C 
BRANCH  19  20
ATOM     20  C   UNL     1       3.629   6.733  17.873  0.00  0.00    +0.000 A 
ATOM     21  C   UNL     1       4.565   6.984  16.854  0.00  0.00    +0.000 A 
ATOM     22  C   UNL     1       5.785   6.304  16.820  0.00  0.00    +0.000 A 
ATOM     23  C   UNL     1       6.075   5.368  17.807  0.00  0.00    +0.000 A 
ATOM     24 CL   UNL     1       7.593   4.556  17.789  0.00  0.00    +0.000 Cl
ATOM     25  C   UNL     1       5.152   5.093  18.814  0.00  0.00    +0.000 A 
ATOM     26  C   UNL     1       3.925   5.772  18.848  0.00  0.00    +0.000 A 
ATOM     27 CL   UNL     1       2.831   5.362  20.120  0.00  0.00    +0.000 Cl
ENDBRANCH  19  20
ENDBRANCH   3  18
TORSDOF 5
ENDMDL
MODEL 4
REMARK VINA RESULT:      -7.3      5.194      7.600
REMARK  Name = 
REMARK  7 active torsions:
REMARK  status: ('A' for Active; 'I' for Inactive)
REMARK    1  A    between atoms: C_1  and  O_2
REMARK    2  A    between atoms: O_2  and  C_3
REMARK    3  A    between atoms: C_5  and  N_6
REMARK    4  A    between atoms: C_7  and  C_8
REMARK    5  A    between atoms: C_12  and  C_13
REMARK    6  A    between atoms: N_15  and  N_16
REMARK    7  A    between atoms: C_17  and  C_18
REMARK                            x       y       z     vdW  Elec       q    Type
REMARK                         _______ _______ _______ _____ _____    ______ ____
ROOT
ATOM      1  C   UNL     1       7.812   6.889  18.424  0.00  0.00    +0.000 C 
ATOM      2  O   UNL     1       8.695   6.637  19.246  0.00  0.00    +0.000 OA
ATOM      3  N   UNL     1       7.747   8.085  17.720  0.00  0.00    +0.000 N 
ATOM      4  H   UNL     1       7.012   8.247  17.037  0.00  0.00    +0.000 HD
ENDROOT
BRANCH   1  10
ATOM      5  C   UNL     1       6.357   5.371  16.930  0.00  0.00    +0.000 A 
ATOM      6  C   UNL     1       5.321   4.421  16.858  0.00  0.00    +0.000 A 
ATOM      7  C   UNL     1       4.595   4.027  17.984  0.00  0.00    +0.000 A 
ATOM      8  C   UNL     1       4.998   4.499  19.231  0.00  0.00    +0.000 A 
ATOM      9  C   UNL     1       6.069   5.395  19.328  0.00  0.00    +0.000 A 
ATOM     10  C   UNL     1       6.748   5.861  18.184  0.00  0.00    +0.000 A 
BRANCH   7  11
ATOM     11  N   UNL     1       3.438   3.217  17.914  0.00  0.00    +0.000 N 
ATOM     12  C   UNL     1       2.180   3.536  18.400  0.00  0.00    +0.000 C 
ATOM     13  C   UNL     1       1.197   2.399  18.310  0.00  0.00    +0.000 C 
ATOM     14  O   UNL     1       1.825   4.613  18.870  0.00  0.00    +0.000 OA
ATOM     15  H   UNL     1       3.574   2.273  17.571  0.00  0.00    +0.000 HD
ENDBRANCH   7  11
BRANCH   5  17
ATOM     16  C   UNL     1       7.009   4.917  14.699  0.00  0.00    +0.000 C 
ATOM     17  O   UNL     1       6.991   5.836  15.799  0.00  0.00    +0.000 OA
ENDBRANCH   5  17
ENDBRANCH   1  10
BRANCH   3  18
ATOM     18  N   UNL     1       8.705   9.022  17.966  0.00  0.00    +0.000 NA
ATOM     19  C   UNL     1       8.328  10.213  18.299  0.00  0.00    +0.000 C 
BRANCH  19  20
ATOM     20  C   UNL     1       9.352  11.261  18.547  0.00  0.00    +0.000 A 
ATOM     21  C   UNL     1       9.964  11.873  17.438  0.00  0.00    +0.000 A 
ATOM     22  C   UNL     1      10.893  12.901  17.611  0.00  0.00    +0.000 A 
ATOM     23  C   UNL     1      11.216  13.324  18.897  0.00  0.00    +0.000 A 
ATOM     24 CL   UNL     1      12.332  14.616  19.112  0.00  0.00    +0.000 Cl
ATOM     25  C   UNL     1      10.634  12.716  20.008  0.00  0.00    +0.000 A 
ATOM     26  C   UNL     1       9.703  11.681  19.836  0.00  0.00    +0.000 A 
ATOM     27 CL   UNL     1       9.040  10.971  21.264  0.00  0.00    +0.000 Cl
ENDBRANCH  19  20
ENDBRANCH   3  18
TORSDOF 5
ENDMDL
MODEL 5
REMARK VINA RESULT:      -7.1      1.080      1.383
REMARK  Name = 
REMARK  7 active torsions:
REMARK  status: ('A' for Active; 'I' for Inactive)
REMARK    1  A    between atoms: C_1  and  O_2
REMARK    2  A    between atoms: O_2  and  C_3
REMARK    3  A    between atoms: C_5  and  N_6
REMARK    4  A    between atoms: C_7  and  C_8
REMARK    5  A    between atoms: C_12  and  C_13
REMARK    6  A    between atoms: N_15  and  N_16
REMARK    7  A    between atoms: C_17  and  C_18
REMARK                            x       y       z     vdW  Elec       q    Type
REMARK                         _______ _______ _______ _____ _____    ______ ____
ROOT
ATOM      1  C   UNL     1       4.034   6.080  18.155  0.00  0.00    +0.000 C 
ATOM      2  O   UNL     1       4.109   5.571  19.275  0.00  0.00    +0.000 OA
ATOM      3  N   UNL     1       3.248   7.190  17.875  0.00  0.00    +0.000 N 
ATOM      4  H   UNL     1       3.227   7.591  16.941  0.00  0.00    +0.000 HD
ENDROOT
BRANCH   1  10
ATOM      5  C   UNL     1       5.877   6.073  16.349  0.00  0.00    +0.000 A 
ATOM      6  C   UNL     1       6.507   5.375  15.301  0.00  0.00    +0.000 A 
ATOM      7  C   UNL     1       6.045   4.136  14.851  0.00  0.00    +0.000 A 
ATOM      8  C   UNL     1       5.008   3.522  15.548  0.00  0.00    +0.000 A 
ATOM      9  C   UNL     1       4.412   4.173  16.635  0.00  0.00    +0.000 A 
ATOM     10  C   UNL     1       4.819   5.461  17.038  0.00  0.00    +0.000 A 
BRANCH   7  11
ATOM     11  N   UNL     1       6.542   3.501  13.689  0.00  0.00    +0.000 N 
ATOM     12  C   UNL     1       5.840   3.265  12.517  0.00  0.00    +0.000 C 
ATOM     13  C   UNL     1       6.602   2.430  11.522  0.00  0.00    +0.000 C 
ATOM     14  O   UNL     1       4.712   3.663  12.242  0.00  0.00    +0.000 OA
ATOM     15  H   UNL     1       7.464   3.088  13.766  0.00  0.00    +0.000 HD
ENDBRANCH   7  11
BRANCH   5  17
ATOM     16  C   UNL     1       7.465   7.400  17.499  0.00  0.00    +0.000 C 
ATOM     17  O   UNL     1       6.270   7.341  16.711  0.00  0.00    +0.000 OA
ENDBRANCH   5  17
ENDBRANCH   1  10
BRANCH   3  18
ATOM     18  N   UNL     1       2.518   7.727  18.892  0.00  0.00    +0.000 NA
ATOM     19  C   UNL     1       1.810   8.781  18.651  0.00  0.00    +0.000 C 
BRANCH  19  20
ATOM     20  C   UNL     1       1.026   9.402  19.750  0.00  0.00    +0.000 A 
ATOM     21  C   UNL     1       0.567  10.721  19.582  0.00  0.00    +0.000 A 
ATOM     22  C   UNL     1      -0.219  11.335  20.559  0.00  0.00    +0.000 A 
ATOM     23  C   UNL     1      -0.552  10.631  21.713  0.00  0.00    +0.000 A 
ATOM     24 CL   UNL     1      -1.552  11.372  22.902  0.00  0.00    +0.000 Cl
ATOM     25  C   UNL     1      -0.090   9.331  21.906  0.00  0.00    +0.000 A 
ATOM     26  C   UNL     1       0.703   8.713  20.927  0.00  0.00    +0.000 A 
ATOM     27 CL   UNL     1       1.246   7.106  21.249  0.00  0.00    +0.000 Cl
ENDBRANCH  19  20
ENDBRANCH   3  18
TORSDOF 5
ENDMDL
MODEL 6
REMARK VINA RESULT:      -7.1      4.819      9.732
REMARK  Name = 
REMARK  7 active torsions:
REMARK  status: ('A' for Active; 'I' for Inactive)
REMARK    1  A    between atoms: C_1  and  O_2
REMARK    2  A    between atoms: O_2  and  C_3
REMARK    3  A    between atoms: C_5  and  N_6
REMARK    4  A    between atoms: C_7  and  C_8
REMARK    5  A    between atoms: C_12  and  C_13
REMARK    6  A    between atoms: N_15  and  N_16
REMARK    7  A    between atoms: C_17  and  C_18
REMARK                            x       y       z     vdW  Elec       q    Type
REMARK                         _______ _______ _______ _____ _____    ______ ____
ROOT
ATOM      1  C   UNL     1       0.515   9.731  18.722  0.00  0.00    +0.000 C 
ATOM      2  O   UNL     1       0.847   9.307  19.831  0.00  0.00    +0.000 OA
ATOM      3  N   UNL     1       1.278   9.543  17.577  0.00  0.00    +0.000 N 
ATOM      4  H   UNL     1       0.960   9.893  16.677  0.00  0.00    +0.000 HD
ENDROOT
BRANCH   1  10
ATOM      5  C   UNL     1      -1.210  11.483  19.502  0.00  0.00    +0.000 A 
ATOM      6  C   UNL     1      -2.455  12.102  19.279  0.00  0.00    +0.000 A 
ATOM      7  C   UNL     1      -3.315  11.693  18.257  0.00  0.00    +0.000 A 
ATOM      8  C   UNL     1      -2.866  10.728  17.358  0.00  0.00    +0.000 A 
ATOM      9  C   UNL     1      -1.603  10.148  17.528  0.00  0.00    +0.000 A 
ATOM     10  C   UNL     1      -0.768  10.497  18.608  0.00  0.00    +0.000 A 
BRANCH   7  11
ATOM     11  N   UNL     1      -4.639  12.170  18.123  0.00  0.00    +0.000 N 
ATOM     12  C   UNL     1      -5.800  11.427  18.271  0.00  0.00    +0.000 C 
ATOM     13  C   UNL     1      -7.048  12.190  17.911  0.00  0.00    +0.000 C 
ATOM     14  O   UNL     1      -5.885  10.264  18.651  0.00  0.00    +0.000 OA
ATOM     15  H   UNL     1      -4.739  13.120  17.783  0.00  0.00    +0.000 HD
ENDBRANCH   7  11
BRANCH   5  17
ATOM     16  C   UNL     1      -1.011  11.564  21.860  0.00  0.00    +0.000 C 
ATOM     17  O   UNL     1      -0.421  11.817  20.579  0.00  0.00    +0.000 OA
ENDBRANCH   5  17
ENDBRANCH   1  10
BRANCH   3  18
ATOM     18  N   UNL     1       2.455   8.868  17.698  0.00  0.00    +0.000 NA
ATOM     19  C   UNL     1       2.433   7.577  17.634  0.00  0.00    +0.000 C 
BRANCH  19  20
ATOM     20  C   UNL     1       3.699   6.816  17.791  0.00  0.00    +0.000 A 
ATOM     21  C   UNL     1       4.715   7.005  16.836  0.00  0.00    +0.000 A 
ATOM     22  C   UNL     1       5.946   6.356  16.963  0.00  0.00    +0.000 A 
ATOM     23  C   UNL     1       6.168   5.514  18.049  0.00  0.00    +0.000 A 
ATOM     24 CL   UNL     1       7.696   4.744  18.228  0.00  0.00    +0.000 Cl
ATOM     25  C   UNL     1       5.167   5.301  18.994  0.00  0.00    +0.000 A 
ATOM     26  C   UNL     1       3.928   5.948  18.866  0.00  0.00    +0.000 A 
ATOM     27 CL   UNL     1       2.737   5.618  20.072  0.00  0.00    +0.000 Cl
ENDBRANCH  19  20
ENDBRANCH   3  18
TORSDOF 5
ENDMDL
MODEL 7
REMARK VINA RESULT:      -7.1      4.711     10.618
REMARK  Name = 
REMARK  7 active torsions:
REMARK  status: ('A' for Active; 'I' for Inactive)
REMARK    1  A    between atoms: C_1  and  O_2
REMARK    2  A    between atoms: O_2  and  C_3
REMARK    3  A    between atoms: C_5  and  N_6
REMARK    4  A    between atoms: C_7  and  C_8
REMARK    5  A    between atoms: C_12  and  C_13
REMARK    6  A    between atoms: N_15  and  N_16
REMARK    7  A    between atoms: C_17  and  C_18
REMARK                            x       y       z     vdW  Elec       q    Type
REMARK                         _______ _______ _______ _____ _____    ______ ____
ROOT
ATOM      1  C   UNL     1       0.097  10.189  19.322  0.00  0.00    +0.000 C 
ATOM      2  O   UNL     1      -0.293  10.115  18.155  0.00  0.00    +0.000 OA
ATOM      3  N   UNL     1       1.176   9.464  19.810  0.00  0.00    +0.000 N 
ATOM      4  H   UNL     1       1.478   9.567  20.776  0.00  0.00    +0.000 HD
ENDROOT
BRANCH   1  10
ATOM      5  C   UNL     1      -0.431  11.176  21.646  0.00  0.00    +0.000 A 
ATOM      6  C   UNL     1      -1.219  12.060  22.407  0.00  0.00    +0.000 A 
ATOM      7  C   UNL     1      -2.276  12.781  21.848  0.00  0.00    +0.000 A 
ATOM      8  C   UNL     1      -2.469  12.715  20.470  0.00  0.00    +0.000 A 
ATOM      9  C   UNL     1      -1.652  11.890  19.688  0.00  0.00    +0.000 A 
ATOM     10  C   UNL     1      -0.639  11.095  20.261  0.00  0.00    +0.000 A 
BRANCH   7  11
ATOM     11  N   UNL     1      -3.194  13.532  22.619  0.00  0.00    +0.000 N 
ATOM     12  C   UNL     1      -4.534  13.240  22.817  0.00  0.00    +0.000 C 
ATOM     13  C   UNL     1      -5.278  14.318  23.560  0.00  0.00    +0.000 C 
ATOM     14  O   UNL     1      -5.128  12.228  22.455  0.00  0.00    +0.000 OA
ATOM     15  H   UNL     1      -2.859  14.422  22.969  0.00  0.00    +0.000 HD
ENDBRANCH   7  11
BRANCH   5  17
ATOM     16  C   UNL     1       0.053   9.488  23.233  0.00  0.00    +0.000 C 
ATOM     17  O   UNL     1       0.536  10.387  22.227  0.00  0.00    +0.000 OA
ENDBRANCH   5  17
ENDBRANCH   1  10
BRANCH   3  18
ATOM     18  N   UNL     1       1.821   8.624  18.953  0.00  0.00    +0.000 NA
ATOM     19  C   UNL     1       2.240   7.488  19.404  0.00  0.00    +0.000 C 
BRANCH  19  20
ATOM     20  C   UNL     1       2.970   6.566  18.496  0.00  0.00    +0.000 A 
ATOM     21  C   UNL     1       3.914   7.110  17.607  0.00  0.00    +0.000 A 
ATOM     22  C   UNL     1       4.667   6.284  16.770  0.00  0.00    +0.000 A 
ATOM     23  C   UNL     1       4.480   4.906  16.817  0.00  0.00    +0.000 A 
ATOM     24 CL   UNL     1       5.434   3.884  15.814  0.00  0.00    +0.000 Cl
ATOM     25  C   UNL     1       3.536   4.350  17.678  0.00  0.00    +0.000 A 
ATOM     26  C   UNL     1       2.775   5.178  18.518  0.00  0.00    +0.000 A 
ATOM     27 CL   UNL     1       1.617   4.412  19.543  0.00  0.00    +0.000 Cl
ENDBRANCH  19  20
ENDBRANCH   3  18
TORSDOF 5
ENDMDL
MODEL 8
REMARK VINA RESULT:      -6.9      4.588     10.413
REMARK  Name = 
REMARK  7 active torsions:
REMARK  status: ('A' for Active; 'I' for Inactive)
REMARK    1  A    between atoms: C_1  and  O_2
REMARK    2  A    between atoms: O_2  and  C_3
REMARK    3  A    between atoms: C_5  and  N_6
REMARK    4  A    between atoms: C_7  and  C_8
REMARK    5  A    between atoms: C_12  and  C_13
REMARK    6  A    between atoms: N_15  and  N_16
REMARK    7  A    between atoms: C_17  and  C_18
REMARK                            x       y       z     vdW  Elec       q    Type
REMARK                         _______ _______ _______ _____ _____    ______ ____
ROOT
ATOM      1  C   UNL     1       1.101   9.838  19.250  0.00  0.00    +0.000 C 
ATOM      2  O   UNL     1       1.512  10.495  18.292  0.00  0.00    +0.000 OA
ATOM      3  N   UNL     1       1.460   8.515  19.475  0.00  0.00    +0.000 N 
ATOM      4  H   UNL     1       1.114   8.013  20.289  0.00  0.00    +0.000 HD
ENDROOT
BRANCH   1  10
ATOM      5  C   UNL     1      -0.734  11.530  19.899  0.00  0.00    +0.000 A 
ATOM      6  C   UNL     1      -1.543  12.069  20.917  0.00  0.00    +0.000 A 
ATOM      7  C   UNL     1      -1.411  11.682  22.253  0.00  0.00    +0.000 A 
ATOM      8  C   UNL     1      -0.539  10.641  22.559  0.00  0.00    +0.000 A 
ATOM      9  C   UNL     1       0.227  10.049  21.548  0.00  0.00    +0.000 A 
ATOM     10  C   UNL     1       0.159  10.495  20.212  0.00  0.00    +0.000 A 
BRANCH   7  11
ATOM     11  N   UNL     1      -2.079  12.333  23.316  0.00  0.00    +0.000 N 
ATOM     12  C   UNL     1      -3.434  12.616  23.386  0.00  0.00    +0.000 C 
ATOM     13  C   UNL     1      -3.810  13.456  24.578  0.00  0.00    +0.000 C 
ATOM     14  O   UNL     1      -4.302  12.254  22.597  0.00  0.00    +0.000 OA
ATOM     15  H   UNL     1      -1.489  12.721  24.044  0.00  0.00    +0.000 HD
ENDBRANCH   7  11
BRANCH   5  17
ATOM     16  C   UNL     1      -1.952  11.585  17.870  0.00  0.00    +0.000 C 
ATOM     17  O   UNL     1      -0.794  11.998  18.606  0.00  0.00    +0.000 OA
ENDBRANCH   5  17
ENDBRANCH   1  10
BRANCH   3  18
ATOM     18  N   UNL     1       2.297   7.920  18.580  0.00  0.00    +0.000 NA
ATOM     19  C   UNL     1       2.578   6.669  18.738  0.00  0.00    +0.000 C 
BRANCH  19  20
ATOM     20  C   UNL     1       3.509   6.003  17.791  0.00  0.00    +0.000 A 
ATOM     21  C   UNL     1       4.501   6.783  17.168  0.00  0.00    +0.000 A 
ATOM     22  C   UNL     1       5.436   6.200  16.311  0.00  0.00    +0.000 A 
ATOM     23  C   UNL     1       5.385   4.830  16.070  0.00  0.00    +0.000 A 
ATOM     24 CL   UNL     1       6.559   4.103  15.044  0.00  0.00    +0.000 Cl
ATOM     25  C   UNL     1       4.399   4.045  16.663  0.00  0.00    +0.000 A 
ATOM     26  C   UNL     1       3.455   4.629  17.522  0.00  0.00    +0.000 A 
ATOM     27 CL   UNL     1       2.257   3.589  18.204  0.00  0.00    +0.000 Cl
ENDBRANCH  19  20
ENDBRANCH   3  18
TORSDOF 5
ENDMDL
MODEL 9
REMARK VINA RESULT:      -6.9      1.217      2.001
REMARK  Name = 
REMARK  7 active torsions:
REMARK  status: ('A' for Active; 'I' for Inactive)
REMARK    1  A    between atoms: C_1  and  O_2
REMARK    2  A    between atoms: O_2  and  C_3
REMARK    3  A    between atoms: C_5  and  N_6
REMARK    4  A    between atoms: C_7  and  C_8
REMARK    5  A    between atoms: C_12  and  C_13
REMARK    6  A    between atoms: N_15  and  N_16
REMARK    7  A    between atoms: C_17  and  C_18
REMARK                            x       y       z     vdW  Elec       q    Type
REMARK                         _______ _______ _______ _____ _____    ______ ____
ROOT
ATOM      1  C   UNL     1       3.513   6.337  18.300  0.00  0.00    +0.000 C 
ATOM      2  O   UNL     1       3.733   5.945  19.448  0.00  0.00    +0.000 OA
ATOM      3  N   UNL     1       2.657   7.391  18.008  0.00  0.00    +0.000 N 
ATOM      4  H   UNL     1       2.517   7.696  17.048  0.00  0.00    +0.000 HD
ENDROOT
BRANCH   1  10
ATOM      5  C   UNL     1       4.328   4.244  17.032  0.00  0.00    +0.000 A 
ATOM      6  C   UNL     1       5.017   3.726  15.920  0.00  0.00    +0.000 A 
ATOM      7  C   UNL     1       5.666   4.551  14.998  0.00  0.00    +0.000 A 
ATOM      8  C   UNL     1       5.515   5.929  15.121  0.00  0.00    +0.000 A 
ATOM      9  C   UNL     1       4.777   6.461  16.185  0.00  0.00    +0.000 A 
ATOM     10  C   UNL     1       4.193   5.633  17.166  0.00  0.00    +0.000 A 
BRANCH   7  11
ATOM     11  N   UNL     1       6.514   4.056  13.980  0.00  0.00    +0.000 N 
ATOM     12  C   UNL     1       6.117   3.564  12.746  0.00  0.00    +0.000 C 
ATOM     13  C   UNL     1       7.248   2.969  11.948  0.00  0.00    +0.000 C 
ATOM     14  O   UNL     1       4.982   3.577  12.280  0.00  0.00    +0.000 OA
ATOM     15  H   UNL     1       7.493   3.956  14.224  0.00  0.00    +0.000 HD
ENDBRANCH   7  11
BRANCH   5  17
ATOM     16  C   UNL     1       2.578   2.755  17.608  0.00  0.00    +0.000 C 
ATOM     17  O   UNL     1       3.788   3.420  17.994  0.00  0.00    +0.000 OA
ENDBRANCH   5  17
ENDBRANCH   1  10
BRANCH   3  18
ATOM     18  N   UNL     1       2.024   8.006  19.046  0.00  0.00    +0.000 NA
ATOM     19  C   UNL     1       1.189   8.955  18.781  0.00  0.00    +0.000 C 
BRANCH  19  20
ATOM     20  C   UNL     1       0.506   9.660  19.897  0.00  0.00    +0.000 A 
ATOM     21  C   UNL     1       0.862   9.327  21.216  0.00  0.00    +0.000 A 
ATOM     22  C   UNL     1       0.292   9.995  22.302  0.00  0.00    +0.000 A 
ATOM     23  C   UNL     1      -0.639  11.004  22.074  0.00  0.00    +0.000 A 
ATOM     24 CL   UNL     1      -1.315  11.855  23.408  0.00  0.00    +0.000 Cl
ATOM     25  C   UNL     1      -1.018  11.335  20.775  0.00  0.00    +0.000 A 
ATOM     26  C   UNL     1      -0.449  10.662  19.682  0.00  0.00    +0.000 A 
ATOM     27 CL   UNL     1      -0.984  11.122  18.106  0.00  0.00    +0.000 Cl
ENDBRANCH  19  20
ENDBRANCH   3  18
TORSDOF 5
ENDMDL
