MODEL 1
REMARK VINA RESULT:      -7.3      0.000      0.000
REMARK  Name = 
REMARK  10 active torsions:
REMARK  status: ('A' for Active; 'I' for Inactive)
REMARK    1  A    between atoms: C_2  and  C_3
REMARK    2  A    between atoms: C_2  and  C_4
REMARK    3  A    between atoms: C_4  and  C_6
REMARK    4  A    between atoms: C_6  and  C_7
REMARK    5  A    between atoms: C_8  and  O_9
REMARK    6  A    between atoms: C_20  and  O_21
REMARK    7  A    between atoms: O_21  and  C_22
REMARK    8  A    between atoms: C_23  and  O_24
REMARK    9  A    between atoms: O_24  and  C_25
REMARK   10  A    between atoms: C_28  and  O_29
REMARK                            x       y       z     vdW  Elec       q    Type
REMARK                         _______ _______ _______ _____ _____    ______ ____
ROOT
ATOM      1  C   UNL     1       1.608   8.760  19.049  0.00  0.00    +0.000 A 
ATOM      2  C   UNL     1       1.460   8.279  20.353  0.00  0.00    +0.000 A 
ATOM      3  C   UNL     1       0.433   8.788  21.156  0.00  0.00    +0.000 A 
ATOM      4  C   UNL     1      -0.536   9.622  20.584  0.00  0.00    +0.000 A 
ATOM      5  C   UNL     1      -0.321  10.089  19.295  0.00  0.00    +0.000 A 
ATOM      6  C   UNL     1       0.912   9.921  18.741  0.00  0.00    +0.000 A 
ATOM      7  O   UNL     1       1.598  11.065  18.352  0.00  0.00    +0.000 OA
ATOM      8  C   UNL     1       1.112  12.311  19.037  0.00  0.00    +0.000 C 
ATOM      9  C   UNL     1       1.704  12.423  20.459  0.00  0.00    +0.000 C 
ATOM     10  O   UNL     1       0.955  13.091  21.484  0.00  0.00    +0.000 OA
ATOM     11  C   UNL     1      -0.399  12.981  21.458  0.00  0.00    +0.000 A 
ATOM     12  C   UNL     1      -1.088  12.958  22.682  0.00  0.00    +0.000 A 
ATOM     13  C   UNL     1      -2.490  12.798  22.741  0.00  0.00    +0.000 A 
ATOM     14  C   UNL     1      -3.218  12.780  21.545  0.00  0.00    +0.000 A 
ATOM     15  C   UNL     1      -2.522  12.874  20.338  0.00  0.00    +0.000 A 
ATOM     16  C   UNL     1      -1.110  12.900  20.280  0.00  0.00    +0.000 A 
ATOM     17  C   UNL     1      -0.427  12.543  18.976  0.00  0.00    +0.000 C 
ATOM     18  C   UNL     1      -1.034  11.174  18.640  0.00  0.00    +0.000 C 
ATOM     19  O   UNL     1      -1.995  10.956  17.914  0.00  0.00    +0.000 OA
ENDROOT
BRANCH   2  20
ATOM     20  O   UNL     1       2.214   7.268  20.843  0.00  0.00    +0.000 OA
ATOM     21  H   UNL     1       1.891   7.026  21.739  0.00  0.00    +0.000 HD
ENDBRANCH   2  20
BRANCH  13  22
ATOM     22  O   UNL     1      -3.193  12.659  23.906  0.00  0.00    +0.000 OA
ATOM     23  C   UNL     1      -3.658  13.827  24.563  0.00  0.00    +0.000 C 
ENDBRANCH  13  22
BRANCH  14  24
ATOM     24  O   UNL     1      -4.563  12.636  21.342  0.00  0.00    +0.000 OA
ATOM     25  C   UNL     1      -5.059  12.440  20.028  0.00  0.00    +0.000 C 
ENDBRANCH  14  24
BRANCH  17  26
ATOM     26  O   UNL     1      -0.690  13.545  18.000  0.00  0.00    +0.000 OA
ATOM     27  H   UNL     1      -1.304  14.197  18.376  0.00  0.00    +0.000 HD
ENDBRANCH  17  26
BRANCH   1  28
ATOM     28  C   UNL     1       1.760   7.710  17.948  0.00  0.00    +0.000 C 
BRANCH  28  29
ATOM     29  C   UNL     1       3.112   7.055  17.884  0.00  0.00    +0.000 C 
ATOM     30  O   UNL     1       4.119   7.743  17.687  0.00  0.00    +0.000 OA
BRANCH  29  32
ATOM     31  C   UNL     1       4.365   5.112  18.668  0.00  0.00    +0.000 C 
ATOM     32  C   UNL     1       3.211   5.580  18.168  0.00  0.00    +0.000 C 
ATOM     33  C   UNL     1       2.048   4.680  17.875  0.00  0.00    +0.000 C 
ENDBRANCH  29  32
ENDBRANCH  28  29
ENDBRANCH   1  28
TORSDOF 7
ENDMDL
MODEL 2
REMARK VINA RESULT:      -6.5      1.445      1.594
REMARK  Name = 
REMARK  10 active torsions:
REMARK  status: ('A' for Active; 'I' for Inactive)
REMARK    1  A    between atoms: C_2  and  C_3
REMARK    2  A    between atoms: C_2  and  C_4
REMARK    3  A    between atoms: C_4  and  C_6
REMARK    4  A    between atoms: C_6  and  C_7
REMARK    5  A    between atoms: C_8  and  O_9
REMARK    6  A    between atoms: C_20  and  O_21
REMARK    7  A    between atoms: O_21  and  C_22
REMARK    8  A    between atoms: C_23  and  O_24
REMARK    9  A    between atoms: O_24  and  C_25
REMARK   10  A    between atoms: C_28  and  O_29
REMARK                            x       y       z     vdW  Elec       q    Type
REMARK                         _______ _______ _______ _____ _____    ______ ____
ROOT
ATOM      1  C   UNL     1       1.129   9.549  19.953  0.00  0.00    +0.000 A 
ATOM      2  C   UNL     1       1.071   9.232  21.313  0.00  0.00    +0.000 A 
ATOM      3  C   UNL     1       0.183   9.930  22.140  0.00  0.00    +0.000 A 
ATOM      4  C   UNL     1      -0.758  10.791  21.562  0.00  0.00    +0.000 A 
ATOM      5  C   UNL     1      -0.634  11.090  20.212  0.00  0.00    +0.000 A 
ATOM      6  C   UNL     1       0.515  10.735  19.573  0.00  0.00    +0.000 A 
ATOM      7  O   UNL     1       1.260  11.751  18.989  0.00  0.00    +0.000 OA
ATOM      8  C   UNL     1       0.964  13.109  19.562  0.00  0.00    +0.000 C 
ATOM      9  C   UNL     1       1.707  13.314  20.901  0.00  0.00    +0.000 C 
ATOM     10  O   UNL     1       1.131  14.166  21.902  0.00  0.00    +0.000 OA
ATOM     11  C   UNL     1      -0.223  14.194  22.012  0.00  0.00    +0.000 A 
ATOM     12  C   UNL     1      -0.782  14.377  23.288  0.00  0.00    +0.000 A 
ATOM     13  C   UNL     1      -2.180  14.370  23.493  0.00  0.00    +0.000 A 
ATOM     14  C   UNL     1      -3.024  14.297  22.379  0.00  0.00    +0.000 A 
ATOM     15  C   UNL     1      -2.450  14.185  21.111  0.00  0.00    +0.000 A 
ATOM     16  C   UNL     1      -1.055  14.058  20.922  0.00  0.00    +0.000 A 
ATOM     17  C   UNL     1      -0.545  13.491  19.614  0.00  0.00    +0.000 C 
ATOM     18  C   UNL     1      -1.307  12.164  19.501  0.00  0.00    +0.000 C 
ATOM     19  O   UNL     1      -2.354  11.968  18.896  0.00  0.00    +0.000 OA
ENDROOT
BRANCH   2  20
ATOM     20  O   UNL     1       1.774   8.208  21.850  0.00  0.00    +0.000 OA
ATOM     21  H   UNL     1       2.735   8.387  21.753  0.00  0.00    +0.000 HD
ENDBRANCH   2  20
BRANCH  13  22
ATOM     22  O   UNL     1      -2.770  14.434  24.725  0.00  0.00    +0.000 OA
ATOM     23  C   UNL     1      -2.192  15.272  25.714  0.00  0.00    +0.000 C 
ENDBRANCH  13  22
BRANCH  14  24
ATOM     24  O   UNL     1      -4.391  14.271  22.317  0.00  0.00    +0.000 OA
ATOM     25  C   UNL     1      -5.069  13.028  22.241  0.00  0.00    +0.000 C 
ENDBRANCH  14  24
BRANCH  17  26
ATOM     26  O   UNL     1      -0.813  14.401  18.553  0.00  0.00    +0.000 OA
ATOM     27  H   UNL     1      -0.647  15.306  18.865  0.00  0.00    +0.000 HD
ENDBRANCH  17  26
BRANCH   1  28
ATOM     28  C   UNL     1       1.070   8.374  18.976  0.00  0.00    +0.000 C 
BRANCH  28  29
ATOM     29  C   UNL     1       2.240   8.275  18.038  0.00  0.00    +0.000 C 
ATOM     30  O   UNL     1       2.474   9.196  17.249  0.00  0.00    +0.000 OA
BRANCH  29  32
ATOM     31  C   UNL     1       4.204   7.017  17.317  0.00  0.00    +0.000 C 
ATOM     32  C   UNL     1       3.164   7.092  18.161  0.00  0.00    +0.000 C 
ATOM     33  C   UNL     1       2.895   6.035  19.190  0.00  0.00    +0.000 C 
ENDBRANCH  29  32
ENDBRANCH  28  29
ENDBRANCH   1  28
TORSDOF 7
ENDMDL
MODEL 3
REMARK VINA RESULT:      -6.4      1.001      1.095
REMARK  Name = 
REMARK  10 active torsions:
REMARK  status: ('A' for Active; 'I' for Inactive)
REMARK    1  A    between atoms: C_2  and  C_3
REMARK    2  A    between atoms: C_2  and  C_4
REMARK    3  A    between atoms: C_4  and  C_6
REMARK    4  A    between atoms: C_6  and  C_7
REMARK    5  A    between atoms: C_8  and  O_9
REMARK    6  A    between atoms: C_20  and  O_21
REMARK    7  A    between atoms: O_21  and  C_22
REMARK    8  A    between atoms: C_23  and  O_24
REMARK    9  A    between atoms: O_24  and  C_25
REMARK   10  A    between atoms: C_28  and  O_29
REMARK                            x       y       z     vdW  Elec       q    Type
REMARK                         _______ _______ _______ _____ _____    ______ ____
ROOT
ATOM      1  C   UNL     1       1.458   8.868  19.858  0.00  0.00    +0.000 A 
ATOM      2  C   UNL     1       1.298   8.792  21.245  0.00  0.00    +0.000 A 
ATOM      3  C   UNL     1       0.175   9.383  21.837  0.00  0.00    +0.000 A 
ATOM      4  C   UNL     1      -0.854   9.868  21.020  0.00  0.00    +0.000 A 
ATOM      5  C   UNL     1      -0.628   9.945  19.653  0.00  0.00    +0.000 A 
ATOM      6  C   UNL     1       0.645   9.779  19.197  0.00  0.00    +0.000 A 
ATOM      7  O   UNL     1       1.209  10.829  18.483  0.00  0.00    +0.000 OA
ATOM      8  C   UNL     1       0.541  12.150  18.742  0.00  0.00    +0.000 C 
ATOM      9  C   UNL     1       1.037  12.766  20.069  0.00  0.00    +0.000 C 
ATOM     10  O   UNL     1       0.159  13.611  20.826  0.00  0.00    +0.000 OA
ATOM     11  C   UNL     1      -1.169  13.322  20.816  0.00  0.00    +0.000 A 
ATOM     12  C   UNL     1      -1.915  13.582  21.978  0.00  0.00    +0.000 A 
ATOM     13  C   UNL     1      -3.289  13.266  22.063  0.00  0.00    +0.000 A 
ATOM     14  C   UNL     1      -3.943  12.790  20.921  0.00  0.00    +0.000 A 
ATOM     15  C   UNL     1      -3.200  12.602  19.754  0.00  0.00    +0.000 A 
ATOM     16  C   UNL     1      -1.800  12.793  19.710  0.00  0.00    +0.000 A 
ATOM     17  C   UNL     1      -1.010  12.149  18.591  0.00  0.00    +0.000 C 
ATOM     18  C   UNL     1      -1.430  10.676  18.686  0.00  0.00    +0.000 C 
ATOM     19  O   UNL     1      -2.317  10.123  18.049  0.00  0.00    +0.000 OA
ENDROOT
BRANCH   2  20
ATOM     20  O   UNL     1       2.141   8.086  22.034  0.00  0.00    +0.000 OA
ATOM     21  H   UNL     1       1.770   7.190  22.186  0.00  0.00    +0.000 HD
ENDBRANCH   2  20
BRANCH  13  22
ATOM     22  O   UNL     1      -4.032  13.398  23.203  0.00  0.00    +0.000 OA
ATOM     23  C   UNL     1      -3.873  12.437  24.235  0.00  0.00    +0.000 C 
ENDBRANCH  13  22
BRANCH  14  24
ATOM     24  O   UNL     1      -5.249  12.416  20.752  0.00  0.00    +0.000 OA
ATOM     25  C   UNL     1      -5.694  11.966  19.484  0.00  0.00    +0.000 C 
ENDBRANCH  14  24
BRANCH  17  26
ATOM     26  O   UNL     1      -1.338  12.762  17.349  0.00  0.00    +0.000 OA
ATOM     27  H   UNL     1      -2.271  12.580  17.145  0.00  0.00    +0.000 HD
ENDBRANCH  17  26
BRANCH   1  28
ATOM     28  C   UNL     1       1.794   7.563  19.138  0.00  0.00    +0.000 C 
BRANCH  28  29
ATOM     29  C   UNL     1       2.821   7.691  18.048  0.00  0.00    +0.000 C 
ATOM     30  O   UNL     1       2.966   8.769  17.464  0.00  0.00    +0.000 OA
BRANCH  29  32
ATOM     31  C   UNL     1       4.838   6.740  17.052  0.00  0.00    +0.000 C 
ATOM     32  C   UNL     1       3.724   6.519  17.768  0.00  0.00    +0.000 C 
ATOM     33  C   UNL     1       3.358   5.153  18.269  0.00  0.00    +0.000 C 
ENDBRANCH  29  32
ENDBRANCH  28  29
ENDBRANCH   1  28
TORSDOF 7
ENDMDL
MODEL 4
REMARK VINA RESULT:      -6.4      0.868      1.026
REMARK  Name = 
REMARK  10 active torsions:
REMARK  status: ('A' for Active; 'I' for Inactive)
REMARK    1  A    between atoms: C_2  and  C_3
REMARK    2  A    between atoms: C_2  and  C_4
REMARK    3  A    between atoms: C_4  and  C_6
REMARK    4  A    between atoms: C_6  and  C_7
REMARK    5  A    between atoms: C_8  and  O_9
REMARK    6  A    between atoms: C_20  and  O_21
REMARK    7  A    between atoms: O_21  and  C_22
REMARK    8  A    between atoms: C_23  and  O_24
REMARK    9  A    between atoms: O_24  and  C_25
REMARK   10  A    between atoms: C_28  and  O_29
REMARK                            x       y       z     vdW  Elec       q    Type
REMARK                         _______ _______ _______ _____ _____    ______ ____
ROOT
ATOM      1  C   UNL     1       1.371   9.073  19.494  0.00  0.00    +0.000 A 
ATOM      2  C   UNL     1       1.197   8.695  20.828  0.00  0.00    +0.000 A 
ATOM      3  C   UNL     1       0.242   9.360  21.607  0.00  0.00    +0.000 A 
ATOM      4  C   UNL     1      -0.645  10.251  20.990  0.00  0.00    +0.000 A 
ATOM      5  C   UNL     1      -0.406  10.609  19.671  0.00  0.00    +0.000 A 
ATOM      6  C   UNL     1       0.794  10.278  19.117  0.00  0.00    +0.000 A 
ATOM      7  O   UNL     1       1.587  11.316  18.646  0.00  0.00    +0.000 OA
ATOM      8  C   UNL     1       1.245  12.648  19.252  0.00  0.00    +0.000 C 
ATOM      9  C   UNL     1       1.870  12.789  20.658  0.00  0.00    +0.000 C 
ATOM     10  O   UNL     1       1.211  13.597  21.644  0.00  0.00    +0.000 OA
ATOM     11  C   UNL     1      -0.147  13.627  21.639  0.00  0.00    +0.000 A 
ATOM     12  C   UNL     1      -0.813  13.755  22.869  0.00  0.00    +0.000 A 
ATOM     13  C   UNL     1      -2.223  13.746  22.954  0.00  0.00    +0.000 A 
ATOM     14  C   UNL     1      -2.969  13.727  21.769  0.00  0.00    +0.000 A 
ATOM     15  C   UNL     1      -2.289  13.669  20.551  0.00  0.00    +0.000 A 
ATOM     16  C   UNL     1      -0.883  13.544  20.476  0.00  0.00    +0.000 A 
ATOM     17  C   UNL     1      -0.263  13.035  19.192  0.00  0.00    +0.000 C 
ATOM     18  C   UNL     1      -1.014  11.717  18.954  0.00  0.00    +0.000 C 
ATOM     19  O   UNL     1      -2.005  11.554  18.254  0.00  0.00    +0.000 OA
ENDROOT
BRANCH   2  20
ATOM     20  O   UNL     1       1.851   7.645  21.376  0.00  0.00    +0.000 OA
ATOM     21  H   UNL     1       1.500   7.477  22.278  0.00  0.00    +0.000 HD
ENDBRANCH   2  20
BRANCH  13  22
ATOM     22  O   UNL     1      -2.917  13.757  24.132  0.00  0.00    +0.000 OA
ATOM     23  C   UNL     1      -3.106  14.995  24.799  0.00  0.00    +0.000 C 
ENDBRANCH  13  22
BRANCH  14  24
ATOM     24  O   UNL     1      -4.326  13.711  21.589  0.00  0.00    +0.000 OA
ATOM     25  C   UNL     1      -5.098  12.664  22.153  0.00  0.00    +0.000 C 
ENDBRANCH  14  24
BRANCH  17  26
ATOM     26  O   UNL     1      -0.438  13.993  18.154  0.00  0.00    +0.000 OA
ATOM     27  H   UNL     1      -1.337  14.357  18.211  0.00  0.00    +0.000 HD
ENDBRANCH  17  26
BRANCH   1  28
ATOM     28  C   UNL     1       1.396   7.944  18.463  0.00  0.00    +0.000 C 
BRANCH  28  29
ATOM     29  C   UNL     1       2.766   7.559  17.982  0.00  0.00    +0.000 C 
ATOM     30  O   UNL     1       3.591   8.437  17.708  0.00  0.00    +0.000 OA
BRANCH  29  32
ATOM     31  C   UNL     1       2.231   5.212  18.393  0.00  0.00    +0.000 C 
ATOM     32  C   UNL     1       3.134   6.099  17.946  0.00  0.00    +0.000 C 
ATOM     33  C   UNL     1       4.481   5.677  17.440  0.00  0.00    +0.000 C 
ENDBRANCH  29  32
ENDBRANCH  28  29
ENDBRANCH   1  28
TORSDOF 7
ENDMDL
MODEL 5
REMARK VINA RESULT:      -6.3      3.207      6.516
REMARK  Name = 
REMARK  10 active torsions:
REMARK  status: ('A' for Active; 'I' for Inactive)
REMARK    1  A    between atoms: C_2  and  C_3
REMARK    2  A    between atoms: C_2  and  C_4
REMARK    3  A    between atoms: C_4  and  C_6
REMARK    4  A    between atoms: C_6  and  C_7
REMARK    5  A    between atoms: C_8  and  O_9
REMARK    6  A    between atoms: C_20  and  O_21
REMARK    7  A    between atoms: O_21  and  C_22
REMARK    8  A    between atoms: C_23  and  O_24
REMARK    9  A    between atoms: O_24  and  C_25
REMARK   10  A    between atoms: C_28  and  O_29
REMARK                            x       y       z     vdW  Elec       q    Type
REMARK                         _______ _______ _______ _____ _____    ______ ____
ROOT
ATOM      1  C   UNL     1       2.329  14.233  19.816  0.00  0.00    +0.000 A 
ATOM      2  C   UNL     1       2.458  13.934  18.457  0.00  0.00    +0.000 A 
ATOM      3  C   UNL     1       1.333  13.506  17.742  0.00  0.00    +0.000 A 
ATOM      4  C   UNL     1       0.072  13.567  18.348  0.00  0.00    +0.000 A 
ATOM      5  C   UNL     1       0.008  13.842  19.706  0.00  0.00    +0.000 A 
ATOM      6  C   UNL     1       1.161  13.801  20.431  0.00  0.00    +0.000 A 
ATOM      7  O   UNL     1       1.220  12.901  21.487  0.00  0.00    +0.000 OA
ATOM      8  C   UNL     1       0.224  11.782  21.369  0.00  0.00    +0.000 C 
ATOM      9  C   UNL     1       0.731  10.694  20.396  0.00  0.00    +0.000 C 
ATOM     10  O   UNL     1      -0.218   9.920  19.648  0.00  0.00    +0.000 OA
ATOM     11  C   UNL     1      -1.362  10.532  19.244  0.00  0.00    +0.000 A 
ATOM     12  C   UNL     1      -1.926  10.141  18.018  0.00  0.00    +0.000 A 
ATOM     13  C   UNL     1      -3.087  10.761  17.505  0.00  0.00    +0.000 A 
ATOM     14  C   UNL     1      -3.752  11.705  18.296  0.00  0.00    +0.000 A 
ATOM     15  C   UNL     1      -3.214  12.032  19.543  0.00  0.00    +0.000 A 
ATOM     16  C   UNL     1      -1.981  11.508  19.994  0.00  0.00    +0.000 A 
ATOM     17  C   UNL     1      -1.245  12.227  21.105  0.00  0.00    +0.000 C 
ATOM     18  C   UNL     1      -1.147  13.663  20.570  0.00  0.00    +0.000 C 
ATOM     19  O   UNL     1      -1.912  14.588  20.808  0.00  0.00    +0.000 OA
ENDROOT
BRANCH   2  20
ATOM     20  O   UNL     1       3.611  14.133  17.777  0.00  0.00    +0.000 OA
ATOM     21  H   UNL     1       3.538  13.725  16.886  0.00  0.00    +0.000 HD
ENDBRANCH   2  20
BRANCH  13  22
ATOM     22  O   UNL     1      -3.613  10.494  16.271  0.00  0.00    +0.000 OA
ATOM     23  C   UNL     1      -2.732  10.402  15.162  0.00  0.00    +0.000 C 
ENDBRANCH  13  22
BRANCH  14  24
ATOM     24  O   UNL     1      -4.877  12.436  18.027  0.00  0.00    +0.000 OA
ATOM     25  C   UNL     1      -6.156  11.878  18.277  0.00  0.00    +0.000 C 
ENDBRANCH  14  24
BRANCH  17  26
ATOM     26  O   UNL     1      -1.973  12.115  22.323  0.00  0.00    +0.000 OA
ATOM     27  H   UNL     1      -2.298  12.995  22.577  0.00  0.00    +0.000 HD
ENDBRANCH  17  26
BRANCH   1  28
ATOM     28  C   UNL     1       2.927  15.561  20.282  0.00  0.00    +0.000 C 
BRANCH  28  29
ATOM     29  C   UNL     1       2.687  16.720  19.357  0.00  0.00    +0.000 C 
ATOM     30  O   UNL     1       3.603  17.133  18.638  0.00  0.00    +0.000 OA
BRANCH  29  32
ATOM     31  C   UNL     1       0.628  17.523  20.396  0.00  0.00    +0.000 C 
ATOM     32  C   UNL     1       1.295  17.285  19.256  0.00  0.00    +0.000 C 
ATOM     33  C   UNL     1       0.688  17.546  17.909  0.00  0.00    +0.000 C 
ENDBRANCH  29  32
ENDBRANCH  28  29
ENDBRANCH   1  28
TORSDOF 7
ENDMDL
MODEL 6
REMARK VINA RESULT:      -6.3      3.198      5.893
REMARK  Name = 
REMARK  10 active torsions:
REMARK  status: ('A' for Active; 'I' for Inactive)
REMARK    1  A    between atoms: C_2  and  C_3
REMARK    2  A    between atoms: C_2  and  C_4
REMARK    3  A    between atoms: C_4  and  C_6
REMARK    4  A    between atoms: C_6  and  C_7
REMARK    5  A    between atoms: C_8  and  O_9
REMARK    6  A    between atoms: C_20  and  O_21
REMARK    7  A    between atoms: O_21  and  C_22
REMARK    8  A    between atoms: C_23  and  O_24
REMARK    9  A    between atoms: O_24  and  C_25
REMARK   10  A    between atoms: C_28  and  O_29
REMARK                            x       y       z     vdW  Elec       q    Type
REMARK                         _______ _______ _______ _____ _____    ______ ____
ROOT
ATOM      1  C   UNL     1      -1.016  11.372  19.809  0.00  0.00    +0.000 A 
ATOM      2  C   UNL     1      -1.292  11.715  18.483  0.00  0.00    +0.000 A 
ATOM      3  C   UNL     1      -0.615  12.793  17.900  0.00  0.00    +0.000 A 
ATOM      4  C   UNL     1       0.454  13.382  18.587  0.00  0.00    +0.000 A 
ATOM      5  C   UNL     1       0.663  13.022  19.911  0.00  0.00    +0.000 A 
ATOM      6  C   UNL     1      -0.306  12.308  20.549  0.00  0.00    +0.000 A 
ATOM      7  O   UNL     1      -0.870  12.873  21.686  0.00  0.00    +0.000 OA
ATOM      8  C   UNL     1      -0.694  14.364  21.759  0.00  0.00    +0.000 C 
ATOM      9  C   UNL     1      -1.732  15.084  20.870  0.00  0.00    +0.000 C 
ATOM     10  O   UNL     1      -1.397  16.347  20.278  0.00  0.00    +0.000 OA
ATOM     11  C   UNL     1      -0.108  16.551  19.897  0.00  0.00    +0.000 A 
ATOM     12  C   UNL     1       0.131  17.345  18.762  0.00  0.00    +0.000 A 
ATOM     13  C   UNL     1       1.438  17.565  18.274  0.00  0.00    +0.000 A 
ATOM     14  C   UNL     1       2.524  17.074  19.009  0.00  0.00    +0.000 A 
ATOM     15  C   UNL     1       2.269  16.344  20.172  0.00  0.00    +0.000 A 
ATOM     16  C   UNL     1       0.958  16.013  20.585  0.00  0.00    +0.000 A 
ATOM     17  C   UNL     1       0.766  14.869  21.557  0.00  0.00    +0.000 C 
ATOM     18  C   UNL     1       1.508  13.714  20.870  0.00  0.00    +0.000 C 
ATOM     19  O   UNL     1       2.664  13.365  21.066  0.00  0.00    +0.000 OA
ENDROOT
BRANCH   2  20
ATOM     20  O   UNL     1      -2.124  10.985  17.703  0.00  0.00    +0.000 OA
ATOM     21  H   UNL     1      -1.870  10.038  17.755  0.00  0.00    +0.000 HD
ENDBRANCH   2  20
BRANCH  13  22
ATOM     22  O   UNL     1       1.717  18.237  17.116  0.00  0.00    +0.000 OA
ATOM     23  C   UNL     1       0.639  18.631  16.282  0.00  0.00    +0.000 C 
ENDBRANCH  13  22
BRANCH  14  24
ATOM     24  O   UNL     1       3.865  17.152  18.747  0.00  0.00    +0.000 OA
ATOM     25  C   UNL     1       4.793  17.148  19.819  0.00  0.00    +0.000 C 
ENDBRANCH  14  24
BRANCH  17  26
ATOM     26  O   UNL     1       1.299  15.219  22.830  0.00  0.00    +0.000 OA
ATOM     27  H   UNL     1       2.077  14.666  23.008  0.00  0.00    +0.000 HD
ENDBRANCH  17  26
BRANCH   1  28
ATOM     28  C   UNL     1      -0.747   9.893  20.090  0.00  0.00    +0.000 C 
BRANCH  28  29
ATOM     29  C   UNL     1       0.694   9.552  20.349  0.00  0.00    +0.000 C 
ATOM     30  O   UNL     1       1.169   9.708  21.478  0.00  0.00    +0.000 OA
BRANCH  29  32
ATOM     31  C   UNL     1       2.074   7.739  19.473  0.00  0.00    +0.000 C 
ATOM     32  C   UNL     1       1.496   8.927  19.239  0.00  0.00    +0.000 C 
ATOM     33  C   UNL     1       1.646   9.640  17.928  0.00  0.00    +0.000 C 
ENDBRANCH  29  32
ENDBRANCH  28  29
ENDBRANCH   1  28
TORSDOF 7
ENDMDL
MODEL 7
REMARK VINA RESULT:      -6.2      7.203      8.976
REMARK  Name = 
REMARK  10 active torsions:
REMARK  status: ('A' for Active; 'I' for Inactive)
REMARK    1  A    between atoms: C_2  and  C_3
REMARK    2  A    between atoms: C_2  and  C_4
REMARK    3  A    between atoms: C_4  and  C_6
REMARK    4  A    between atoms: C_6  and  C_7
REMARK    5  A    between atoms: C_8  and  O_9
REMARK    6  A    between atoms: C_20  and  O_21
REMARK    7  A    between atoms: O_21  and  C_22
REMARK    8  A    between atoms: C_23  and  O_24
REMARK    9  A    between atoms: O_24  and  C_25
REMARK   10  A    between atoms: C_28  and  O_29
REMARK                            x       y       z     vdW  Elec       q    Type
REMARK                         _______ _______ _______ _____ _____    ______ ____
ROOT
ATOM      1  C   UNL     1       9.976  14.766  18.963  0.00  0.00    +0.000 A 
ATOM      2  C   UNL     1      10.323  14.049  20.112  0.00  0.00    +0.000 A 
ATOM      3  C   UNL     1       9.354  13.827  21.097  0.00  0.00    +0.000 A 
ATOM      4  C   UNL     1       8.019  14.158  20.832  0.00  0.00    +0.000 A 
ATOM      5  C   UNL     1       7.739  14.895  19.690  0.00  0.00    +0.000 A 
ATOM      6  C   UNL     1       8.777  15.463  19.014  0.00  0.00    +0.000 A 
ATOM      7  O   UNL     1       8.765  16.845  18.873  0.00  0.00    +0.000 OA
ATOM      8  C   UNL     1       7.899  17.539  19.886  0.00  0.00    +0.000 C 
ATOM      9  C   UNL     1       8.634  17.671  21.238  0.00  0.00    +0.000 C 
ATOM     10  O   UNL     1       7.874  17.682  22.455  0.00  0.00    +0.000 OA
ATOM     11  C   UNL     1       6.749  16.922  22.510  0.00  0.00    +0.000 A 
ATOM     12  C   UNL     1       6.401  16.340  23.741  0.00  0.00    +0.000 A 
ATOM     13  C   UNL     1       5.274  15.498  23.870  0.00  0.00    +0.000 A 
ATOM     14  C   UNL     1       4.422  15.339  22.771  0.00  0.00    +0.000 A 
ATOM     15  C   UNL     1       4.747  15.981  21.574  0.00  0.00    +0.000 A 
ATOM     16  C   UNL     1       5.945  16.714  21.411  0.00  0.00    +0.000 A 
ATOM     17  C   UNL     1       6.449  16.985  20.009  0.00  0.00    +0.000 C 
ATOM     18  C   UNL     1       6.493  15.581  19.389  0.00  0.00    +0.000 C 
ATOM     19  O   UNL     1       5.623  15.051  18.711  0.00  0.00    +0.000 OA
ENDROOT
BRANCH   2  20
ATOM     20  O   UNL     1      11.538  13.475  20.269  0.00  0.00    +0.000 OA
ATOM     21  H   UNL     1      11.425  12.561  20.610  0.00  0.00    +0.000 HD
ENDBRANCH   2  20
BRANCH  13  22
ATOM     22  O   UNL     1       4.954  14.821  25.015  0.00  0.00    +0.000 OA
ATOM     23  C   UNL     1       5.606  13.590  25.281  0.00  0.00    +0.000 C 
ENDBRANCH  13  22
BRANCH  14  24
ATOM     24  O   UNL     1       3.286  14.586  22.646  0.00  0.00    +0.000 OA
ATOM     25  C   UNL     1       2.644  14.483  21.385  0.00  0.00    +0.000 C 
ENDBRANCH  14  24
BRANCH  17  26
ATOM     26  O   UNL     1       5.569  17.881  19.341  0.00  0.00    +0.000 OA
ATOM     27  H   UNL     1       5.116  18.429  20.003  0.00  0.00    +0.000 HD
ENDBRANCH  17  26
BRANCH   1  28
ATOM     28  C   UNL     1      10.382  14.149  17.625  0.00  0.00    +0.000 C 
BRANCH  28  29
ATOM     29  C   UNL     1      10.392  12.646  17.600  0.00  0.00    +0.000 C 
ATOM     30  O   UNL     1      11.464  12.040  17.503  0.00  0.00    +0.000 OA
BRANCH  29  32
ATOM     31  C   UNL     1       9.106  10.800  18.549  0.00  0.00    +0.000 C 
ATOM     32  C   UNL     1       9.091  11.914  17.802  0.00  0.00    +0.000 C 
ATOM     33  C   UNL     1       7.836  12.426  17.160  0.00  0.00    +0.000 C 
ENDBRANCH  29  32
ENDBRANCH  28  29
ENDBRANCH   1  28
TORSDOF 7
ENDMDL
MODEL 8
REMARK VINA RESULT:      -6.1      3.025      4.726
REMARK  Name = 
REMARK  10 active torsions:
REMARK  status: ('A' for Active; 'I' for Inactive)
REMARK    1  A    between atoms: C_2  and  C_3
REMARK    2  A    between atoms: C_2  and  C_4
REMARK    3  A    between atoms: C_4  and  C_6
REMARK    4  A    between atoms: C_6  and  C_7
REMARK    5  A    between atoms: C_8  and  O_9
REMARK    6  A    between atoms: C_20  and  O_21
REMARK    7  A    between atoms: O_21  and  C_22
REMARK    8  A    between atoms: C_23  and  O_24
REMARK    9  A    between atoms: O_24  and  C_25
REMARK   10  A    between atoms: C_28  and  O_29
REMARK                            x       y       z     vdW  Elec       q    Type
REMARK                         _______ _______ _______ _____ _____    ______ ____
ROOT
ATOM      1  C   UNL     1       0.481  10.932  19.162  0.00  0.00    +0.000 A 
ATOM      2  C   UNL     1      -0.839  11.062  18.723  0.00  0.00    +0.000 A 
ATOM      3  C   UNL     1      -1.314  12.324  18.349  0.00  0.00    +0.000 A 
ATOM      4  C   UNL     1      -0.413  13.390  18.238  0.00  0.00    +0.000 A 
ATOM      5  C   UNL     1       0.878  13.211  18.715  0.00  0.00    +0.000 A 
ATOM      6  C   UNL     1       1.141  12.112  19.477  0.00  0.00    +0.000 A 
ATOM      7  O   UNL     1       1.612  12.328  20.766  0.00  0.00    +0.000 OA
ATOM      8  C   UNL     1       1.294  13.698  21.293  0.00  0.00    +0.000 C 
ATOM      9  C   UNL     1      -0.164  13.768  21.799  0.00  0.00    +0.000 C 
ATOM     10  O   UNL     1      -0.873  15.014  21.735  0.00  0.00    +0.000 OA
ATOM     11  C   UNL     1      -0.611  15.844  20.691  0.00  0.00    +0.000 A 
ATOM     12  C   UNL     1      -1.661  16.628  20.186  0.00  0.00    +0.000 A 
ATOM     13  C   UNL     1      -1.482  17.479  19.073  0.00  0.00    +0.000 A 
ATOM     14  C   UNL     1      -0.197  17.628  18.537  0.00  0.00    +0.000 A 
ATOM     15  C   UNL     1       0.849  16.890  19.096  0.00  0.00    +0.000 A 
ATOM     16  C   UNL     1       0.641  15.941  20.122  0.00  0.00    +0.000 A 
ATOM     17  C   UNL     1       1.693  14.877  20.357  0.00  0.00    +0.000 C 
ATOM     18  C   UNL     1       1.859  14.255  18.963  0.00  0.00    +0.000 C 
ATOM     19  O   UNL     1       2.697  14.552  18.122  0.00  0.00    +0.000 OA
ENDROOT
BRANCH   2  20
ATOM     20  O   UNL     1      -1.656   9.995  18.556  0.00  0.00    +0.000 OA
ATOM     21  H   UNL     1      -2.141   9.822  19.391  0.00  0.00    +0.000 HD
ENDBRANCH   2  20
BRANCH  13  22
ATOM     22  O   UNL     1      -2.495  18.179  18.477  0.00  0.00    +0.000 OA
ATOM     23  C   UNL     1      -3.717  18.338  19.179  0.00  0.00    +0.000 C 
ENDBRANCH  13  22
BRANCH  14  24
ATOM     24  O   UNL     1       0.227  18.379  17.475  0.00  0.00    +0.000 OA
ATOM     25  C   UNL     1       1.432  18.040  16.810  0.00  0.00    +0.000 C 
ENDBRANCH  14  24
BRANCH  17  26
ATOM     26  O   UNL     1       2.881  15.473  20.867  0.00  0.00    +0.000 OA
ATOM     27  H   UNL     1       3.169  16.172  20.257  0.00  0.00    +0.000 HD
ENDBRANCH  17  26
BRANCH   1  28
ATOM     28  C   UNL     1       1.302   9.806  18.533  0.00  0.00    +0.000 C 
BRANCH  28  29
ATOM     29  C   UNL     1       1.611   8.660  19.455  0.00  0.00    +0.000 C 
ATOM     30  O   UNL     1       1.126   8.638  20.590  0.00  0.00    +0.000 OA
BRANCH  29  32
ATOM     31  C   UNL     1       2.416   6.361  19.619  0.00  0.00    +0.000 C 
ATOM     32  C   UNL     1       2.426   7.510  18.926  0.00  0.00    +0.000 C 
ATOM     33  C   UNL     1       3.231   7.675  17.671  0.00  0.00    +0.000 C 
ENDBRANCH  29  32
ENDBRANCH  28  29
ENDBRANCH   1  28
TORSDOF 7
ENDMDL
MODEL 9
REMARK VINA RESULT:      -6.0      3.733      6.373
REMARK  Name = 
REMARK  10 active torsions:
REMARK  status: ('A' for Active; 'I' for Inactive)
REMARK    1  A    between atoms: C_2  and  C_3
REMARK    2  A    between atoms: C_2  and  C_4
REMARK    3  A    between atoms: C_4  and  C_6
REMARK    4  A    between atoms: C_6  and  C_7
REMARK    5  A    between atoms: C_8  and  O_9
REMARK    6  A    between atoms: C_20  and  O_21
REMARK    7  A    between atoms: O_21  and  C_22
REMARK    8  A    between atoms: C_23  and  O_24
REMARK    9  A    between atoms: O_24  and  C_25
REMARK   10  A    between atoms: C_28  and  O_29
REMARK                            x       y       z     vdW  Elec       q    Type
REMARK                         _______ _______ _______ _____ _____    ______ ____
ROOT
ATOM      1  C   UNL     1       1.104  15.877  18.992  0.00  0.00    +0.000 A 
ATOM      2  C   UNL     1      -0.041  16.568  18.588  0.00  0.00    +0.000 A 
ATOM      3  C   UNL     1      -1.258  16.311  19.231  0.00  0.00    +0.000 A 
ATOM      4  C   UNL     1      -1.269  15.514  20.383  0.00  0.00    +0.000 A 
ATOM      5  C   UNL     1      -0.110  14.830  20.719  0.00  0.00    +0.000 A 
ATOM      6  C   UNL     1       0.897  14.769  19.803  0.00  0.00    +0.000 A 
ATOM      7  O   UNL     1       1.297  13.508  19.379  0.00  0.00    +0.000 OA
ATOM      8  C   UNL     1       0.257  12.447  19.605  0.00  0.00    +0.000 C 
ATOM      9  C   UNL     1      -0.822  12.491  18.500  0.00  0.00    +0.000 C 
ATOM     10  O   UNL     1      -2.162  12.080  18.808  0.00  0.00    +0.000 OA
ATOM     11  C   UNL     1      -2.638  12.338  20.054  0.00  0.00    +0.000 A 
ATOM     12  C   UNL     1      -4.005  12.630  20.196  0.00  0.00    +0.000 A 
ATOM     13  C   UNL     1      -4.567  12.956  21.450  0.00  0.00    +0.000 A 
ATOM     14  C   UNL     1      -3.762  12.870  22.592  0.00  0.00    +0.000 A 
ATOM     15  C   UNL     1      -2.421  12.511  22.440  0.00  0.00    +0.000 A 
ATOM     16  C   UNL     1      -1.831  12.316  21.171  0.00  0.00    +0.000 A 
ATOM     17  C   UNL     1      -0.323  12.385  21.049  0.00  0.00    +0.000 C 
ATOM     18  C   UNL     1       0.004  13.746  21.680  0.00  0.00    +0.000 C 
ATOM     19  O   UNL     1       0.332  13.956  22.841  0.00  0.00    +0.000 OA
ENDROOT
BRANCH   2  20
ATOM     20  O   UNL     1      -0.005  17.551  17.658  0.00  0.00    +0.000 OA
ATOM     21  H   UNL     1       0.059  17.151  16.763  0.00  0.00    +0.000 HD
ENDBRANCH   2  20
BRANCH  13  22
ATOM     22  O   UNL     1      -5.864  13.353  21.624  0.00  0.00    +0.000 OA
ATOM     23  C   UNL     1      -6.882  12.365  21.643  0.00  0.00    +0.000 C 
ENDBRANCH  13  22
BRANCH  14  24
ATOM     24  O   UNL     1      -4.068  13.133  23.900  0.00  0.00    +0.000 OA
ATOM     25  C   UNL     1      -3.415  14.195  24.576  0.00  0.00    +0.000 C 
ENDBRANCH  14  24
BRANCH  17  26
ATOM     26  O   UNL     1       0.270  11.280  21.723  0.00  0.00    +0.000 OA
ATOM     27  H   UNL     1      -0.204  11.130  22.558  0.00  0.00    +0.000 HD
ENDBRANCH  17  26
BRANCH   1  28
ATOM     28  C   UNL     1       2.355  16.718  19.246  0.00  0.00    +0.000 C 
BRANCH  28  29
ATOM     29  C   UNL     1       3.325  16.766  18.100  0.00  0.00    +0.000 C 
ATOM     30  O   UNL     1       3.035  17.392  17.075  0.00  0.00    +0.000 OA
BRANCH  29  32
ATOM     31  C   UNL     1       4.850  14.879  17.825  0.00  0.00    +0.000 C 
ATOM     32  C   UNL     1       4.680  16.132  18.275  0.00  0.00    +0.000 C 
ATOM     33  C   UNL     1       5.782  16.891  18.952  0.00  0.00    +0.000 C 
ENDBRANCH  29  32
ENDBRANCH  28  29
ENDBRANCH   1  28
TORSDOF 7
ENDMDL
