MODEL 1
REMARK VINA RESULT:      -7.8      0.000      0.000
REMARK  Name = 
REMARK  6 active torsions:
REMARK  status: ('A' for Active; 'I' for Inactive)
REMARK    1  A    between atoms: C_1  and  C_2
REMARK    2  A    between atoms: C_5  and  O_6
REMARK    3  A    between atoms: O_6  and  C_7
REMARK    4  A    between atoms: C_7  and  C_8
REMARK    5  A    between atoms: C_8  and  N_9
REMARK    6  A    between atoms: C_20  and  C_21
REMARK                            x       y       z     vdW  Elec       q    Type
REMARK                         _______ _______ _______ _____ _____    ______ ____
ROOT
ATOM      1  C   UNL     1       6.272   6.149  17.590  0.00  0.00    +0.000 C 
ENDROOT
BRANCH   1   2
ATOM      2  N   UNL     1       5.319   5.314  18.312  0.00  0.00    +0.000 N 
ATOM      3  N   UNL     1       5.810   4.114  18.777  0.00  0.00    +0.000 NA
ATOM      4  C   UNL     1       5.011   3.342  19.444  0.00  0.00    +0.000 A 
ATOM      5  C   UNL     1       3.622   3.667  19.734  0.00  0.00    +0.000 A 
ATOM      6  C   UNL     1       2.849   2.837  20.543  0.00  0.00    +0.000 A 
ATOM      7  C   UNL     1       1.546   3.225  20.859  0.00  0.00    +0.000 A 
ATOM      8  C   UNL     1       1.016   4.405  20.329  0.00  0.00    +0.000 A 
ATOM      9  C   UNL     1       1.789   5.210  19.491  0.00  0.00    +0.000 A 
ATOM     10  C   UNL     1       3.110   4.846  19.215  0.00  0.00    +0.000 A 
ATOM     11  C   UNL     1       3.995   5.726  18.433  0.00  0.00    +0.000 A 
ATOM     12  O   UNL     1       3.543   6.767  17.955  0.00  0.00    +0.000 OA
ENDBRANCH   1   2
BRANCH   1  13
ATOM     13  C   UNL     1       7.254   5.307  16.793  0.00  0.00    +0.000 C 
BRANCH  13  14
ATOM     14  O   UNL     1       7.319   5.792  15.454  0.00  0.00    +0.000 OA
BRANCH  14  19
ATOM     15  C   UNL     1       5.219   2.519  11.315  0.00  0.00    +0.000 C 
ATOM     16  C   UNL     1       5.759   3.371  12.424  0.00  0.00    +0.000 A 
ATOM     17  C   UNL     1       5.125   3.404  13.663  0.00  0.00    +0.000 A 
ATOM     18  C   UNL     1       5.625   4.199  14.690  0.00  0.00    +0.000 A 
ATOM     19  C   UNL     1       6.773   4.980  14.496  0.00  0.00    +0.000 A 
ATOM     20  C   UNL     1       7.429   4.951  13.256  0.00  0.00    +0.000 A 
ATOM     21  C   UNL     1       8.667   5.763  12.988  0.00  0.00    +0.000 C 
ATOM     22  C   UNL     1       6.911   4.145  12.228  0.00  0.00    +0.000 A 
ENDBRANCH  14  19
ENDBRANCH  13  14
ENDBRANCH   1  13
TORSDOF 4
ENDMDL
MODEL 2
REMARK VINA RESULT:      -7.8      1.227      1.819
REMARK  Name = 
REMARK  6 active torsions:
REMARK  status: ('A' for Active; 'I' for Inactive)
REMARK    1  A    between atoms: C_1  and  C_2
REMARK    2  A    between atoms: C_5  and  O_6
REMARK    3  A    between atoms: O_6  and  C_7
REMARK    4  A    between atoms: C_7  and  C_8
REMARK    5  A    between atoms: C_8  and  N_9
REMARK    6  A    between atoms: C_20  and  C_21
REMARK                            x       y       z     vdW  Elec       q    Type
REMARK                         _______ _______ _______ _____ _____    ______ ____
ROOT
ATOM      1  C   UNL     1       6.619   6.173  17.747  0.00  0.00    +0.000 C 
ENDROOT
BRANCH   1   2
ATOM      2  N   UNL     1       5.282   5.653  18.010  0.00  0.00    +0.000 N 
ATOM      3  N   UNL     1       4.244   6.358  17.441  0.00  0.00    +0.000 NA
ATOM      4  C   UNL     1       3.037   5.927  17.626  0.00  0.00    +0.000 A 
ATOM      5  C   UNL     1       2.708   4.738  18.398  0.00  0.00    +0.000 A 
ATOM      6  C   UNL     1       1.395   4.275  18.472  0.00  0.00    +0.000 A 
ATOM      7  C   UNL     1       1.135   3.088  19.160  0.00  0.00    +0.000 A 
ATOM      8  C   UNL     1       2.173   2.407  19.804  0.00  0.00    +0.000 A 
ATOM      9  C   UNL     1       3.477   2.901  19.752  0.00  0.00    +0.000 A 
ATOM     10  C   UNL     1       3.746   4.062  19.022  0.00  0.00    +0.000 A 
ATOM     11  C   UNL     1       5.123   4.550  18.845  0.00  0.00    +0.000 A 
ATOM     12  O   UNL     1       6.049   3.965  19.408  0.00  0.00    +0.000 OA
ENDBRANCH   1   2
BRANCH   1  13
ATOM     13  C   UNL     1       7.377   5.284  16.775  0.00  0.00    +0.000 C 
BRANCH  13  14
ATOM     14  O   UNL     1       7.288   5.830  15.462  0.00  0.00    +0.000 OA
BRANCH  14  19
ATOM     15  C   UNL     1       5.257   2.506  11.329  0.00  0.00    +0.000 C 
ATOM     16  C   UNL     1       5.778   3.371  12.436  0.00  0.00    +0.000 A 
ATOM     17  C   UNL     1       5.127   3.416  13.666  0.00  0.00    +0.000 A 
ATOM     18  C   UNL     1       5.609   4.224  14.691  0.00  0.00    +0.000 A 
ATOM     19  C   UNL     1       6.758   5.006  14.505  0.00  0.00    +0.000 A 
ATOM     20  C   UNL     1       7.432   4.966  13.275  0.00  0.00    +0.000 A 
ATOM     21  C   UNL     1       8.671   5.778  13.015  0.00  0.00    +0.000 C 
ATOM     22  C   UNL     1       6.930   4.146  12.249  0.00  0.00    +0.000 A 
ENDBRANCH  14  19
ENDBRANCH  13  14
ENDBRANCH   1  13
TORSDOF 4
ENDMDL
MODEL 3
REMARK VINA RESULT:      -7.6      2.788      6.937
REMARK  Name = 
REMARK  6 active torsions:
REMARK  status: ('A' for Active; 'I' for Inactive)
REMARK    1  A    between atoms: C_1  and  C_2
REMARK    2  A    between atoms: C_5  and  O_6
REMARK    3  A    between atoms: O_6  and  C_7
REMARK    4  A    between atoms: C_7  and  C_8
REMARK    5  A    between atoms: C_8  and  N_9
REMARK    6  A    between atoms: C_20  and  C_21
REMARK                            x       y       z     vdW  Elec       q    Type
REMARK                         _______ _______ _______ _____ _____    ______ ____
ROOT
ATOM      1  C   UNL     1       3.234   3.975  20.068  0.00  0.00    +0.000 C 
ENDROOT
BRANCH   1   2
ATOM      2  N   UNL     1       3.856   4.031  18.750  0.00  0.00    +0.000 N 
ATOM      3  N   UNL     1       3.023   3.766  17.685  0.00  0.00    +0.000 NA
ATOM      4  C   UNL     1       3.521   3.823  16.490  0.00  0.00    +0.000 A 
ATOM      5  C   UNL     1       4.908   4.153  16.202  0.00  0.00    +0.000 A 
ATOM      6  C   UNL     1       5.351   4.296  14.888  0.00  0.00    +0.000 A 
ATOM      7  C   UNL     1       6.671   4.689  14.659  0.00  0.00    +0.000 A 
ATOM      8  C   UNL     1       7.543   4.886  15.735  0.00  0.00    +0.000 A 
ATOM      9  C   UNL     1       7.096   4.706  17.044  0.00  0.00    +0.000 A 
ATOM     10  C   UNL     1       5.762   4.360  17.276  0.00  0.00    +0.000 A 
ATOM     11  C   UNL     1       5.223   4.275  18.643  0.00  0.00    +0.000 A 
ATOM     12  O   UNL     1       5.977   4.443  19.602  0.00  0.00    +0.000 OA
ENDBRANCH   1   2
BRANCH   1  13
ATOM     13  C   UNL     1       2.311   5.161  20.296  0.00  0.00    +0.000 C 
BRANCH  13  14
ATOM     14  O   UNL     1       3.018   6.370  20.034  0.00  0.00    +0.000 OA
BRANCH  14  19
ATOM     15  C   UNL     1      -0.066  10.956  18.725  0.00  0.00    +0.000 C 
ATOM     16  C   UNL     1       0.733   9.742  19.091  0.00  0.00    +0.000 A 
ATOM     17  C   UNL     1       0.635   9.187  20.364  0.00  0.00    +0.000 A 
ATOM     18  C   UNL     1       1.383   8.063  20.704  0.00  0.00    +0.000 A 
ATOM     19  C   UNL     1       2.246   7.471  19.772  0.00  0.00    +0.000 A 
ATOM     20  C   UNL     1       2.351   8.012  18.481  0.00  0.00    +0.000 A 
ATOM     21  C   UNL     1       3.257   7.419  17.437  0.00  0.00    +0.000 C 
ATOM     22  C   UNL     1       1.591   9.148  18.155  0.00  0.00    +0.000 A 
ENDBRANCH  14  19
ENDBRANCH  13  14
ENDBRANCH   1  13
TORSDOF 4
ENDMDL
MODEL 4
REMARK VINA RESULT:      -7.5      2.840      6.952
REMARK  Name = 
REMARK  6 active torsions:
REMARK  status: ('A' for Active; 'I' for Inactive)
REMARK    1  A    between atoms: C_1  and  C_2
REMARK    2  A    between atoms: C_5  and  O_6
REMARK    3  A    between atoms: O_6  and  C_7
REMARK    4  A    between atoms: C_7  and  C_8
REMARK    5  A    between atoms: C_8  and  N_9
REMARK    6  A    between atoms: C_20  and  C_21
REMARK                            x       y       z     vdW  Elec       q    Type
REMARK                         _______ _______ _______ _____ _____    ______ ____
ROOT
ATOM      1  C   UNL     1       2.801   4.154  20.088  0.00  0.00    +0.000 C 
ENDROOT
BRANCH   1   2
ATOM      2  N   UNL     1       3.893   4.423  19.160  0.00  0.00    +0.000 N 
ATOM      3  N   UNL     1       5.029   4.968  19.715  0.00  0.00    +0.000 NA
ATOM      4  C   UNL     1       6.037   5.207  18.937  0.00  0.00    +0.000 A 
ATOM      5  C   UNL     1       6.044   4.932  17.508  0.00  0.00    +0.000 A 
ATOM      6  C   UNL     1       7.199   5.120  16.750  0.00  0.00    +0.000 A 
ATOM      7  C   UNL     1       7.184   4.770  15.399  0.00  0.00    +0.000 A 
ATOM      8  C   UNL     1       6.011   4.287  14.811  0.00  0.00    +0.000 A 
ATOM      9  C   UNL     1       4.852   4.137  15.573  0.00  0.00    +0.000 A 
ATOM     10  C   UNL     1       4.880   4.440  16.937  0.00  0.00    +0.000 A 
ATOM     11  C   UNL     1       3.715   4.185  17.799  0.00  0.00    +0.000 A 
ATOM     12  O   UNL     1       2.673   3.762  17.297  0.00  0.00    +0.000 OA
ENDBRANCH   1   2
BRANCH   1  13
ATOM     13  C   UNL     1       1.929   5.383  20.288  0.00  0.00    +0.000 C 
BRANCH  13  14
ATOM     14  O   UNL     1       2.702   6.558  20.056  0.00  0.00    +0.000 OA
BRANCH  14  19
ATOM     15  C   UNL     1      -0.110  11.325  18.784  0.00  0.00    +0.000 C 
ATOM     16  C   UNL     1       0.616  10.063  19.139  0.00  0.00    +0.000 A 
ATOM     17  C   UNL     1       0.423   9.460  20.379  0.00  0.00    +0.000 A 
ATOM     18  C   UNL     1       1.103   8.291  20.709  0.00  0.00    +0.000 A 
ATOM     19  C   UNL     1       1.992   7.701  19.801  0.00  0.00    +0.000 A 
ATOM     20  C   UNL     1       2.193   8.291  18.544  0.00  0.00    +0.000 A 
ATOM     21  C   UNL     1       3.131   7.703  17.525  0.00  0.00    +0.000 C 
ATOM     22  C   UNL     1       1.501   9.472  18.227  0.00  0.00    +0.000 A 
ENDBRANCH  14  19
ENDBRANCH  13  14
ENDBRANCH   1  13
TORSDOF 4
ENDMDL
MODEL 5
REMARK VINA RESULT:      -7.5      2.869      6.758
REMARK  Name = 
REMARK  6 active torsions:
REMARK  status: ('A' for Active; 'I' for Inactive)
REMARK    1  A    between atoms: C_1  and  C_2
REMARK    2  A    between atoms: C_5  and  O_6
REMARK    3  A    between atoms: O_6  and  C_7
REMARK    4  A    between atoms: C_7  and  C_8
REMARK    5  A    between atoms: C_8  and  N_9
REMARK    6  A    between atoms: C_20  and  C_21
REMARK                            x       y       z     vdW  Elec       q    Type
REMARK                         _______ _______ _______ _____ _____    ______ ____
ROOT
ATOM      1  C   UNL     1       3.575   1.878  18.350  0.00  0.00    +0.000 C 
ENDROOT
BRANCH   1   2
ATOM      2  N   UNL     1       4.459   2.952  17.914  0.00  0.00    +0.000 N 
ATOM      3  N   UNL     1       4.458   3.216  16.562  0.00  0.00    +0.000 NA
ATOM      4  C   UNL     1       5.210   4.175  16.124  0.00  0.00    +0.000 A 
ATOM      5  C   UNL     1       6.057   4.997  16.976  0.00  0.00    +0.000 A 
ATOM      6  C   UNL     1       6.763   6.078  16.451  0.00  0.00    +0.000 A 
ATOM      7  C   UNL     1       7.503   6.885  17.316  0.00  0.00    +0.000 A 
ATOM      8  C   UNL     1       7.570   6.579  18.679  0.00  0.00    +0.000 A 
ATOM      9  C   UNL     1       6.886   5.473  19.186  0.00  0.00    +0.000 A 
ATOM     10  C   UNL     1       6.106   4.693  18.328  0.00  0.00    +0.000 A 
ATOM     11  C   UNL     1       5.278   3.590  18.842  0.00  0.00    +0.000 A 
ATOM     12  O   UNL     1       5.327   3.305  20.039  0.00  0.00    +0.000 OA
ENDBRANCH   1   2
BRANCH   1  13
ATOM     13  C   UNL     1       2.228   1.951  17.650  0.00  0.00    +0.000 C 
BRANCH  13  14
ATOM     14  O   UNL     1       1.266   2.530  18.528  0.00  0.00    +0.000 OA
BRANCH  14  19
ATOM     15  C   UNL     1       2.118   7.886  20.215  0.00  0.00    +0.000 C 
ATOM     16  C   UNL     1       1.901   6.478  19.747  0.00  0.00    +0.000 A 
ATOM     17  C   UNL     1       1.901   6.177  18.387  0.00  0.00    +0.000 A 
ATOM     18  C   UNL     1       1.695   4.870  17.954  0.00  0.00    +0.000 A 
ATOM     19  C   UNL     1       1.484   3.836  18.877  0.00  0.00    +0.000 A 
ATOM     20  C   UNL     1       1.489   4.121  20.251  0.00  0.00    +0.000 A 
ATOM     21  C   UNL     1       1.273   3.054  21.290  0.00  0.00    +0.000 C 
ATOM     22  C   UNL     1       1.697   5.446  20.672  0.00  0.00    +0.000 A 
ENDBRANCH  14  19
ENDBRANCH  13  14
ENDBRANCH   1  13
TORSDOF 4
ENDMDL
MODEL 6
REMARK VINA RESULT:      -7.4      5.072      7.392
REMARK  Name = 
REMARK  6 active torsions:
REMARK  status: ('A' for Active; 'I' for Inactive)
REMARK    1  A    between atoms: C_1  and  C_2
REMARK    2  A    between atoms: C_5  and  O_6
REMARK    3  A    between atoms: O_6  and  C_7
REMARK    4  A    between atoms: C_7  and  C_8
REMARK    5  A    between atoms: C_8  and  N_9
REMARK    6  A    between atoms: C_20  and  C_21
REMARK                            x       y       z     vdW  Elec       q    Type
REMARK                         _______ _______ _______ _____ _____    ______ ____
ROOT
ATOM      1  C   UNL     1       8.379   7.499  18.449  0.00  0.00    +0.000 C 
ENDROOT
BRANCH   1   2
ATOM      2  N   UNL     1       7.203   6.724  18.071  0.00  0.00    +0.000 N 
ATOM      3  N   UNL     1       6.589   7.104  16.898  0.00  0.00    +0.000 NA
ATOM      4  C   UNL     1       5.551   6.435  16.506  0.00  0.00    +0.000 A 
ATOM      5  C   UNL     1       4.994   5.301  17.229  0.00  0.00    +0.000 A 
ATOM      6  C   UNL     1       3.937   4.564  16.696  0.00  0.00    +0.000 A 
ATOM      7  C   UNL     1       3.484   3.439  17.386  0.00  0.00    +0.000 A 
ATOM      8  C   UNL     1       4.053   3.091  18.615  0.00  0.00    +0.000 A 
ATOM      9  C   UNL     1       5.087   3.858  19.154  0.00  0.00    +0.000 A 
ATOM     10  C   UNL     1       5.574   4.956  18.440  0.00  0.00    +0.000 A 
ATOM     11  C   UNL     1       6.739   5.719  18.917  0.00  0.00    +0.000 A 
ATOM     12  O   UNL     1       7.251   5.429  19.998  0.00  0.00    +0.000 OA
ENDBRANCH   1   2
BRANCH   1  13
ATOM     13  C   UNL     1       8.234   8.957  18.047  0.00  0.00    +0.000 C 
BRANCH  13  14
ATOM     14  O   UNL     1       8.480   9.789  19.178  0.00  0.00    +0.000 OA
BRANCH  14  19
ATOM     15  C   UNL     1      12.321  13.945  18.700  0.00  0.00    +0.000 C 
ATOM     16  C   UNL     1      11.315  12.838  18.805  0.00  0.00    +0.000 A 
ATOM     17  C   UNL     1      11.010  12.053  17.696  0.00  0.00    +0.000 A 
ATOM     18  C   UNL     1      10.072  11.029  17.794  0.00  0.00    +0.000 A 
ATOM     19  C   UNL     1       9.418  10.771  19.007  0.00  0.00    +0.000 A 
ATOM     20  C   UNL     1       9.720  11.548  20.136  0.00  0.00    +0.000 A 
ATOM     21  C   UNL     1       9.056  11.317  21.466  0.00  0.00    +0.000 C 
ATOM     22  C   UNL     1      10.668  12.579  20.020  0.00  0.00    +0.000 A 
ENDBRANCH  14  19
ENDBRANCH  13  14
ENDBRANCH   1  13
TORSDOF 4
ENDMDL
MODEL 7
REMARK VINA RESULT:      -7.4      4.309      5.803
REMARK  Name = 
REMARK  6 active torsions:
REMARK  status: ('A' for Active; 'I' for Inactive)
REMARK    1  A    between atoms: C_1  and  C_2
REMARK    2  A    between atoms: C_5  and  O_6
REMARK    3  A    between atoms: O_6  and  C_7
REMARK    4  A    between atoms: C_7  and  C_8
REMARK    5  A    between atoms: C_8  and  N_9
REMARK    6  A    between atoms: C_20  and  C_21
REMARK                            x       y       z     vdW  Elec       q    Type
REMARK                         _______ _______ _______ _____ _____    ______ ____
ROOT
ATOM      1  C   UNL     1       2.312   8.331  18.397  0.00  0.00    +0.000 C 
ENDROOT
BRANCH   1   2
ATOM      2  N   UNL     1       1.517   8.774  19.536  0.00  0.00    +0.000 N 
ATOM      3  N   UNL     1       1.618   8.002  20.672  0.00  0.00    +0.000 NA
ATOM      4  C   UNL     1       0.949   8.364  21.720  0.00  0.00    +0.000 A 
ATOM      5  C   UNL     1       0.096   9.541  21.773  0.00  0.00    +0.000 A 
ATOM      6  C   UNL     1      -0.516   9.927  22.965  0.00  0.00    +0.000 A 
ATOM      7  C   UNL     1      -1.263  11.105  22.989  0.00  0.00    +0.000 A 
ATOM      8  C   UNL     1      -1.433  11.855  21.821  0.00  0.00    +0.000 A 
ATOM      9  C   UNL     1      -0.844  11.439  20.627  0.00  0.00    +0.000 A 
ATOM     10  C   UNL     1      -0.055  10.286  20.613  0.00  0.00    +0.000 A 
ATOM     11  C   UNL     1       0.677   9.877  19.403  0.00  0.00    +0.000 A 
ATOM     12  O   UNL     1       0.537  10.524  18.365  0.00  0.00    +0.000 OA
ENDBRANCH   1   2
BRANCH   1  13
ATOM     13  C   UNL     1       2.298   6.817  18.268  0.00  0.00    +0.000 C 
BRANCH  13  14
ATOM     14  O   UNL     1       3.609   6.308  18.501  0.00  0.00    +0.000 OA
BRANCH  14  19
ATOM     15  C   UNL     1       6.294   3.969  14.077  0.00  0.00    +0.000 C 
ATOM     16  C   UNL     1       5.583   4.608  15.232  0.00  0.00    +0.000 A 
ATOM     17  C   UNL     1       5.422   5.990  15.287  0.00  0.00    +0.000 A 
ATOM     18  C   UNL     1       4.767   6.581  16.363  0.00  0.00    +0.000 A 
ATOM     19  C   UNL     1       4.257   5.799  17.408  0.00  0.00    +0.000 A 
ATOM     20  C   UNL     1       4.404   4.404  17.364  0.00  0.00    +0.000 A 
ATOM     21  C   UNL     1       3.875   3.510  18.453  0.00  0.00    +0.000 C 
ATOM     22  C   UNL     1       5.070   3.822  16.272  0.00  0.00    +0.000 A 
ENDBRANCH  14  19
ENDBRANCH  13  14
ENDBRANCH   1  13
TORSDOF 4
ENDMDL
MODEL 8
REMARK VINA RESULT:      -7.3      5.004      7.084
REMARK  Name = 
REMARK  6 active torsions:
REMARK  status: ('A' for Active; 'I' for Inactive)
REMARK    1  A    between atoms: C_1  and  C_2
REMARK    2  A    between atoms: C_5  and  O_6
REMARK    3  A    between atoms: O_6  and  C_7
REMARK    4  A    between atoms: C_7  and  C_8
REMARK    5  A    between atoms: C_8  and  N_9
REMARK    6  A    between atoms: C_20  and  C_21
REMARK                            x       y       z     vdW  Elec       q    Type
REMARK                         _______ _______ _______ _____ _____    ______ ____
ROOT
ATOM      1  C   UNL     1       8.259   7.673  18.391  0.00  0.00    +0.000 C 
ENDROOT
BRANCH   1   2
ATOM      2  N   UNL     1       7.125   6.831  18.033  0.00  0.00    +0.000 N 
ATOM      3  N   UNL     1       6.489   7.155  16.854  0.00  0.00    +0.000 NA
ATOM      4  C   UNL     1       5.487   6.425  16.478  0.00  0.00    +0.000 A 
ATOM      5  C   UNL     1       4.991   5.278  17.224  0.00  0.00    +0.000 A 
ATOM      6  C   UNL     1       3.973   4.477  16.710  0.00  0.00    +0.000 A 
ATOM      7  C   UNL     1       3.581   3.343  17.423  0.00  0.00    +0.000 A 
ATOM      8  C   UNL     1       4.170   3.049  18.657  0.00  0.00    +0.000 A 
ATOM      9  C   UNL     1       5.164   3.880  19.177  0.00  0.00    +0.000 A 
ATOM     10  C   UNL     1       5.591   4.987  18.441  0.00  0.00    +0.000 A 
ATOM     11  C   UNL     1       6.715   5.820  18.899  0.00  0.00    +0.000 A 
ATOM     12  O   UNL     1       7.244   5.578  19.984  0.00  0.00    +0.000 OA
ENDBRANCH   1   2
BRANCH   1  13
ATOM     13  C   UNL     1       8.209   9.008  17.668  0.00  0.00    +0.000 C 
BRANCH  13  14
ATOM     14  O   UNL     1       8.285  10.068  18.618  0.00  0.00    +0.000 OA
BRANCH  14  19
ATOM     15  C   UNL     1      12.332  13.942  17.688  0.00  0.00    +0.000 C 
ATOM     16  C   UNL     1      11.279  12.909  17.951  0.00  0.00    +0.000 A 
ATOM     17  C   UNL     1      11.590  11.741  18.642  0.00  0.00    +0.000 A 
ATOM     18  C   UNL     1      10.612  10.780  18.880  0.00  0.00    +0.000 A 
ATOM     19  C   UNL     1       9.298  10.970  18.430  0.00  0.00    +0.000 A 
ATOM     20  C   UNL     1       8.966  12.145  17.739  0.00  0.00    +0.000 A 
ATOM     21  C   UNL     1       7.573  12.408  17.234  0.00  0.00    +0.000 C 
ATOM     22  C   UNL     1       9.965  13.104  17.504  0.00  0.00    +0.000 A 
ENDBRANCH  14  19
ENDBRANCH  13  14
ENDBRANCH   1  13
TORSDOF 4
ENDMDL
MODEL 9
REMARK VINA RESULT:      -7.3      3.704      5.031
REMARK  Name = 
REMARK  6 active torsions:
REMARK  status: ('A' for Active; 'I' for Inactive)
REMARK    1  A    between atoms: C_1  and  C_2
REMARK    2  A    between atoms: C_5  and  O_6
REMARK    3  A    between atoms: O_6  and  C_7
REMARK    4  A    between atoms: C_7  and  C_8
REMARK    5  A    between atoms: C_8  and  N_9
REMARK    6  A    between atoms: C_20  and  C_21
REMARK                            x       y       z     vdW  Elec       q    Type
REMARK                         _______ _______ _______ _____ _____    ______ ____
ROOT
ATOM      1  C   UNL     1       3.156   7.048  18.326  0.00  0.00    +0.000 C 
ENDROOT
BRANCH   1   2
ATOM      2  N   UNL     1       2.223   7.873  19.085  0.00  0.00    +0.000 N 
ATOM      3  N   UNL     1       1.916   7.419  20.349  0.00  0.00    +0.000 NA
ATOM      4  C   UNL     1       1.109   8.125  21.074  0.00  0.00    +0.000 A 
ATOM      5  C   UNL     1       0.504   9.374  20.636  0.00  0.00    +0.000 A 
ATOM      6  C   UNL     1      -0.276  10.134  21.506  0.00  0.00    +0.000 A 
ATOM      7  C   UNL     1      -0.772  11.363  21.068  0.00  0.00    +0.000 A 
ATOM      8  C   UNL     1      -0.527  11.796  19.761  0.00  0.00    +0.000 A 
ATOM      9  C   UNL     1       0.226  11.009  18.889  0.00  0.00    +0.000 A 
ATOM     10  C   UNL     1       0.764   9.802  19.342  0.00  0.00    +0.000 A 
ATOM     11  C   UNL     1       1.660   9.000  18.493  0.00  0.00    +0.000 A 
ATOM     12  O   UNL     1       1.884   9.364  17.338  0.00  0.00    +0.000 OA
ENDBRANCH   1   2
BRANCH   1  13
ATOM     13  C   UNL     1       3.631   5.856  19.141  0.00  0.00    +0.000 C 
BRANCH  13  14
ATOM     14  O   UNL     1       5.016   5.631  18.892  0.00  0.00    +0.000 OA
BRANCH  14  19
ATOM     15  C   UNL     1       6.520   3.987  13.668  0.00  0.00    +0.000 C 
ATOM     16  C   UNL     1       6.108   4.401  15.048  0.00  0.00    +0.000 A 
ATOM     17  C   UNL     1       4.977   3.849  15.645  0.00  0.00    +0.000 A 
ATOM     18  C   UNL     1       4.593   4.239  16.924  0.00  0.00    +0.000 A 
ATOM     19  C   UNL     1       5.335   5.192  17.634  0.00  0.00    +0.000 A 
ATOM     20  C   UNL     1       6.482   5.753  17.051  0.00  0.00    +0.000 A 
ATOM     21  C   UNL     1       7.322   6.777  17.764  0.00  0.00    +0.000 C 
ATOM     22  C   UNL     1       6.856   5.350  15.758  0.00  0.00    +0.000 A 
ENDBRANCH  14  19
ENDBRANCH  13  14
ENDBRANCH   1  13
TORSDOF 4
ENDMDL
