MODEL 1
REMARK VINA RESULT:      -6.3      0.000      0.000
REMARK  Name = 
REMARK  15 active torsions:
REMARK  status: ('A' for Active; 'I' for Inactive)
REMARK    1  A    between atoms: C_1  and  N_2
REMARK    2  A    between atoms: N_2  and  C_3
REMARK    3  A    between atoms: N_2  and  C_13
REMARK    4  A    between atoms: C_3  and  C_4
REMARK    5  A    between atoms: C_4  and  C_5
REMARK    6  A    between atoms: C_13  and  C_14
REMARK    7  A    between atoms: C_14  and  N_15
REMARK    8  A    between atoms: N_15  and  C_16
REMARK    9  A    between atoms: N_15  and  C_17
REMARK   10  A    between atoms: C_17  and  C_18
REMARK   11  A    between atoms: C_18  and  N_19
REMARK   12  A    between atoms: N_19  and  C_20
REMARK   13  A    between atoms: N_19  and  C_21
REMARK   14  A    between atoms: C_21  and  C_22
REMARK   15  A    between atoms: C_22  and  N_23
REMARK                            x       y       z     vdW  Elec       q    Type
REMARK                         _______ _______ _______ _____ _____    ______ ____
ROOT
ATOM      1  C   UNL     1       2.730   5.666  20.071  0.00  0.00    +0.000 C 
ENDROOT
BRANCH   1   2
ATOM      2  N   UNL     1       2.399   7.103  19.975  0.00  0.00    +0.000 NA
ATOM      3  C   UNL     1       2.233   7.554  18.594  0.00  0.00    +0.000 C 
BRANCH   2   4
ATOM      4  C   UNL     1       1.213   7.488  20.766  0.00  0.00    +0.000 C 
BRANCH   4   5
ATOM      5  C   UNL     1       1.215   8.993  21.103  0.00  0.00    +0.000 C 
BRANCH   5   6
ATOM      6  N   UNL     1      -0.003   9.742  20.736  0.00  0.00    +0.000 NA
ATOM      7  C   UNL     1      -0.402  10.658  21.813  0.00  0.00    +0.000 C 
BRANCH   6   8
ATOM      8  C   UNL     1       0.242  10.533  19.501  0.00  0.00    +0.000 C 
BRANCH   8   9
ATOM      9  C   UNL     1      -0.606  10.085  18.283  0.00  0.00    +0.000 C 
BRANCH   9  10
ATOM     10  N   UNL     1      -1.996  10.591  18.272  0.00  0.00    +0.000 NA
ATOM     11  C   UNL     1      -2.971   9.606  17.772  0.00  0.00    +0.000 C 
ATOM     12  C   UNL     1      -2.894   9.726  16.266  0.00  0.00    +0.000 C 
ATOM     13  C   UNL     1      -2.748  11.220  16.060  0.00  0.00    +0.000 C 
ATOM     14  C   UNL     1      -2.095  11.735  17.340  0.00  0.00    +0.000 C 
ENDBRANCH   9  10
ENDBRANCH   8   9
ENDBRANCH   6   8
ENDBRANCH   5   6
ENDBRANCH   4   5
ENDBRANCH   2   4
ENDBRANCH   1   2
BRANCH   1  15
ATOM     15  C   UNL     1       2.157   4.695  18.995  0.00  0.00    +0.000 C 
BRANCH  15  17
ATOM     16  C   UNL     1       1.387   2.417  18.714  0.00  0.00    +0.000 C 
ATOM     17  N   UNL     1       2.465   3.272  19.228  0.00  0.00    +0.000 NA
BRANCH  17  18
ATOM     18  C   UNL     1       3.747   2.851  18.637  0.00  0.00    +0.000 C 
BRANCH  18  19
ATOM     19  C   UNL     1       4.017   3.398  17.222  0.00  0.00    +0.000 C 
BRANCH  19  20
ATOM     20  C   UNL     1       5.000   4.544  17.271  0.00  0.00    +0.000 A 
ATOM     21  C   UNL     1       4.906   5.605  16.362  0.00  0.00    +0.000 A 
ATOM     22  C   UNL     1       5.779   6.692  16.456  0.00  0.00    +0.000 A 
ATOM     23  C   UNL     1       6.752   6.731  17.459  0.00  0.00    +0.000 A 
ATOM     24 CL   UNL     1       7.779   8.119  17.529  0.00  0.00    +0.000 Cl
ATOM     25  C   UNL     1       6.853   5.676  18.367  0.00  0.00    +0.000 A 
ATOM     26 CL   UNL     1       8.023   5.657  19.643  0.00  0.00    +0.000 Cl
ATOM     27  C   UNL     1       5.981   4.587  18.275  0.00  0.00    +0.000 A 
ENDBRANCH  19  20
ENDBRANCH  18  19
ENDBRANCH  17  18
ENDBRANCH  15  17
ENDBRANCH   1  15
TORSDOF 12
ENDMDL
MODEL 2
REMARK VINA RESULT:      -6.0      3.983      8.762
REMARK  Name = 
REMARK  15 active torsions:
REMARK  status: ('A' for Active; 'I' for Inactive)
REMARK    1  A    between atoms: C_1  and  N_2
REMARK    2  A    between atoms: N_2  and  C_3
REMARK    3  A    between atoms: N_2  and  C_13
REMARK    4  A    between atoms: C_3  and  C_4
REMARK    5  A    between atoms: C_4  and  C_5
REMARK    6  A    between atoms: C_13  and  C_14
REMARK    7  A    between atoms: C_14  and  N_15
REMARK    8  A    between atoms: N_15  and  C_16
REMARK    9  A    between atoms: N_15  and  C_17
REMARK   10  A    between atoms: C_17  and  C_18
REMARK   11  A    between atoms: C_18  and  N_19
REMARK   12  A    between atoms: N_19  and  C_20
REMARK   13  A    between atoms: N_19  and  C_21
REMARK   14  A    between atoms: C_21  and  C_22
REMARK   15  A    between atoms: C_22  and  N_23
REMARK                            x       y       z     vdW  Elec       q    Type
REMARK                         _______ _______ _______ _____ _____    ______ ____
ROOT
ATOM      1  C   UNL     1       2.103   6.969  19.752  0.00  0.00    +0.000 C 
ENDROOT
BRANCH   1   2
ATOM      2  N   UNL     1       2.317   6.931  18.290  0.00  0.00    +0.000 NA
ATOM      3  C   UNL     1       2.904   8.166  17.773  0.00  0.00    +0.000 C 
BRANCH   2   4
ATOM      4  C   UNL     1       3.121   5.777  17.842  0.00  0.00    +0.000 C 
BRANCH   4   5
ATOM      5  C   UNL     1       4.606   5.932  18.228  0.00  0.00    +0.000 C 
BRANCH   5   6
ATOM      6  N   UNL     1       5.404   4.690  18.254  0.00  0.00    +0.000 NA
ATOM      7  C   UNL     1       6.801   4.969  18.611  0.00  0.00    +0.000 C 
BRANCH   6   8
ATOM      8  C   UNL     1       4.835   3.744  19.248  0.00  0.00    +0.000 C 
BRANCH   8   9
ATOM      9  C   UNL     1       3.806   2.745  18.657  0.00  0.00    +0.000 C 
BRANCH   9  10
ATOM     10  N   UNL     1       2.919   2.104  19.651  0.00  0.00    +0.000 NA
ATOM     11  C   UNL     1       1.556   1.863  19.146  0.00  0.00    +0.000 C 
ATOM     12  C   UNL     1       0.843   3.185  19.333  0.00  0.00    +0.000 C 
ATOM     13  C   UNL     1       1.373   3.660  20.670  0.00  0.00    +0.000 C 
ATOM     14  C   UNL     1       2.745   3.006  20.809  0.00  0.00    +0.000 C 
ENDBRANCH   9  10
ENDBRANCH   8   9
ENDBRANCH   6   8
ENDBRANCH   5   6
ENDBRANCH   4   5
ENDBRANCH   2   4
ENDBRANCH   1   2
BRANCH   1  15
ATOM     15  C   UNL     1       1.838   8.347  20.431  0.00  0.00    +0.000 C 
BRANCH  15  17
ATOM     16  C   UNL     1      -0.160   8.850  21.703  0.00  0.00    +0.000 C 
ATOM     17  N   UNL     1       0.437   8.803  20.362  0.00  0.00    +0.000 NA
BRANCH  17  18
ATOM     18  C   UNL     1       0.286  10.117  19.713  0.00  0.00    +0.000 C 
BRANCH  18  19
ATOM     19  C   UNL     1      -0.056  10.061  18.213  0.00  0.00    +0.000 C 
BRANCH  19  20
ATOM     20  C   UNL     1      -1.470  10.538  17.970  0.00  0.00    +0.000 A 
ATOM     21  C   UNL     1      -2.179  10.121  16.837  0.00  0.00    +0.000 A 
ATOM     22  C   UNL     1      -3.507  10.515  16.654  0.00  0.00    +0.000 A 
ATOM     23  C   UNL     1      -4.140  11.327  17.601  0.00  0.00    +0.000 A 
ATOM     24 CL   UNL     1      -5.791  11.753  17.320  0.00  0.00    +0.000 Cl
ATOM     25  C   UNL     1      -3.438  11.749  18.731  0.00  0.00    +0.000 A 
ATOM     26 CL   UNL     1      -4.154  12.744  19.953  0.00  0.00    +0.000 Cl
ATOM     27  C   UNL     1      -2.109  11.355  18.916  0.00  0.00    +0.000 A 
ENDBRANCH  19  20
ENDBRANCH  18  19
ENDBRANCH  17  18
ENDBRANCH  15  17
ENDBRANCH   1  15
TORSDOF 12
ENDMDL
MODEL 3
REMARK VINA RESULT:      -6.0      3.523      8.520
REMARK  Name = 
REMARK  15 active torsions:
REMARK  status: ('A' for Active; 'I' for Inactive)
REMARK    1  A    between atoms: C_1  and  N_2
REMARK    2  A    between atoms: N_2  and  C_3
REMARK    3  A    between atoms: N_2  and  C_13
REMARK    4  A    between atoms: C_3  and  C_4
REMARK    5  A    between atoms: C_4  and  C_5
REMARK    6  A    between atoms: C_13  and  C_14
REMARK    7  A    between atoms: C_14  and  N_15
REMARK    8  A    between atoms: N_15  and  C_16
REMARK    9  A    between atoms: N_15  and  C_17
REMARK   10  A    between atoms: C_17  and  C_18
REMARK   11  A    between atoms: C_18  and  N_19
REMARK   12  A    between atoms: N_19  and  C_20
REMARK   13  A    between atoms: N_19  and  C_21
REMARK   14  A    between atoms: C_21  and  C_22
REMARK   15  A    between atoms: C_22  and  N_23
REMARK                            x       y       z     vdW  Elec       q    Type
REMARK                         _______ _______ _______ _____ _____    ______ ____
ROOT
ATOM      1  C   UNL     1       1.467   5.492  20.786  0.00  0.00    +0.000 C 
ENDROOT
BRANCH   1   2
ATOM      2  N   UNL     1       2.029   4.147  20.537  0.00  0.00    +0.000 NA
ATOM      3  C   UNL     1       2.158   3.354  21.758  0.00  0.00    +0.000 C 
BRANCH   2   4
ATOM      4  C   UNL     1       1.283   3.376  19.523  0.00  0.00    +0.000 C 
BRANCH   4   5
ATOM      5  C   UNL     1       2.150   2.264  18.900  0.00  0.00    +0.000 C 
BRANCH   5   6
ATOM      6  N   UNL     1       3.142   2.699  17.897  0.00  0.00    +0.000 NA
ATOM      7  C   UNL     1       2.604   3.779  17.059  0.00  0.00    +0.000 C 
BRANCH   6   8
ATOM      8  C   UNL     1       4.369   3.187  18.578  0.00  0.00    +0.000 C 
BRANCH   8   9
ATOM      9  C   UNL     1       5.184   4.218  17.755  0.00  0.00    +0.000 C 
BRANCH   9  10
ATOM     10  N   UNL     1       5.372   5.529  18.411  0.00  0.00    +0.000 NA
ATOM     11  C   UNL     1       5.692   6.614  17.466  0.00  0.00    +0.000 C 
ATOM     12  C   UNL     1       7.183   6.491  17.237  0.00  0.00    +0.000 C 
ATOM     13  C   UNL     1       7.702   6.148  18.618  0.00  0.00    +0.000 C 
ATOM     14  C   UNL     1       6.535   5.460  19.322  0.00  0.00    +0.000 C 
ENDBRANCH   9  10
ENDBRANCH   8   9
ENDBRANCH   6   8
ENDBRANCH   5   6
ENDBRANCH   4   5
ENDBRANCH   2   4
ENDBRANCH   1   2
BRANCH   1  15
ATOM     15  C   UNL     1       2.036   6.699  19.980  0.00  0.00    +0.000 C 
BRANCH  15  17
ATOM     16  C   UNL     1       1.381   8.606  21.318  0.00  0.00    +0.000 C 
ATOM     17  N   UNL     1       1.206   7.916  20.034  0.00  0.00    +0.000 NA
BRANCH  17  18
ATOM     18  C   UNL     1       1.480   8.855  18.933  0.00  0.00    +0.000 C 
BRANCH  18  19
ATOM     19  C   UNL     1       1.106  10.321  19.224  0.00  0.00    +0.000 C 
BRANCH  19  20
ATOM     20  C   UNL     1      -0.325  10.596  18.823  0.00  0.00    +0.000 A 
ATOM     21  C   UNL     1      -1.119  11.474  19.570  0.00  0.00    +0.000 A 
ATOM     22  C   UNL     1      -2.420  11.772  19.156  0.00  0.00    +0.000 A 
ATOM     23  C   UNL     1      -2.939  11.198  17.991  0.00  0.00    +0.000 A 
ATOM     24 CL   UNL     1      -4.545  11.632  17.528  0.00  0.00    +0.000 Cl
ATOM     25  C   UNL     1      -2.154  10.318  17.244  0.00  0.00    +0.000 A 
ATOM     26 CL   UNL     1      -2.721   9.576  15.787  0.00  0.00    +0.000 Cl
ATOM     27  C   UNL     1      -0.852  10.018  17.657  0.00  0.00    +0.000 A 
ENDBRANCH  19  20
ENDBRANCH  18  19
ENDBRANCH  17  18
ENDBRANCH  15  17
ENDBRANCH   1  15
TORSDOF 12
ENDMDL
MODEL 4
REMARK VINA RESULT:      -5.9      5.120      7.854
REMARK  Name = 
REMARK  15 active torsions:
REMARK  status: ('A' for Active; 'I' for Inactive)
REMARK    1  A    between atoms: C_1  and  N_2
REMARK    2  A    between atoms: N_2  and  C_3
REMARK    3  A    between atoms: N_2  and  C_13
REMARK    4  A    between atoms: C_3  and  C_4
REMARK    5  A    between atoms: C_4  and  C_5
REMARK    6  A    between atoms: C_13  and  C_14
REMARK    7  A    between atoms: C_14  and  N_15
REMARK    8  A    between atoms: N_15  and  C_16
REMARK    9  A    between atoms: N_15  and  C_17
REMARK   10  A    between atoms: C_17  and  C_18
REMARK   11  A    between atoms: C_18  and  N_19
REMARK   12  A    between atoms: N_19  and  C_20
REMARK   13  A    between atoms: N_19  and  C_21
REMARK   14  A    between atoms: C_21  and  C_22
REMARK   15  A    between atoms: C_22  and  N_23
REMARK                            x       y       z     vdW  Elec       q    Type
REMARK                         _______ _______ _______ _____ _____    ______ ____
ROOT
ATOM      1  C   UNL     1       6.887   5.660  16.462  0.00  0.00    +0.000 C 
ENDROOT
BRANCH   1   2
ATOM      2  N   UNL     1       5.411   5.579  16.431  0.00  0.00    +0.000 NA
ATOM      3  C   UNL     1       4.797   6.723  15.761  0.00  0.00    +0.000 C 
BRANCH   2   4
ATOM      4  C   UNL     1       4.902   4.327  15.838  0.00  0.00    +0.000 C 
BRANCH   4   5
ATOM      5  C   UNL     1       4.792   3.202  16.886  0.00  0.00    +0.000 C 
BRANCH   5   6
ATOM      6  N   UNL     1       3.691   3.329  17.861  0.00  0.00    +0.000 NA
ATOM      7  C   UNL     1       2.831   2.138  17.843  0.00  0.00    +0.000 C 
BRANCH   6   8
ATOM      8  C   UNL     1       4.245   3.499  19.230  0.00  0.00    +0.000 C 
BRANCH   8   9
ATOM      9  C   UNL     1       3.617   2.556  20.290  0.00  0.00    +0.000 C 
BRANCH   9  10
ATOM     10  N   UNL     1       2.794   3.233  21.315  0.00  0.00    +0.000 NA
ATOM     11  C   UNL     1       1.458   2.635  21.478  0.00  0.00    +0.000 C 
ATOM     12  C   UNL     1       0.627   3.253  20.374  0.00  0.00    +0.000 C 
ATOM     13  C   UNL     1       1.114   4.688  20.359  0.00  0.00    +0.000 C 
ATOM     14  C   UNL     1       2.541   4.629  20.899  0.00  0.00    +0.000 C 
ENDBRANCH   9  10
ENDBRANCH   8   9
ENDBRANCH   6   8
ENDBRANCH   5   6
ENDBRANCH   4   5
ENDBRANCH   2   4
ENDBRANCH   1   2
BRANCH   1  15
ATOM     15  C   UNL     1       7.555   7.066  16.536  0.00  0.00    +0.000 C 
BRANCH  15  17
ATOM     16  C   UNL     1       8.103   6.851  18.884  0.00  0.00    +0.000 C 
ATOM     17  N   UNL     1       7.487   7.707  17.862  0.00  0.00    +0.000 NA
BRANCH  17  18
ATOM     18  C   UNL     1       8.114   9.039  17.897  0.00  0.00    +0.000 C 
BRANCH  18  19
ATOM     19  C   UNL     1       9.009   9.301  19.123  0.00  0.00    +0.000 C 
BRANCH  19  20
ATOM     20  C   UNL     1       9.586  10.697  19.074  0.00  0.00    +0.000 A 
ATOM     21  C   UNL     1      10.118  11.208  17.884  0.00  0.00    +0.000 A 
ATOM     22  C   UNL     1      10.591  12.522  17.832  0.00  0.00    +0.000 A 
ATOM     23  C   UNL     1      10.535  13.338  18.966  0.00  0.00    +0.000 A 
ATOM     24 CL   UNL     1      11.115  14.958  18.819  0.00  0.00    +0.000 Cl
ATOM     25  C   UNL     1      10.010  12.833  20.157  0.00  0.00    +0.000 A 
ATOM     26 CL   UNL     1       9.896  13.784  21.598  0.00  0.00    +0.000 Cl
ATOM     27  C   UNL     1       9.536  11.519  20.211  0.00  0.00    +0.000 A 
ENDBRANCH  19  20
ENDBRANCH  18  19
ENDBRANCH  17  18
ENDBRANCH  15  17
ENDBRANCH   1  15
TORSDOF 12
ENDMDL
MODEL 5
REMARK VINA RESULT:      -5.8      3.519      8.230
REMARK  Name = 
REMARK  15 active torsions:
REMARK  status: ('A' for Active; 'I' for Inactive)
REMARK    1  A    between atoms: C_1  and  N_2
REMARK    2  A    between atoms: N_2  and  C_3
REMARK    3  A    between atoms: N_2  and  C_13
REMARK    4  A    between atoms: C_3  and  C_4
REMARK    5  A    between atoms: C_4  and  C_5
REMARK    6  A    between atoms: C_13  and  C_14
REMARK    7  A    between atoms: C_14  and  N_15
REMARK    8  A    between atoms: N_15  and  C_16
REMARK    9  A    between atoms: N_15  and  C_17
REMARK   10  A    between atoms: C_17  and  C_18
REMARK   11  A    between atoms: C_18  and  N_19
REMARK   12  A    between atoms: N_19  and  C_20
REMARK   13  A    between atoms: N_19  and  C_21
REMARK   14  A    between atoms: C_21  and  C_22
REMARK   15  A    between atoms: C_22  and  N_23
REMARK                            x       y       z     vdW  Elec       q    Type
REMARK                         _______ _______ _______ _____ _____    ______ ____
ROOT
ATOM      1  C   UNL     1       5.284   7.131  18.006  0.00  0.00    +0.000 C 
ENDROOT
BRANCH   1   2
ATOM      2  N   UNL     1       6.617   6.906  17.408  0.00  0.00    +0.000 NA
ATOM      3  C   UNL     1       7.506   8.057  17.560  0.00  0.00    +0.000 C 
BRANCH   2   4
ATOM      4  C   UNL     1       7.291   5.692  17.910  0.00  0.00    +0.000 C 
BRANCH   4   5
ATOM      5  C   UNL     1       7.224   4.539  16.888  0.00  0.00    +0.000 C 
BRANCH   5   6
ATOM      6  N   UNL     1       6.223   4.681  15.813  0.00  0.00    +0.000 NA
ATOM      7  C   UNL     1       6.859   4.629  14.490  0.00  0.00    +0.000 C 
BRANCH   6   8
ATOM      8  C   UNL     1       5.221   3.587  15.906  0.00  0.00    +0.000 C 
BRANCH   8   9
ATOM      9  C   UNL     1       4.126   3.819  16.978  0.00  0.00    +0.000 C 
BRANCH   9  10
ATOM     10  N   UNL     1       3.946   2.707  17.936  0.00  0.00    +0.000 NA
ATOM     11  C   UNL     1       2.634   2.046  17.822  0.00  0.00    +0.000 C 
ATOM     12  C   UNL     1       1.698   2.920  18.630  0.00  0.00    +0.000 C 
ATOM     13  C   UNL     1       2.552   3.307  19.819  0.00  0.00    +0.000 C 
ATOM     14  C   UNL     1       3.991   3.235  19.316  0.00  0.00    +0.000 C 
ENDBRANCH   9  10
ENDBRANCH   8   9
ENDBRANCH   6   8
ENDBRANCH   5   6
ENDBRANCH   4   5
ENDBRANCH   2   4
ENDBRANCH   1   2
BRANCH   1  15
ATOM     15  C   UNL     1       4.088   7.456  17.060  0.00  0.00    +0.000 C 
BRANCH  15  17
ATOM     16  C   UNL     1       2.783   6.840  19.004  0.00  0.00    +0.000 C 
ATOM     17  N   UNL     1       2.788   7.592  17.742  0.00  0.00    +0.000 NA
BRANCH  17  18
ATOM     18  C   UNL     1       2.413   8.991  18.006  0.00  0.00    +0.000 C 
BRANCH  18  19
ATOM     19  C   UNL     1       0.898   9.269  17.991  0.00  0.00    +0.000 C 
BRANCH  19  20
ATOM     20  C   UNL     1       0.493  10.079  19.201  0.00  0.00    +0.000 A 
ATOM     21  C   UNL     1       0.105  11.417  19.067  0.00  0.00    +0.000 A 
ATOM     22  C   UNL     1      -0.330  12.140  20.182  0.00  0.00    +0.000 A 
ATOM     23  C   UNL     1      -0.383  11.532  21.439  0.00  0.00    +0.000 A 
ATOM     24 CL   UNL     1      -0.955  12.479  22.766  0.00  0.00    +0.000 Cl
ATOM     25  C   UNL     1       0.006  10.198  21.582  0.00  0.00    +0.000 A 
ATOM     26 CL   UNL     1      -0.043   9.373  23.102  0.00  0.00    +0.000 Cl
ATOM     27  C   UNL     1       0.441   9.475  20.467  0.00  0.00    +0.000 A 
ENDBRANCH  19  20
ENDBRANCH  18  19
ENDBRANCH  17  18
ENDBRANCH  15  17
ENDBRANCH   1  15
TORSDOF 12
ENDMDL
MODEL 6
REMARK VINA RESULT:      -5.8      4.016      8.811
REMARK  Name = 
REMARK  15 active torsions:
REMARK  status: ('A' for Active; 'I' for Inactive)
REMARK    1  A    between atoms: C_1  and  N_2
REMARK    2  A    between atoms: N_2  and  C_3
REMARK    3  A    between atoms: N_2  and  C_13
REMARK    4  A    between atoms: C_3  and  C_4
REMARK    5  A    between atoms: C_4  and  C_5
REMARK    6  A    between atoms: C_13  and  C_14
REMARK    7  A    between atoms: C_14  and  N_15
REMARK    8  A    between atoms: N_15  and  C_16
REMARK    9  A    between atoms: N_15  and  C_17
REMARK   10  A    between atoms: C_17  and  C_18
REMARK   11  A    between atoms: C_18  and  N_19
REMARK   12  A    between atoms: N_19  and  C_20
REMARK   13  A    between atoms: N_19  and  C_21
REMARK   14  A    between atoms: C_21  and  C_22
REMARK   15  A    between atoms: C_22  and  N_23
REMARK                            x       y       z     vdW  Elec       q    Type
REMARK                         _______ _______ _______ _____ _____    ______ ____
ROOT
ATOM      1  C   UNL     1       1.727   5.970  19.266  0.00  0.00    +0.000 C 
ENDROOT
BRANCH   1   2
ATOM      2  N   UNL     1       1.634   4.891  20.272  0.00  0.00    +0.000 NA
ATOM      3  C   UNL     1       0.837   3.756  19.811  0.00  0.00    +0.000 C 
BRANCH   2   4
ATOM      4  C   UNL     1       2.948   4.412  20.744  0.00  0.00    +0.000 C 
BRANCH   4   5
ATOM      5  C   UNL     1       4.062   4.697  19.716  0.00  0.00    +0.000 C 
BRANCH   5   6
ATOM      6  N   UNL     1       4.866   3.534  19.291  0.00  0.00    +0.000 NA
ATOM      7  C   UNL     1       4.207   2.274  19.662  0.00  0.00    +0.000 C 
BRANCH   6   8
ATOM      8  C   UNL     1       5.054   3.560  17.817  0.00  0.00    +0.000 C 
BRANCH   8   9
ATOM      9  C   UNL     1       5.365   4.966  17.243  0.00  0.00    +0.000 C 
BRANCH   9  10
ATOM     10  N   UNL     1       6.781   5.192  16.884  0.00  0.00    +0.000 NA
ATOM     11  C   UNL     1       7.727   4.654  17.877  0.00  0.00    +0.000 C 
ATOM     12  C   UNL     1       7.806   5.724  18.945  0.00  0.00    +0.000 C 
ATOM     13  C   UNL     1       7.787   7.003  18.134  0.00  0.00    +0.000 C 
ATOM     14  C   UNL     1       7.052   6.645  16.845  0.00  0.00    +0.000 C 
ENDBRANCH   9  10
ENDBRANCH   8   9
ENDBRANCH   6   8
ENDBRANCH   5   6
ENDBRANCH   4   5
ENDBRANCH   2   4
ENDBRANCH   1   2
BRANCH   1  15
ATOM     15  C   UNL     1       2.021   7.422  19.754  0.00  0.00    +0.000 C 
BRANCH  15  17
ATOM     16  C   UNL     1       3.126   7.662  17.613  0.00  0.00    +0.000 C 
ATOM     17  N   UNL     1       2.404   8.361  18.684  0.00  0.00    +0.000 NA
BRANCH  17  18
ATOM     18  C   UNL     1       1.257   9.085  18.109  0.00  0.00    +0.000 C 
BRANCH  18  19
ATOM     19  C   UNL     1       0.585  10.092  19.061  0.00  0.00    +0.000 C 
BRANCH  19  20
ATOM     20  C   UNL     1      -0.789  10.467  18.557  0.00  0.00    +0.000 A 
ATOM     21  C   UNL     1      -1.316   9.867  17.407  0.00  0.00    +0.000 A 
ATOM     22  C   UNL     1      -2.613  10.172  16.984  0.00  0.00    +0.000 A 
ATOM     23  C   UNL     1      -3.396  11.078  17.707  0.00  0.00    +0.000 A 
ATOM     24 CL   UNL     1      -4.998  11.387  17.139  0.00  0.00    +0.000 Cl
ATOM     25  C   UNL     1      -2.875  11.683  18.853  0.00  0.00    +0.000 A 
ATOM     26 CL   UNL     1      -3.786  12.804  19.806  0.00  0.00    +0.000 Cl
ATOM     27  C   UNL     1      -1.578  11.378  19.276  0.00  0.00    +0.000 A 
ENDBRANCH  19  20
ENDBRANCH  18  19
ENDBRANCH  17  18
ENDBRANCH  15  17
ENDBRANCH   1  15
TORSDOF 12
ENDMDL
MODEL 7
REMARK VINA RESULT:      -5.8      4.658      9.658
REMARK  Name = 
REMARK  15 active torsions:
REMARK  status: ('A' for Active; 'I' for Inactive)
REMARK    1  A    between atoms: C_1  and  N_2
REMARK    2  A    between atoms: N_2  and  C_3
REMARK    3  A    between atoms: N_2  and  C_13
REMARK    4  A    between atoms: C_3  and  C_4
REMARK    5  A    between atoms: C_4  and  C_5
REMARK    6  A    between atoms: C_13  and  C_14
REMARK    7  A    between atoms: C_14  and  N_15
REMARK    8  A    between atoms: N_15  and  C_16
REMARK    9  A    between atoms: N_15  and  C_17
REMARK   10  A    between atoms: C_17  and  C_18
REMARK   11  A    between atoms: C_18  and  N_19
REMARK   12  A    between atoms: N_19  and  C_20
REMARK   13  A    between atoms: N_19  and  C_21
REMARK   14  A    between atoms: C_21  and  C_22
REMARK   15  A    between atoms: C_22  and  N_23
REMARK                            x       y       z     vdW  Elec       q    Type
REMARK                         _______ _______ _______ _____ _____    ______ ____
ROOT
ATOM      1  C   UNL     1       1.118   9.121  19.873  0.00  0.00    +0.000 C 
ENDROOT
BRANCH   1   2
ATOM      2  N   UNL     1       2.081   8.002  19.802  0.00  0.00    +0.000 NA
ATOM      3  C   UNL     1       1.655   6.839  20.579  0.00  0.00    +0.000 C 
BRANCH   2   4
ATOM      4  C   UNL     1       2.398   7.585  18.422  0.00  0.00    +0.000 C 
BRANCH   4   5
ATOM      5  C   UNL     1       2.539   6.053  18.307  0.00  0.00    +0.000 C 
BRANCH   5   6
ATOM      6  N   UNL     1       3.667   5.565  17.491  0.00  0.00    +0.000 NA
ATOM      7  C   UNL     1       4.662   6.625  17.279  0.00  0.00    +0.000 C 
BRANCH   6   8
ATOM      8  C   UNL     1       4.326   4.419  18.172  0.00  0.00    +0.000 C 
BRANCH   8   9
ATOM      9  C   UNL     1       3.797   4.144  19.603  0.00  0.00    +0.000 C 
BRANCH   9  10
ATOM     10  N   UNL     1       3.257   2.784  19.816  0.00  0.00    +0.000 NA
ATOM     11  C   UNL     1       2.030   2.517  19.045  0.00  0.00    +0.000 C 
ATOM     12  C   UNL     1       0.918   3.112  19.881  0.00  0.00    +0.000 C 
ATOM     13  C   UNL     1       1.340   2.758  21.292  0.00  0.00    +0.000 C 
ATOM     14  C   UNL     1       2.860   2.629  21.232  0.00  0.00    +0.000 C 
ENDBRANCH   9  10
ENDBRANCH   8   9
ENDBRANCH   6   8
ENDBRANCH   5   6
ENDBRANCH   4   5
ENDBRANCH   2   4
ENDBRANCH   1   2
BRANCH   1  15
ATOM     15  C   UNL     1       1.228  10.267  18.822  0.00  0.00    +0.000 C 
BRANCH  15  17
ATOM     16  C   UNL     1       2.145  12.479  18.472  0.00  0.00    +0.000 C 
ATOM     17  N   UNL     1       1.407  11.612  19.399  0.00  0.00    +0.000 NA
BRANCH  17  18
ATOM     18  C   UNL     1       0.137  12.259  19.769  0.00  0.00    +0.000 C 
BRANCH  18  19
ATOM     19  C   UNL     1      -0.209  12.194  21.269  0.00  0.00    +0.000 C 
BRANCH  19  20
ATOM     20  C   UNL     1      -1.683  12.445  21.488  0.00  0.00    +0.000 A 
ATOM     21  C   UNL     1      -2.532  12.702  20.405  0.00  0.00    +0.000 A 
ATOM     22  C   UNL     1      -3.904  12.870  20.610  0.00  0.00    +0.000 A 
ATOM     23  C   UNL     1      -4.441  12.779  21.898  0.00  0.00    +0.000 A 
ATOM     24 CL   UNL     1      -6.149  12.972  22.071  0.00  0.00    +0.000 Cl
ATOM     25  C   UNL     1      -3.600  12.526  22.983  0.00  0.00    +0.000 A 
ATOM     26 CL   UNL     1      -4.190  12.389  24.604  0.00  0.00    +0.000 Cl
ATOM     27  C   UNL     1      -2.227  12.359  22.779  0.00  0.00    +0.000 A 
ENDBRANCH  19  20
ENDBRANCH  18  19
ENDBRANCH  17  18
ENDBRANCH  15  17
ENDBRANCH   1  15
TORSDOF 12
ENDMDL
MODEL 8
REMARK VINA RESULT:      -5.7      3.833      8.567
REMARK  Name = 
REMARK  15 active torsions:
REMARK  status: ('A' for Active; 'I' for Inactive)
REMARK    1  A    between atoms: C_1  and  N_2
REMARK    2  A    between atoms: N_2  and  C_3
REMARK    3  A    between atoms: N_2  and  C_13
REMARK    4  A    between atoms: C_3  and  C_4
REMARK    5  A    between atoms: C_4  and  C_5
REMARK    6  A    between atoms: C_13  and  C_14
REMARK    7  A    between atoms: C_14  and  N_15
REMARK    8  A    between atoms: N_15  and  C_16
REMARK    9  A    between atoms: N_15  and  C_17
REMARK   10  A    between atoms: C_17  and  C_18
REMARK   11  A    between atoms: C_18  and  N_19
REMARK   12  A    between atoms: N_19  and  C_20
REMARK   13  A    between atoms: N_19  and  C_21
REMARK   14  A    between atoms: C_21  and  C_22
REMARK   15  A    between atoms: C_22  and  N_23
REMARK                            x       y       z     vdW  Elec       q    Type
REMARK                         _______ _______ _______ _____ _____    ______ ____
ROOT
ATOM      1  C   UNL     1       2.235   4.777  21.220  0.00  0.00    +0.000 C 
ENDROOT
BRANCH   1   2
ATOM      2  N   UNL     1       1.820   3.373  21.015  0.00  0.00    +0.000 NA
ATOM      3  C   UNL     1       0.665   3.249  20.128  0.00  0.00    +0.000 C 
BRANCH   2   4
ATOM      4  C   UNL     1       2.910   2.501  20.533  0.00  0.00    +0.000 C 
BRANCH   4   5
ATOM      5  C   UNL     1       2.646   1.999  19.100  0.00  0.00    +0.000 C 
BRANCH   5   6
ATOM      6  N   UNL     1       3.452   2.626  18.033  0.00  0.00    +0.000 NA
ATOM      7  C   UNL     1       2.602   3.397  17.116  0.00  0.00    +0.000 C 
BRANCH   6   8
ATOM      8  C   UNL     1       4.462   3.537  18.632  0.00  0.00    +0.000 C 
BRANCH   8   9
ATOM      9  C   UNL     1       5.147   4.482  17.611  0.00  0.00    +0.000 C 
BRANCH   9  10
ATOM     10  N   UNL     1       6.266   3.877  16.857  0.00  0.00    +0.000 NA
ATOM     11  C   UNL     1       7.470   4.725  16.820  0.00  0.00    +0.000 C 
ATOM     12  C   UNL     1       7.213   5.702  15.693  0.00  0.00    +0.000 C 
ATOM     13  C   UNL     1       6.538   4.834  14.652  0.00  0.00    +0.000 C 
ATOM     14  C   UNL     1       5.872   3.709  15.442  0.00  0.00    +0.000 C 
ENDBRANCH   9  10
ENDBRANCH   8   9
ENDBRANCH   6   8
ENDBRANCH   5   6
ENDBRANCH   4   5
ENDBRANCH   2   4
ENDBRANCH   1   2
BRANCH   1  15
ATOM     15  C   UNL     1       1.450   5.902  20.478  0.00  0.00    +0.000 C 
BRANCH  15  17
ATOM     16  C   UNL     1       2.530   6.871  18.540  0.00  0.00    +0.000 C 
ATOM     17  N   UNL     1       2.289   7.008  19.982  0.00  0.00    +0.000 NA
BRANCH  17  18
ATOM     18  C   UNL     1       1.719   8.338  20.258  0.00  0.00    +0.000 C 
BRANCH  18  19
ATOM     19  C   UNL     1       1.267   9.120  19.010  0.00  0.00    +0.000 C 
BRANCH  19  20
ATOM     20  C   UNL     1       0.125  10.050  19.347  0.00  0.00    +0.000 A 
ATOM     21  C   UNL     1       0.070  10.692  20.590  0.00  0.00    +0.000 A 
ATOM     22  C   UNL     1      -0.956  11.599  20.868  0.00  0.00    +0.000 A 
ATOM     23  C   UNL     1      -1.934  11.876  19.908  0.00  0.00    +0.000 A 
ATOM     24 CL   UNL     1      -3.156  13.028  20.314  0.00  0.00    +0.000 Cl
ATOM     25  C   UNL     1      -1.887  11.237  18.667  0.00  0.00    +0.000 A 
ATOM     26 CL   UNL     1      -3.053  11.534  17.424  0.00  0.00    +0.000 Cl
ATOM     27  C   UNL     1      -0.862  10.328  18.388  0.00  0.00    +0.000 A 
ENDBRANCH  19  20
ENDBRANCH  18  19
ENDBRANCH  17  18
ENDBRANCH  15  17
ENDBRANCH   1  15
TORSDOF 12
ENDMDL
MODEL 9
REMARK VINA RESULT:      -5.7      3.903      8.683
REMARK  Name = 
REMARK  15 active torsions:
REMARK  status: ('A' for Active; 'I' for Inactive)
REMARK    1  A    between atoms: C_1  and  N_2
REMARK    2  A    between atoms: N_2  and  C_3
REMARK    3  A    between atoms: N_2  and  C_13
REMARK    4  A    between atoms: C_3  and  C_4
REMARK    5  A    between atoms: C_4  and  C_5
REMARK    6  A    between atoms: C_13  and  C_14
REMARK    7  A    between atoms: C_14  and  N_15
REMARK    8  A    between atoms: N_15  and  C_16
REMARK    9  A    between atoms: N_15  and  C_17
REMARK   10  A    between atoms: C_17  and  C_18
REMARK   11  A    between atoms: C_18  and  N_19
REMARK   12  A    between atoms: N_19  and  C_20
REMARK   13  A    between atoms: N_19  and  C_21
REMARK   14  A    between atoms: C_21  and  C_22
REMARK   15  A    between atoms: C_22  and  N_23
REMARK                            x       y       z     vdW  Elec       q    Type
REMARK                         _______ _______ _______ _____ _____    ______ ____
ROOT
ATOM      1  C   UNL     1       2.884   5.359  20.250  0.00  0.00    +0.000 C 
ENDROOT
BRANCH   1   2
ATOM      2  N   UNL     1       2.350   4.112  20.837  0.00  0.00    +0.000 NA
ATOM      3  C   UNL     1       0.990   3.815  20.390  0.00  0.00    +0.000 C 
BRANCH   2   4
ATOM      4  C   UNL     1       3.213   2.936  20.607  0.00  0.00    +0.000 C 
BRANCH   4   5
ATOM      5  C   UNL     1       4.303   3.226  19.556  0.00  0.00    +0.000 C 
BRANCH   5   6
ATOM      6  N   UNL     1       4.110   2.603  18.232  0.00  0.00    +0.000 NA
ATOM      7  C   UNL     1       3.296   1.385  18.336  0.00  0.00    +0.000 C 
BRANCH   6   8
ATOM      8  C   UNL     1       3.429   3.557  17.318  0.00  0.00    +0.000 C 
BRANCH   8   9
ATOM      9  C   UNL     1       4.395   4.378  16.424  0.00  0.00    +0.000 C 
BRANCH   9  10
ATOM     10  N   UNL     1       5.714   3.752  16.194  0.00  0.00    +0.000 NA
ATOM     11  C   UNL     1       6.819   4.458  16.866  0.00  0.00    +0.000 C 
ATOM     12  C   UNL     1       7.171   5.593  15.929  0.00  0.00    +0.000 C 
ATOM     13  C   UNL     1       7.046   4.946  14.565  0.00  0.00    +0.000 C 
ATOM     14  C   UNL     1       6.041   3.812  14.754  0.00  0.00    +0.000 C 
ENDBRANCH   9  10
ENDBRANCH   8   9
ENDBRANCH   6   8
ENDBRANCH   5   6
ENDBRANCH   4   5
ENDBRANCH   2   4
ENDBRANCH   1   2
BRANCH   1  15
ATOM     15  C   UNL     1       1.881   6.384  19.638  0.00  0.00    +0.000 C 
BRANCH  15  17
ATOM     16  C   UNL     1       3.012   7.543  17.838  0.00  0.00    +0.000 C 
ATOM     17  N   UNL     1       2.492   7.655  19.207  0.00  0.00    +0.000 NA
BRANCH  17  18
ATOM     18  C   UNL     1       1.569   8.800  19.288  0.00  0.00    +0.000 C 
BRANCH  18  19
ATOM     19  C   UNL     1       0.890   8.987  20.657  0.00  0.00    +0.000 C 
BRANCH  19  20
ATOM     20  C   UNL     1      -0.058  10.164  20.626  0.00  0.00    +0.000 A 
ATOM     21  C   UNL     1      -0.813  10.443  19.481  0.00  0.00    +0.000 A 
ATOM     22  C   UNL     1      -1.734  11.494  19.483  0.00  0.00    +0.000 A 
ATOM     23  C   UNL     1      -1.911  12.275  20.629  0.00  0.00    +0.000 A 
ATOM     24 CL   UNL     1      -3.085  13.540  20.566  0.00  0.00    +0.000 Cl
ATOM     25  C   UNL     1      -1.159  12.005  21.774  0.00  0.00    +0.000 A 
ATOM     26 CL   UNL     1      -1.329  12.918  23.234  0.00  0.00    +0.000 Cl
ATOM     27  C   UNL     1      -0.237  10.954  21.773  0.00  0.00    +0.000 A 
ENDBRANCH  19  20
ENDBRANCH  18  19
ENDBRANCH  17  18
ENDBRANCH  15  17
ENDBRANCH   1  15
TORSDOF 12
ENDMDL
