MODEL 1
REMARK VINA RESULT:      -9.7      0.000      0.000
REMARK  Name = 
REMARK  10 active torsions:
REMARK  status: ('A' for Active; 'I' for Inactive)
REMARK    1  A    between atoms: C_1  and  C_2
REMARK    2  A    between atoms: C_2  and  N_3
REMARK    3  A    between atoms: C_2  and  C_31
REMARK    4  A    between atoms: N_3  and  C_4
REMARK    5  A    between atoms: C_10  and  C_11
REMARK    6  A    between atoms: C_14  and  N_15
REMARK    7  A    between atoms: N_15  and  C_16
REMARK    8  A    between atoms: C_16  and  C_17
REMARK    9  A    between atoms: C_20  and  C_21
REMARK   10  A    between atoms: N_23  and  O_24
REMARK                            x       y       z     vdW  Elec       q    Type
REMARK                         _______ _______ _______ _____ _____    ______ ____
ROOT
ATOM      1  C   UNL     1       2.141   8.211  18.760  0.00  0.00    +0.000 A 
ATOM      2  C   UNL     1       1.749   8.112  20.099  0.00  0.00    +0.000 A 
ATOM      3  C   UNL     1       0.774   8.970  20.622  0.00  0.00    +0.000 A 
ATOM      4  C   UNL     1       0.190   9.969  19.837  0.00  0.00    +0.000 A 
ATOM      5  C   UNL     1       0.590  10.061  18.500  0.00  0.00    +0.000 A 
ATOM      6  C   UNL     1       1.560   9.203  17.969  0.00  0.00    +0.000 A 
ENDROOT
BRANCH   1  13
ATOM      7  C   UNL     1       5.227   4.356  17.497  0.00  0.00    +0.000 A 
ATOM      8  N   UNL     1       6.082   4.294  16.449  0.00  0.00    +0.000 NA
ATOM      9  C   UNL     1       6.163   5.355  15.616  0.00  0.00    +0.000 A 
ATOM     10  N   UNL     1       5.499   6.520  15.685  0.00  0.00    +0.000 NA
ATOM     11  C   UNL     1       4.676   6.540  16.742  0.00  0.00    +0.000 A 
ATOM     12  N   UNL     1       3.856   7.581  17.067  0.00  0.00    +0.000 N 
ATOM     13  C   UNL     1       3.111   7.281  18.188  0.00  0.00    +0.000 A 
ATOM     14  C   UNL     1       3.512   6.016  18.594  0.00  0.00    +0.000 A 
ATOM     15  C   UNL     1       4.490   5.538  17.676  0.00  0.00    +0.000 A 
ATOM     16  H   UNL     1       3.817   8.444  16.546  0.00  0.00    +0.000 HD
BRANCH   7  17
ATOM     17  N   UNL     1       5.063   3.270  18.367  0.00  0.00    +0.000 N 
ATOM     18  H   UNL     1       5.908   2.707  18.293  0.00  0.00    +0.000 HD
BRANCH  17  20
ATOM     19  C   UNL     1       3.134   2.871  16.855  0.00  0.00    +0.000 C 
ATOM     20  C   UNL     1       3.891   2.422  18.114  0.00  0.00    +0.000 C 
BRANCH  20  21
ATOM     21  C   UNL     1       2.918   2.533  19.287  0.00  0.00    +0.000 A 
ATOM     22  C   UNL     1       1.569   2.843  19.048  0.00  0.00    +0.000 A 
ATOM     23  C   UNL     1       0.693   3.082  20.110  0.00  0.00    +0.000 A 
ATOM     24  C   UNL     1       1.151   3.006  21.424  0.00  0.00    +0.000 A 
ATOM     25  C   UNL     1       2.482   2.684  21.679  0.00  0.00    +0.000 A 
ATOM     26  C   UNL     1       3.361   2.455  20.619  0.00  0.00    +0.000 A 
ENDBRANCH  20  21
ENDBRANCH  17  20
ENDBRANCH   7  17
ENDBRANCH   1  13
BRANCH   4  27
ATOM     27  N   UNL     1      -0.831  10.744  20.380  0.00  0.00    +0.000 N 
ATOM     28  H   UNL     1      -1.704  10.252  20.535  0.00  0.00    +0.000 HD
BRANCH  27  29
ATOM     29  C   UNL     1      -0.548  11.752  21.393  0.00  0.00    +0.000 C 
BRANCH  29  30
ATOM     30  C   UNL     1      -1.828  12.282  22.005  0.00  0.00    +0.000 A 
ATOM     31  C   UNL     1      -2.623  13.188  21.296  0.00  0.00    +0.000 A 
ATOM     32  C   UNL     1      -3.824  13.656  21.842  0.00  0.00    +0.000 A 
ATOM     33  C   UNL     1      -4.258  13.219  23.103  0.00  0.00    +0.000 A 
ATOM     34  C   UNL     1      -3.473  12.299  23.805  0.00  0.00    +0.000 A 
ATOM     35  C   UNL     1      -2.276  11.831  23.256  0.00  0.00    +0.000 A 
BRANCH  33  36
ATOM     36  C   UNL     1      -5.534  13.766  23.642  0.00  0.00    +0.000 C 
ATOM     37  O   UNL     1      -5.867  14.933  23.431  0.00  0.00    +0.000 OA
ATOM     38  N   UNL     1      -6.335  12.925  24.381  0.00  0.00    +0.000 N 
ATOM     39  H   UNL     1      -6.211  11.929  24.518  0.00  0.00    +0.000 HD
BRANCH  38  40
ATOM     40  O   UNL     1      -7.551  13.474  24.843  0.00  0.00    +0.000 OA
ATOM     41  H   UNL     1      -7.315  14.422  24.956  0.00  0.00    +0.000 HD
ENDBRANCH  38  40
ENDBRANCH  33  36
ENDBRANCH  29  30
ENDBRANCH  27  29
ENDBRANCH   4  27
TORSDOF 9
ENDMDL
MODEL 2
REMARK VINA RESULT:      -9.7      0.307      1.411
REMARK  Name = 
REMARK  10 active torsions:
REMARK  status: ('A' for Active; 'I' for Inactive)
REMARK    1  A    between atoms: C_1  and  C_2
REMARK    2  A    between atoms: C_2  and  N_3
REMARK    3  A    between atoms: C_2  and  C_31
REMARK    4  A    between atoms: N_3  and  C_4
REMARK    5  A    between atoms: C_10  and  C_11
REMARK    6  A    between atoms: C_14  and  N_15
REMARK    7  A    between atoms: N_15  and  C_16
REMARK    8  A    between atoms: C_16  and  C_17
REMARK    9  A    between atoms: C_20  and  C_21
REMARK   10  A    between atoms: N_23  and  O_24
REMARK                            x       y       z     vdW  Elec       q    Type
REMARK                         _______ _______ _______ _____ _____    ______ ____
ROOT
ATOM      1  C   UNL     1       2.076   8.197  18.751  0.00  0.00    +0.000 A 
ATOM      2  C   UNL     1       1.450   9.114  17.900  0.00  0.00    +0.000 A 
ATOM      3  C   UNL     1       0.491  10.005  18.394  0.00  0.00    +0.000 A 
ATOM      4  C   UNL     1       0.105   9.985  19.739  0.00  0.00    +0.000 A 
ATOM      5  C   UNL     1       0.736   9.063  20.581  0.00  0.00    +0.000 A 
ATOM      6  C   UNL     1       1.700   8.173  20.095  0.00  0.00    +0.000 A 
ENDROOT
BRANCH   1  13
ATOM      7  C   UNL     1       5.444   4.495  17.788  0.00  0.00    +0.000 A 
ATOM      8  N   UNL     1       6.339   4.437  16.773  0.00  0.00    +0.000 NA
ATOM      9  C   UNL     1       6.382   5.459  15.890  0.00  0.00    +0.000 A 
ATOM     10  N   UNL     1       5.643   6.580  15.878  0.00  0.00    +0.000 NA
ATOM     11  C   UNL     1       4.783   6.598  16.905  0.00  0.00    +0.000 A 
ATOM     12  N   UNL     1       3.888   7.598  17.149  0.00  0.00    +0.000 N 
ATOM     13  C   UNL     1       3.123   7.305  18.259  0.00  0.00    +0.000 A 
ATOM     14  C   UNL     1       3.589   6.091  18.741  0.00  0.00    +0.000 A 
ATOM     15  C   UNL     1       4.628   5.633  17.882  0.00  0.00    +0.000 A 
ATOM     16  H   UNL     1       3.812   8.430  16.584  0.00  0.00    +0.000 HD
BRANCH   7  17
ATOM     17  N   UNL     1       5.319   3.444  18.706  0.00  0.00    +0.000 N 
ATOM     18  H   UNL     1       6.203   2.940  18.696  0.00  0.00    +0.000 HD
BRANCH  17  20
ATOM     19  C   UNL     1       3.617   2.708  17.054  0.00  0.00    +0.000 C 
ATOM     20  C   UNL     1       4.221   2.503  18.452  0.00  0.00    +0.000 C 
BRANCH  20  21
ATOM     21  C   UNL     1       3.101   2.738  19.465  0.00  0.00    +0.000 A 
ATOM     22  C   UNL     1       3.380   2.670  20.841  0.00  0.00    +0.000 A 
ATOM     23  C   UNL     1       2.350   2.747  21.781  0.00  0.00    +0.000 A 
ATOM     24  C   UNL     1       1.030   2.900  21.362  0.00  0.00    +0.000 A 
ATOM     25  C   UNL     1       0.738   2.984  20.003  0.00  0.00    +0.000 A 
ATOM     26  C   UNL     1       1.764   2.898  19.061  0.00  0.00    +0.000 A 
ENDBRANCH  20  21
ENDBRANCH  17  20
ENDBRANCH   7  17
ENDBRANCH   1  13
BRANCH   4  27
ATOM     27  N   UNL     1      -0.793  10.943  20.198  0.00  0.00    +0.000 N 
ATOM     28  H   UNL     1      -1.751  10.813  19.890  0.00  0.00    +0.000 HD
BRANCH  27  29
ATOM     29  C   UNL     1      -0.688  11.482  21.548  0.00  0.00    +0.000 C 
BRANCH  29  30
ATOM     30  C   UNL     1      -2.017  12.038  22.016  0.00  0.00    +0.000 A 
ATOM     31  C   UNL     1      -2.372  11.966  23.367  0.00  0.00    +0.000 A 
ATOM     32  C   UNL     1      -3.583  12.508  23.812  0.00  0.00    +0.000 A 
ATOM     33  C   UNL     1      -4.459  13.141  22.916  0.00  0.00    +0.000 A 
ATOM     34  C   UNL     1      -4.096  13.230  21.569  0.00  0.00    +0.000 A 
ATOM     35  C   UNL     1      -2.884  12.691  21.128  0.00  0.00    +0.000 A 
BRANCH  33  36
ATOM     36  C   UNL     1      -5.743  13.682  23.442  0.00  0.00    +0.000 C 
ATOM     37  O   UNL     1      -6.202  14.748  23.031  0.00  0.00    +0.000 OA
ATOM     38  N   UNL     1      -6.405  12.951  24.402  0.00  0.00    +0.000 N 
ATOM     39  H   UNL     1      -6.175  12.019  24.725  0.00  0.00    +0.000 HD
BRANCH  38  40
ATOM     40  O   UNL     1      -7.634  13.482  24.848  0.00  0.00    +0.000 OA
ATOM     41  H   UNL     1      -7.950  13.963  24.050  0.00  0.00    +0.000 HD
ENDBRANCH  38  40
ENDBRANCH  33  36
ENDBRANCH  29  30
ENDBRANCH  27  29
ENDBRANCH   4  27
TORSDOF 9
ENDMDL
MODEL 3
REMARK VINA RESULT:      -9.6      0.631      1.016
REMARK  Name = 
REMARK  10 active torsions:
REMARK  status: ('A' for Active; 'I' for Inactive)
REMARK    1  A    between atoms: C_1  and  C_2
REMARK    2  A    between atoms: C_2  and  N_3
REMARK    3  A    between atoms: C_2  and  C_31
REMARK    4  A    between atoms: N_3  and  C_4
REMARK    5  A    between atoms: C_10  and  C_11
REMARK    6  A    between atoms: C_14  and  N_15
REMARK    7  A    between atoms: N_15  and  C_16
REMARK    8  A    between atoms: C_16  and  C_17
REMARK    9  A    between atoms: C_20  and  C_21
REMARK   10  A    between atoms: N_23  and  O_24
REMARK                            x       y       z     vdW  Elec       q    Type
REMARK                         _______ _______ _______ _____ _____    ______ ____
ROOT
ATOM      1  C   UNL     1       2.193   8.163  18.668  0.00  0.00    +0.000 A 
ATOM      2  C   UNL     1       1.606   9.060  17.769  0.00  0.00    +0.000 A 
ATOM      3  C   UNL     1       0.636   9.971  18.202  0.00  0.00    +0.000 A 
ATOM      4  C   UNL     1       0.200   9.991  19.531  0.00  0.00    +0.000 A 
ATOM      5  C   UNL     1       0.791   9.088  20.422  0.00  0.00    +0.000 A 
ATOM      6  C   UNL     1       1.766   8.179  19.997  0.00  0.00    +0.000 A 
ENDROOT
BRANCH   1  13
ATOM      7  C   UNL     1       5.550   4.402  17.919  0.00  0.00    +0.000 A 
ATOM      8  N   UNL     1       6.497   4.321  16.954  0.00  0.00    +0.000 NA
ATOM      9  C   UNL     1       6.603   5.334  16.066  0.00  0.00    +0.000 A 
ATOM     10  N   UNL     1       5.883   6.466  16.005  0.00  0.00    +0.000 NA
ATOM     11  C   UNL     1       4.970   6.506  16.984  0.00  0.00    +0.000 A 
ATOM     12  N   UNL     1       4.079   7.522  17.171  0.00  0.00    +0.000 N 
ATOM     13  C   UNL     1       3.251   7.251  18.240  0.00  0.00    +0.000 A 
ATOM     14  C   UNL     1       3.671   6.034  18.758  0.00  0.00    +0.000 A 
ATOM     15  C   UNL     1       4.747   5.553  17.960  0.00  0.00    +0.000 A 
ATOM     16  H   UNL     1       4.046   8.350  16.595  0.00  0.00    +0.000 HD
BRANCH   7  17
ATOM     17  N   UNL     1       5.359   3.362  18.838  0.00  0.00    +0.000 N 
ATOM     18  H   UNL     1       6.250   2.877  18.921  0.00  0.00    +0.000 HD
BRANCH  17  20
ATOM     19  C   UNL     1       3.753   2.643  17.085  0.00  0.00    +0.000 C 
ATOM     20  C   UNL     1       4.310   2.392  18.495  0.00  0.00    +0.000 C 
BRANCH  20  21
ATOM     21  C   UNL     1       3.144   2.535  19.472  0.00  0.00    +0.000 A 
ATOM     22  C   UNL     1       1.847   2.766  18.982  0.00  0.00    +0.000 A 
ATOM     23  C   UNL     1       0.792   3.033  19.857  0.00  0.00    +0.000 A 
ATOM     24  C   UNL     1       1.015   3.065  21.232  0.00  0.00    +0.000 A 
ATOM     25  C   UNL     1       2.291   2.823  21.736  0.00  0.00    +0.000 A 
ATOM     26  C   UNL     1       3.349   2.565  20.862  0.00  0.00    +0.000 A 
ENDBRANCH  20  21
ENDBRANCH  17  20
ENDBRANCH   7  17
ENDBRANCH   1  13
BRANCH   4  27
ATOM     27  N   UNL     1      -0.708  10.967  19.929  0.00  0.00    +0.000 N 
ATOM     28  H   UNL     1      -1.666  10.803  19.640  0.00  0.00    +0.000 HD
BRANCH  27  29
ATOM     29  C   UNL     1      -0.599  11.602  21.237  0.00  0.00    +0.000 C 
BRANCH  29  30
ATOM     30  C   UNL     1      -1.952  12.080  21.723  0.00  0.00    +0.000 A 
ATOM     31  C   UNL     1      -2.884  12.593  20.814  0.00  0.00    +0.000 A 
ATOM     32  C   UNL     1      -4.148  13.006  21.251  0.00  0.00    +0.000 A 
ATOM     33  C   UNL     1      -4.508  12.903  22.604  0.00  0.00    +0.000 A 
ATOM     34  C   UNL     1      -3.584  12.373  23.510  0.00  0.00    +0.000 A 
ATOM     35  C   UNL     1      -2.324  11.960  23.070  0.00  0.00    +0.000 A 
BRANCH  33  36
ATOM     36  C   UNL     1      -5.859  13.376  23.015  0.00  0.00    +0.000 C 
ATOM     37  O   UNL     1      -6.838  13.224  22.282  0.00  0.00    +0.000 OA
ATOM     38  N   UNL     1      -5.984  13.985  24.242  0.00  0.00    +0.000 N 
ATOM     39  H   UNL     1      -5.274  14.059  24.961  0.00  0.00    +0.000 HD
BRANCH  38  40
ATOM     40  O   UNL     1      -7.287  14.387  24.607  0.00  0.00    +0.000 OA
ATOM     41  H   UNL     1      -7.355  14.045  25.526  0.00  0.00    +0.000 HD
ENDBRANCH  38  40
ENDBRANCH  33  36
ENDBRANCH  29  30
ENDBRANCH  27  29
ENDBRANCH   4  27
TORSDOF 9
ENDMDL
MODEL 4
REMARK VINA RESULT:      -9.5      3.568      4.793
REMARK  Name = 
REMARK  10 active torsions:
REMARK  status: ('A' for Active; 'I' for Inactive)
REMARK    1  A    between atoms: C_1  and  C_2
REMARK    2  A    between atoms: C_2  and  N_3
REMARK    3  A    between atoms: C_2  and  C_31
REMARK    4  A    between atoms: N_3  and  C_4
REMARK    5  A    between atoms: C_10  and  C_11
REMARK    6  A    between atoms: C_14  and  N_15
REMARK    7  A    between atoms: N_15  and  C_16
REMARK    8  A    between atoms: C_16  and  C_17
REMARK    9  A    between atoms: C_20  and  C_21
REMARK   10  A    between atoms: N_23  and  O_24
REMARK                            x       y       z     vdW  Elec       q    Type
REMARK                         _______ _______ _______ _____ _____    ______ ____
ROOT
ATOM      1  C   UNL     1       2.387   8.271  18.443  0.00  0.00    +0.000 A 
ATOM      2  C   UNL     1       2.121   9.422  17.694  0.00  0.00    +0.000 A 
ATOM      3  C   UNL     1       1.243  10.400  18.176  0.00  0.00    +0.000 A 
ATOM      4  C   UNL     1       0.582  10.242  19.399  0.00  0.00    +0.000 A 
ATOM      5  C   UNL     1       0.853   9.087  20.140  0.00  0.00    +0.000 A 
ATOM      6  C   UNL     1       1.734   8.108  19.666  0.00  0.00    +0.000 A 
ENDROOT
BRANCH   1  13
ATOM      7  C   UNL     1       5.416   4.259  17.602  0.00  0.00    +0.000 A 
ATOM      8  N   UNL     1       6.292   4.086  16.584  0.00  0.00    +0.000 NA
ATOM      9  C   UNL     1       6.414   5.066  15.661  0.00  0.00    +0.000 A 
ATOM     10  N   UNL     1       5.773   6.245  15.611  0.00  0.00    +0.000 NA
ATOM     11  C   UNL     1       4.928   6.376  16.642  0.00  0.00    +0.000 A 
ATOM     12  N   UNL     1       4.124   7.458  16.853  0.00  0.00    +0.000 N 
ATOM     13  C   UNL     1       3.349   7.274  17.979  0.00  0.00    +0.000 A 
ATOM     14  C   UNL     1       3.714   6.044  18.505  0.00  0.00    +0.000 A 
ATOM     15  C   UNL     1       4.701   5.466  17.657  0.00  0.00    +0.000 A 
ATOM     16  H   UNL     1       4.114   8.271  16.257  0.00  0.00    +0.000 HD
BRANCH   7  17
ATOM     17  N   UNL     1       5.211   3.259  18.561  0.00  0.00    +0.000 N 
ATOM     18  H   UNL     1       6.071   2.717  18.607  0.00  0.00    +0.000 HD
BRANCH  17  20
ATOM     19  C   UNL     1       3.395   2.674  16.970  0.00  0.00    +0.000 C 
ATOM     20  C   UNL     1       4.081   2.355  18.307  0.00  0.00    +0.000 C 
BRANCH  20  21
ATOM     21  C   UNL     1       3.032   2.529  19.405  0.00  0.00    +0.000 A 
ATOM     22  C   UNL     1       1.711   2.865  19.060  0.00  0.00    +0.000 A 
ATOM     23  C   UNL     1       0.770   3.161  20.049  0.00  0.00    +0.000 A 
ATOM     24  C   UNL     1       1.133   3.118  21.394  0.00  0.00    +0.000 A 
ATOM     25  C   UNL     1       2.433   2.772  21.754  0.00  0.00    +0.000 A 
ATOM     26  C   UNL     1       3.377   2.485  20.767  0.00  0.00    +0.000 A 
ENDBRANCH  20  21
ENDBRANCH  17  20
ENDBRANCH   7  17
ENDBRANCH   1  13
BRANCH   4  27
ATOM     27  N   UNL     1      -0.219  11.277  19.871  0.00  0.00    +0.000 N 
ATOM     28  H   UNL     1       0.142  12.210  19.697  0.00  0.00    +0.000 HD
BRANCH  27  29
ATOM     29  C   UNL     1      -1.672  11.196  19.794  0.00  0.00    +0.000 C 
BRANCH  29  30
ATOM     30  C   UNL     1      -2.125  10.881  18.384  0.00  0.00    +0.000 A 
ATOM     31  C   UNL     1      -2.155  11.888  17.413  0.00  0.00    +0.000 A 
ATOM     32  C   UNL     1      -2.541  11.597  16.100  0.00  0.00    +0.000 A 
ATOM     33  C   UNL     1      -2.893  10.290  15.729  0.00  0.00    +0.000 A 
ATOM     34  C   UNL     1      -2.845   9.279  16.693  0.00  0.00    +0.000 A 
ATOM     35  C   UNL     1      -2.457   9.572  18.003  0.00  0.00    +0.000 A 
BRANCH  33  36
ATOM     36  C   UNL     1      -3.314  10.042  14.322  0.00  0.00    +0.000 C 
ATOM     37  O   UNL     1      -4.492  10.156  13.979  0.00  0.00    +0.000 OA
ATOM     38  N   UNL     1      -2.345   9.687  13.411  0.00  0.00    +0.000 N 
ATOM     39  H   UNL     1      -1.343   9.675  13.561  0.00  0.00    +0.000 HD
BRANCH  38  40
ATOM     40  O   UNL     1      -2.782   9.495  12.083  0.00  0.00    +0.000 OA
ATOM     41  H   UNL     1      -3.657   9.944  12.090  0.00  0.00    +0.000 HD
ENDBRANCH  38  40
ENDBRANCH  33  36
ENDBRANCH  29  30
ENDBRANCH  27  29
ENDBRANCH   4  27
TORSDOF 9
ENDMDL
MODEL 5
REMARK VINA RESULT:      -9.5      2.415      2.765
REMARK  Name = 
REMARK  10 active torsions:
REMARK  status: ('A' for Active; 'I' for Inactive)
REMARK    1  A    between atoms: C_1  and  C_2
REMARK    2  A    between atoms: C_2  and  N_3
REMARK    3  A    between atoms: C_2  and  C_31
REMARK    4  A    between atoms: N_3  and  C_4
REMARK    5  A    between atoms: C_10  and  C_11
REMARK    6  A    between atoms: C_14  and  N_15
REMARK    7  A    between atoms: N_15  and  C_16
REMARK    8  A    between atoms: C_16  and  C_17
REMARK    9  A    between atoms: C_20  and  C_21
REMARK   10  A    between atoms: N_23  and  O_24
REMARK                            x       y       z     vdW  Elec       q    Type
REMARK                         _______ _______ _______ _____ _____    ______ ____
ROOT
ATOM      1  C   UNL     1       2.180   8.071  19.054  0.00  0.00    +0.000 A 
ATOM      2  C   UNL     1       1.743   7.795  20.354  0.00  0.00    +0.000 A 
ATOM      3  C   UNL     1       0.832   8.642  20.996  0.00  0.00    +0.000 A 
ATOM      4  C   UNL     1       0.358   9.803  20.374  0.00  0.00    +0.000 A 
ATOM      5  C   UNL     1       0.802  10.071  19.075  0.00  0.00    +0.000 A 
ATOM      6  C   UNL     1       1.709   9.225  18.426  0.00  0.00    +0.000 A 
ENDROOT
BRANCH   1  13
ATOM      7  C   UNL     1       5.071   4.247  17.323  0.00  0.00    +0.000 A 
ATOM      8  N   UNL     1       5.841   4.234  16.209  0.00  0.00    +0.000 NA
ATOM      9  C   UNL     1       5.880   5.343  15.437  0.00  0.00    +0.000 A 
ATOM     10  N   UNL     1       5.250   6.512  15.628  0.00  0.00    +0.000 NA
ATOM     11  C   UNL     1       4.512   6.482  16.746  0.00  0.00    +0.000 A 
ATOM     12  N   UNL     1       3.744   7.516  17.196  0.00  0.00    +0.000 N 
ATOM     13  C   UNL     1       3.081   7.161  18.353  0.00  0.00    +0.000 A 
ATOM     14  C   UNL     1       3.484   5.866  18.649  0.00  0.00    +0.000 A 
ATOM     15  C   UNL     1       4.377   5.428  17.630  0.00  0.00    +0.000 A 
ATOM     16  H   UNL     1       3.683   8.410  16.733  0.00  0.00    +0.000 HD
BRANCH   7  17
ATOM     17  N   UNL     1       4.951   3.113  18.136  0.00  0.00    +0.000 N 
ATOM     18  H   UNL     1       5.758   2.525  17.939  0.00  0.00    +0.000 HD
BRANCH  17  20
ATOM     19  C   UNL     1       2.909   2.823  16.752  0.00  0.00    +0.000 C 
ATOM     20  C   UNL     1       3.723   2.326  17.956  0.00  0.00    +0.000 C 
BRANCH  20  21
ATOM     21  C   UNL     1       2.836   2.474  19.192  0.00  0.00    +0.000 A 
ATOM     22  C   UNL     1       1.470   2.765  19.039  0.00  0.00    +0.000 A 
ATOM     23  C   UNL     1       0.671   3.038  20.152  0.00  0.00    +0.000 A 
ATOM     24  C   UNL     1       1.223   3.016  21.431  0.00  0.00    +0.000 A 
ATOM     25  C   UNL     1       2.572   2.714  21.602  0.00  0.00    +0.000 A 
ATOM     26  C   UNL     1       3.374   2.451  20.490  0.00  0.00    +0.000 A 
ENDBRANCH  20  21
ENDBRANCH  17  20
ENDBRANCH   7  17
ENDBRANCH   1  13
BRANCH   4  27
ATOM     27  N   UNL     1      -0.606  10.569  21.021  0.00  0.00    +0.000 N 
ATOM     28  H   UNL     1      -0.672  10.417  22.022  0.00  0.00    +0.000 HD
BRANCH  27  29
ATOM     29  C   UNL     1      -0.851  11.951  20.629  0.00  0.00    +0.000 C 
BRANCH  29  30
ATOM     30  C   UNL     1      -2.196  12.093  19.947  0.00  0.00    +0.000 A 
ATOM     31  C   UNL     1      -2.404  11.535  18.682  0.00  0.00    +0.000 A 
ATOM     32  C   UNL     1      -3.655  11.633  18.060  0.00  0.00    +0.000 A 
ATOM     33  C   UNL     1      -4.723  12.283  18.697  0.00  0.00    +0.000 A 
ATOM     34  C   UNL     1      -4.521  12.825  19.969  0.00  0.00    +0.000 A 
ATOM     35  C   UNL     1      -3.272  12.723  20.589  0.00  0.00    +0.000 A 
BRANCH  33  36
ATOM     36  C   UNL     1      -6.025  12.374  17.980  0.00  0.00    +0.000 C 
ATOM     37  O   UNL     1      -6.813  11.427  17.965  0.00  0.00    +0.000 OA
ATOM     38  N   UNL     1      -6.326  13.552  17.336  0.00  0.00    +0.000 N 
ATOM     39  H   UNL     1      -5.806  14.421  17.379  0.00  0.00    +0.000 HD
BRANCH  38  40
ATOM     40  O   UNL     1      -7.584  13.608  16.698  0.00  0.00    +0.000 OA
ATOM     41  H   UNL     1      -7.691  14.574  16.544  0.00  0.00    +0.000 HD
ENDBRANCH  38  40
ENDBRANCH  33  36
ENDBRANCH  29  30
ENDBRANCH  27  29
ENDBRANCH   4  27
TORSDOF 9
ENDMDL
MODEL 6
REMARK VINA RESULT:      -9.4      1.792      4.303
REMARK  Name = 
REMARK  10 active torsions:
REMARK  status: ('A' for Active; 'I' for Inactive)
REMARK    1  A    between atoms: C_1  and  C_2
REMARK    2  A    between atoms: C_2  and  N_3
REMARK    3  A    between atoms: C_2  and  C_31
REMARK    4  A    between atoms: N_3  and  C_4
REMARK    5  A    between atoms: C_10  and  C_11
REMARK    6  A    between atoms: C_14  and  N_15
REMARK    7  A    between atoms: N_15  and  C_16
REMARK    8  A    between atoms: C_16  and  C_17
REMARK    9  A    between atoms: C_20  and  C_21
REMARK   10  A    between atoms: N_23  and  O_24
REMARK                            x       y       z     vdW  Elec       q    Type
REMARK                         _______ _______ _______ _____ _____    ______ ____
ROOT
ATOM      1  C   UNL     1       1.687   8.639  19.409  0.00  0.00    +0.000 A 
ATOM      2  C   UNL     1       1.093   8.940  20.639  0.00  0.00    +0.000 A 
ATOM      3  C   UNL     1       0.453  10.168  20.841  0.00  0.00    +0.000 A 
ATOM      4  C   UNL     1       0.419  11.142  19.838  0.00  0.00    +0.000 A 
ATOM      5  C   UNL     1       1.018  10.833  18.612  0.00  0.00    +0.000 A 
ATOM      6  C   UNL     1       1.653   9.604  18.401  0.00  0.00    +0.000 A 
ENDROOT
BRANCH   1  13
ATOM      7  C   UNL     1       4.056   4.476  17.667  0.00  0.00    +0.000 A 
ATOM      8  N   UNL     1       4.283   3.318  18.331  0.00  0.00    +0.000 NA
ATOM      9  C   UNL     1       3.846   3.206  19.605  0.00  0.00    +0.000 A 
ATOM     10  N   UNL     1       3.179   4.111  20.338  0.00  0.00    +0.000 NA
ATOM     11  C   UNL     1       2.967   5.233  19.637  0.00  0.00    +0.000 A 
ATOM     12  N   UNL     1       2.330   6.339  20.119  0.00  0.00    +0.000 N 
ATOM     13  C   UNL     1       2.302   7.337  19.166  0.00  0.00    +0.000 A 
ATOM     14  C   UNL     1       2.916   6.813  18.038  0.00  0.00    +0.000 A 
ATOM     15  C   UNL     1       3.350   5.490  18.334  0.00  0.00    +0.000 A 
ATOM     16  H   UNL     1       1.938   6.399  21.047  0.00  0.00    +0.000 HD
BRANCH   7  17
ATOM     17  N   UNL     1       4.527   4.669  16.362  0.00  0.00    +0.000 N 
ATOM     18  H   UNL     1       4.070   3.971  15.780  0.00  0.00    +0.000 HD
BRANCH  17  20
ATOM     19  C   UNL     1       6.704   5.790  16.778  0.00  0.00    +0.000 C 
ATOM     20  C   UNL     1       5.982   4.569  16.188  0.00  0.00    +0.000 C 
BRANCH  20  21
ATOM     21  C   UNL     1       6.316   4.524  14.698  0.00  0.00    +0.000 A 
ATOM     22  C   UNL     1       5.616   3.647  13.852  0.00  0.00    +0.000 A 
ATOM     23  C   UNL     1       5.994   3.491  12.517  0.00  0.00    +0.000 A 
ATOM     24  C   UNL     1       7.072   4.212  12.006  0.00  0.00    +0.000 A 
ATOM     25  C   UNL     1       7.768   5.096  12.827  0.00  0.00    +0.000 A 
ATOM     26  C   UNL     1       7.397   5.247  14.164  0.00  0.00    +0.000 A 
ENDBRANCH  20  21
ENDBRANCH  17  20
ENDBRANCH   7  17
ENDBRANCH   1  13
BRANCH   4  27
ATOM     27  N   UNL     1      -0.297  12.314  20.059  0.00  0.00    +0.000 N 
ATOM     28  H   UNL     1       0.266  13.158  20.099  0.00  0.00    +0.000 HD
BRANCH  27  29
ATOM     29  C   UNL     1      -1.605  12.521  19.450  0.00  0.00    +0.000 C 
BRANCH  29  30
ATOM     30  C   UNL     1      -2.697  12.534  20.498  0.00  0.00    +0.000 A 
ATOM     31  C   UNL     1      -2.368  12.503  21.857  0.00  0.00    +0.000 A 
ATOM     32  C   UNL     1      -3.371  12.549  22.832  0.00  0.00    +0.000 A 
ATOM     33  C   UNL     1      -4.724  12.638  22.466  0.00  0.00    +0.000 A 
ATOM     34  C   UNL     1      -5.053  12.688  21.108  0.00  0.00    +0.000 A 
ATOM     35  C   UNL     1      -4.049  12.645  20.137  0.00  0.00    +0.000 A 
BRANCH  33  36
ATOM     36  C   UNL     1      -5.749  12.663  23.545  0.00  0.00    +0.000 C 
ATOM     37  O   UNL     1      -5.500  12.231  24.672  0.00  0.00    +0.000 OA
ATOM     38  N   UNL     1      -6.986  13.189  23.248  0.00  0.00    +0.000 N 
ATOM     39  H   UNL     1      -7.256  13.668  22.397  0.00  0.00    +0.000 HD
BRANCH  38  40
ATOM     40  O   UNL     1      -7.916  13.226  24.309  0.00  0.00    +0.000 OA
ATOM     41  H   UNL     1      -8.766  13.353  23.829  0.00  0.00    +0.000 HD
ENDBRANCH  38  40
ENDBRANCH  33  36
ENDBRANCH  29  30
ENDBRANCH  27  29
ENDBRANCH   4  27
TORSDOF 9
ENDMDL
MODEL 7
REMARK VINA RESULT:      -9.4      0.684      1.358
REMARK  Name = 
REMARK  10 active torsions:
REMARK  status: ('A' for Active; 'I' for Inactive)
REMARK    1  A    between atoms: C_1  and  C_2
REMARK    2  A    between atoms: C_2  and  N_3
REMARK    3  A    between atoms: C_2  and  C_31
REMARK    4  A    between atoms: N_3  and  C_4
REMARK    5  A    between atoms: C_10  and  C_11
REMARK    6  A    between atoms: C_14  and  N_15
REMARK    7  A    between atoms: N_15  and  C_16
REMARK    8  A    between atoms: C_16  and  C_17
REMARK    9  A    between atoms: C_20  and  C_21
REMARK   10  A    between atoms: N_23  and  O_24
REMARK                            x       y       z     vdW  Elec       q    Type
REMARK                         _______ _______ _______ _____ _____    ______ ____
ROOT
ATOM      1  C   UNL     1       2.189   8.130  18.561  0.00  0.00    +0.000 A 
ATOM      2  C   UNL     1       1.681   9.176  17.784  0.00  0.00    +0.000 A 
ATOM      3  C   UNL     1       0.835  10.138  18.347  0.00  0.00    +0.000 A 
ATOM      4  C   UNL     1       0.444  10.065  19.688  0.00  0.00    +0.000 A 
ATOM      5  C   UNL     1       0.955   9.014  20.457  0.00  0.00    +0.000 A 
ATOM      6  C   UNL     1       1.807   8.052  19.901  0.00  0.00    +0.000 A 
ENDROOT
BRANCH   1  13
ATOM      7  C   UNL     1       4.764   4.064  16.883  0.00  0.00    +0.000 A 
ATOM      8  N   UNL     1       5.953   4.051  16.235  0.00  0.00    +0.000 NA
ATOM      9  C   UNL     1       6.567   5.228  15.985  0.00  0.00    +0.000 A 
ATOM     10  N   UNL     1       6.158   6.465  16.311  0.00  0.00    +0.000 NA
ATOM     11  C   UNL     1       4.986   6.427  16.959  0.00  0.00    +0.000 A 
ATOM     12  N   UNL     1       4.311   7.526  17.403  0.00  0.00    +0.000 N 
ATOM     13  C   UNL     1       3.123   7.157  17.999  0.00  0.00    +0.000 A 
ATOM     14  C   UNL     1       3.079   5.771  17.954  0.00  0.00    +0.000 A 
ATOM     15  C   UNL     1       4.248   5.306  17.286  0.00  0.00    +0.000 A 
ATOM     16  H   UNL     1       4.651   8.470  17.300  0.00  0.00    +0.000 HD
BRANCH   7  17
ATOM     17  N   UNL     1       4.056   2.880  17.127  0.00  0.00    +0.000 N 
ATOM     18  H   UNL     1       3.073   3.089  16.971  0.00  0.00    +0.000 HD
BRANCH  17  20
ATOM     19  C   UNL     1       4.275   0.769  18.417  0.00  0.00    +0.000 C 
ATOM     20  C   UNL     1       4.223   2.303  18.468  0.00  0.00    +0.000 C 
BRANCH  20  21
ATOM     21  C   UNL     1       3.027   2.685  19.340  0.00  0.00    +0.000 A 
ATOM     22  C   UNL     1       1.722   2.520  18.846  0.00  0.00    +0.000 A 
ATOM     23  C   UNL     1       0.622   2.986  19.569  0.00  0.00    +0.000 A 
ATOM     24  C   UNL     1       0.809   3.616  20.798  0.00  0.00    +0.000 A 
ATOM     25  C   UNL     1       2.095   3.775  21.309  0.00  0.00    +0.000 A 
ATOM     26  C   UNL     1       3.196   3.318  20.584  0.00  0.00    +0.000 A 
ENDBRANCH  20  21
ENDBRANCH  17  20
ENDBRANCH   7  17
ENDBRANCH   1  13
BRANCH   4  27
ATOM     27  N   UNL     1      -0.334  11.087  20.221  0.00  0.00    +0.000 N 
ATOM     28  H   UNL     1      -1.221  11.238  19.753  0.00  0.00    +0.000 HD
BRANCH  27  29
ATOM     29  C   UNL     1      -0.396  11.309  21.660  0.00  0.00    +0.000 C 
BRANCH  29  30
ATOM     30  C   UNL     1      -1.730  11.903  22.062  0.00  0.00    +0.000 A 
ATOM     31  C   UNL     1      -2.175  11.800  23.385  0.00  0.00    +0.000 A 
ATOM     32  C   UNL     1      -3.391  12.375  23.770  0.00  0.00    +0.000 A 
ATOM     33  C   UNL     1      -4.181  13.072  22.843  0.00  0.00    +0.000 A 
ATOM     34  C   UNL     1      -3.729  13.191  21.526  0.00  0.00    +0.000 A 
ATOM     35  C   UNL     1      -2.512  12.619  21.145  0.00  0.00    +0.000 A 
BRANCH  33  36
ATOM     36  C   UNL     1      -5.476  13.646  23.306  0.00  0.00    +0.000 C 
ATOM     37  O   UNL     1      -5.947  14.658  22.784  0.00  0.00    +0.000 OA
ATOM     38  N   UNL     1      -6.133  13.010  24.333  0.00  0.00    +0.000 N 
ATOM     39  H   UNL     1      -5.892  12.119  24.752  0.00  0.00    +0.000 HD
BRANCH  38  40
ATOM     40  O   UNL     1      -7.372  13.567  24.717  0.00  0.00    +0.000 OA
ATOM     41  H   UNL     1      -7.089  14.359  25.227  0.00  0.00    +0.000 HD
ENDBRANCH  38  40
ENDBRANCH  33  36
ENDBRANCH  29  30
ENDBRANCH  27  29
ENDBRANCH   4  27
TORSDOF 9
ENDMDL
MODEL 8
REMARK VINA RESULT:      -9.3      5.281     11.765
REMARK  Name = 
REMARK  10 active torsions:
REMARK  status: ('A' for Active; 'I' for Inactive)
REMARK    1  A    between atoms: C_1  and  C_2
REMARK    2  A    between atoms: C_2  and  N_3
REMARK    3  A    between atoms: C_2  and  C_31
REMARK    4  A    between atoms: N_3  and  C_4
REMARK    5  A    between atoms: C_10  and  C_11
REMARK    6  A    between atoms: C_14  and  N_15
REMARK    7  A    between atoms: N_15  and  C_16
REMARK    8  A    between atoms: C_16  and  C_17
REMARK    9  A    between atoms: C_20  and  C_21
REMARK   10  A    between atoms: N_23  and  O_24
REMARK                            x       y       z     vdW  Elec       q    Type
REMARK                         _______ _______ _______ _____ _____    ______ ____
ROOT
ATOM      1  C   UNL     1       1.269   8.058  20.254  0.00  0.00    +0.000 A 
ATOM      2  C   UNL     1       2.106   7.959  19.138  0.00  0.00    +0.000 A 
ATOM      3  C   UNL     1       2.752   6.755  18.834  0.00  0.00    +0.000 A 
ATOM      4  C   UNL     1       2.609   5.629  19.651  0.00  0.00    +0.000 A 
ATOM      5  C   UNL     1       1.771   5.737  20.766  0.00  0.00    +0.000 A 
ATOM      6  C   UNL     1       1.118   6.937  21.072  0.00  0.00    +0.000 A 
ENDROOT
BRANCH   1  13
ATOM      7  C   UNL     1      -1.554  12.300  20.312  0.00  0.00    +0.000 A 
ATOM      8  N   UNL     1      -1.798  13.114  21.367  0.00  0.00    +0.000 NA
ATOM      9  C   UNL     1      -1.247  12.808  22.562  0.00  0.00    +0.000 A 
ATOM     10  N   UNL     1      -0.447  11.774  22.868  0.00  0.00    +0.000 NA
ATOM     11  C   UNL     1      -0.225  11.005  21.794  0.00  0.00    +0.000 A 
ATOM     12  N   UNL     1       0.535   9.872  21.796  0.00  0.00    +0.000 N 
ATOM     13  C   UNL     1       0.541   9.290  20.545  0.00  0.00    +0.000 A 
ATOM     14  C   UNL     1      -0.217  10.116  19.729  0.00  0.00    +0.000 A 
ATOM     15  C   UNL     1      -0.715  11.194  20.515  0.00  0.00    +0.000 A 
ATOM     16  H   UNL     1       1.019   9.525  22.610  0.00  0.00    +0.000 HD
BRANCH   7  17
ATOM     17  N   UNL     1      -2.136  12.539  19.061  0.00  0.00    +0.000 N 
ATOM     18  H   UNL     1      -2.706  13.377  19.158  0.00  0.00    +0.000 HD
BRANCH  17  20
ATOM     19  C   UNL     1      -2.662  11.195  17.040  0.00  0.00    +0.000 C 
ATOM     20  C   UNL     1      -2.963  11.450  18.524  0.00  0.00    +0.000 C 
BRANCH  20  21
ATOM     21  C   UNL     1      -4.439  11.831  18.625  0.00  0.00    +0.000 A 
ATOM     22  C   UNL     1      -4.886  12.607  19.708  0.00  0.00    +0.000 A 
ATOM     23  C   UNL     1      -6.249  12.854  19.894  0.00  0.00    +0.000 A 
ATOM     24  C   UNL     1      -7.181  12.335  18.997  0.00  0.00    +0.000 A 
ATOM     25  C   UNL     1      -6.754  11.576  17.910  0.00  0.00    +0.000 A 
ATOM     26  C   UNL     1      -5.394  11.321  17.728  0.00  0.00    +0.000 A 
ENDBRANCH  20  21
ENDBRANCH  17  20
ENDBRANCH   7  17
ENDBRANCH   1  13
BRANCH   4  27
ATOM     27  N   UNL     1       3.207   4.434  19.264  0.00  0.00    +0.000 N 
ATOM     28  H   UNL     1       2.793   3.993  18.449  0.00  0.00    +0.000 HD
BRANCH  27  29
ATOM     29  C   UNL     1       4.652   4.258  19.344  0.00  0.00    +0.000 C 
BRANCH  29  30
ATOM     30  C   UNL     1       5.286   4.339  17.971  0.00  0.00    +0.000 A 
ATOM     31  C   UNL     1       4.501   4.180  16.824  0.00  0.00    +0.000 A 
ATOM     32  C   UNL     1       5.075   4.286  15.551  0.00  0.00    +0.000 A 
ATOM     33  C   UNL     1       6.442   4.564  15.402  0.00  0.00    +0.000 A 
ATOM     34  C   UNL     1       7.224   4.742  16.547  0.00  0.00    +0.000 A 
ATOM     35  C   UNL     1       6.648   4.638  17.816  0.00  0.00    +0.000 A 
BRANCH  33  36
ATOM     36  C   UNL     1       7.002   4.647  14.024  0.00  0.00    +0.000 C 
ATOM     37  O   UNL     1       7.836   5.503  13.725  0.00  0.00    +0.000 OA
ATOM     38  N   UNL     1       6.562   3.734  13.093  0.00  0.00    +0.000 N 
ATOM     39  H   UNL     1       5.969   2.929  13.262  0.00  0.00    +0.000 HD
BRANCH  38  40
ATOM     40  O   UNL     1       7.142   3.826  11.810  0.00  0.00    +0.000 OA
ATOM     41  H   UNL     1       7.188   2.881  11.539  0.00  0.00    +0.000 HD
ENDBRANCH  38  40
ENDBRANCH  33  36
ENDBRANCH  29  30
ENDBRANCH  27  29
ENDBRANCH   4  27
TORSDOF 9
ENDMDL
MODEL 9
REMARK VINA RESULT:      -9.3      1.278      1.806
REMARK  Name = 
REMARK  10 active torsions:
REMARK  status: ('A' for Active; 'I' for Inactive)
REMARK    1  A    between atoms: C_1  and  C_2
REMARK    2  A    between atoms: C_2  and  N_3
REMARK    3  A    between atoms: C_2  and  C_31
REMARK    4  A    between atoms: N_3  and  C_4
REMARK    5  A    between atoms: C_10  and  C_11
REMARK    6  A    between atoms: C_14  and  N_15
REMARK    7  A    between atoms: N_15  and  C_16
REMARK    8  A    between atoms: C_16  and  C_17
REMARK    9  A    between atoms: C_20  and  C_21
REMARK   10  A    between atoms: N_23  and  O_24
REMARK                            x       y       z     vdW  Elec       q    Type
REMARK                         _______ _______ _______ _____ _____    ______ ____
ROOT
ATOM      1  C   UNL     1       2.055   8.146  18.946  0.00  0.00    +0.000 A 
ATOM      2  C   UNL     1       1.453   9.199  18.250  0.00  0.00    +0.000 A 
ATOM      3  C   UNL     1       0.578  10.078  18.900  0.00  0.00    +0.000 A 
ATOM      4  C   UNL     1       0.254   9.912  20.250  0.00  0.00    +0.000 A 
ATOM      5  C   UNL     1       0.860   8.854  20.938  0.00  0.00    +0.000 A 
ATOM      6  C   UNL     1       1.739   7.976  20.295  0.00  0.00    +0.000 A 
ENDROOT
BRANCH   1  13
ATOM      7  C   UNL     1       5.161   4.417  17.391  0.00  0.00    +0.000 A 
ATOM      8  N   UNL     1       5.966   4.415  16.302  0.00  0.00    +0.000 NA
ATOM      9  C   UNL     1       5.983   5.508  15.507  0.00  0.00    +0.000 A 
ATOM     10  N   UNL     1       5.297   6.653  15.653  0.00  0.00    +0.000 NA
ATOM     11  C   UNL     1       4.526   6.613  16.748  0.00  0.00    +0.000 A 
ATOM     12  N   UNL     1       3.700   7.622  17.150  0.00  0.00    +0.000 N 
ATOM     13  C   UNL     1       3.016   7.262  18.293  0.00  0.00    +0.000 A 
ATOM     14  C   UNL     1       3.464   5.993  18.630  0.00  0.00    +0.000 A 
ATOM     15  C   UNL     1       4.408   5.573  17.650  0.00  0.00    +0.000 A 
ATOM     16  H   UNL     1       3.616   8.503  16.666  0.00  0.00    +0.000 HD
BRANCH   7  17
ATOM     17  N   UNL     1       5.064   3.296  18.224  0.00  0.00    +0.000 N 
ATOM     18  H   UNL     1       5.882   2.720  18.036  0.00  0.00    +0.000 HD
BRANCH  17  20
ATOM     19  C   UNL     1       3.085   2.867  16.786  0.00  0.00    +0.000 C 
ATOM     20  C   UNL     1       3.851   2.484  18.062  0.00  0.00    +0.000 C 
BRANCH  20  21
ATOM     21  C   UNL     1       2.911   2.728  19.242  0.00  0.00    +0.000 A 
ATOM     22  C   UNL     1       3.400   2.624  20.555  0.00  0.00    +0.000 A 
ATOM     23  C   UNL     1       2.532   2.709  21.647  0.00  0.00    +0.000 A 
ATOM     24  C   UNL     1       1.168   2.906  21.442  0.00  0.00    +0.000 A 
ATOM     25  C   UNL     1       0.669   3.026  20.148  0.00  0.00    +0.000 A 
ATOM     26  C   UNL     1       1.533   2.932  19.055  0.00  0.00    +0.000 A 
ENDBRANCH  20  21
ENDBRANCH  17  20
ENDBRANCH   7  17
ENDBRANCH   1  13
BRANCH   4  27
ATOM     27  N   UNL     1      -0.556  10.857  20.871  0.00  0.00    +0.000 N 
ATOM     28  H   UNL     1      -1.412  11.079  20.373  0.00  0.00    +0.000 HD
BRANCH  27  29
ATOM     29  C   UNL     1      -0.710  10.876  22.320  0.00  0.00    +0.000 C 
BRANCH  29  30
ATOM     30  C   UNL     1      -1.440  12.123  22.773  0.00  0.00    +0.000 A 
ATOM     31  C   UNL     1      -0.814  13.372  22.691  0.00  0.00    +0.000 A 
ATOM     32  C   UNL     1      -1.495  14.533  23.076  0.00  0.00    +0.000 A 
ATOM     33  C   UNL     1      -2.817  14.468  23.542  0.00  0.00    +0.000 A 
ATOM     34  C   UNL     1      -3.449  13.223  23.607  0.00  0.00    +0.000 A 
ATOM     35  C   UNL     1      -2.768  12.066  23.219  0.00  0.00    +0.000 A 
BRANCH  33  36
ATOM     36  C   UNL     1      -3.485  15.734  23.956  0.00  0.00    +0.000 C 
ATOM     37  O   UNL     1      -3.321  16.778  23.323  0.00  0.00    +0.000 OA
ATOM     38  N   UNL     1      -4.295  15.702  25.068  0.00  0.00    +0.000 N 
ATOM     39  H   UNL     1      -4.583  14.881  25.589  0.00  0.00    +0.000 HD
BRANCH  38  40
ATOM     40  O   UNL     1      -4.935  16.914  25.406  0.00  0.00    +0.000 OA
ATOM     41  H   UNL     1      -4.329  17.580  25.009  0.00  0.00    +0.000 HD
ENDBRANCH  38  40
ENDBRANCH  33  36
ENDBRANCH  29  30
ENDBRANCH  27  29
ENDBRANCH   4  27
TORSDOF 9
ENDMDL
