MODEL 1
REMARK VINA RESULT:     -10.1      0.000      0.000
REMARK  Name = 
REMARK  5 active torsions:
REMARK  status: ('A' for Active; 'I' for Inactive)
REMARK    1  A    between atoms: C_1  and  C_2
REMARK    2  A    between atoms: C_5  and  C_6
REMARK    3  A    between atoms: C_11  and  C_13
REMARK    4  A    between atoms: C_17  and  S_18
REMARK    5  A    between atoms: S_18  and  N_21
REMARK                            x       y       z     vdW  Elec       q    Type
REMARK                         _______ _______ _______ _____ _____    ______ ____
ROOT
ATOM      1  C   UNL     1       7.917   7.874  18.177  0.00  0.00    +0.000 A 
ATOM      2  C   UNL     1       8.447   6.993  19.131  0.00  0.00    +0.000 A 
ATOM      3  C   UNL     1       8.077   5.644  19.140  0.00  0.00    +0.000 A 
ATOM      4  C   UNL     1       7.135   5.164  18.223  0.00  0.00    +0.000 A 
ATOM      5  C   UNL     1       6.567   6.044  17.297  0.00  0.00    +0.000 A 
ATOM      6  C   UNL     1       7.001   7.378  17.234  0.00  0.00    +0.000 A 
ENDROOT
BRANCH   1  12
ATOM      7  C   UNL     1      10.677  12.799  18.938  0.00  0.00    +0.000 A 
ATOM      8  N   UNL     1      11.508  12.123  19.715  0.00  0.00    +0.000 NA
ATOM      9  N   UNL     1      10.946  10.919  20.023  0.00  0.00    +0.000 NA
ATOM     10  C   UNL     1       9.827  10.822  19.352  0.00  0.00    +0.000 A 
ATOM     11  N   UNL     1       9.071   9.682  19.336  0.00  0.00    +0.000 N 
ATOM     12  C   UNL     1       8.312   9.325  18.245  0.00  0.00    +0.000 C 
ATOM     13  O   UNL     1       8.035  10.089  17.322  0.00  0.00    +0.000 OA
ATOM     14  N   UNL     1       9.590  11.996  18.683  0.00  0.00    +0.000 N 
ATOM     15  H   UNL     1       9.433   8.981  19.967  0.00  0.00    +0.000 HD
ATOM     16  H   UNL     1       8.776  12.198  18.122  0.00  0.00    +0.000 HD
BRANCH   7  21
ATOM     17  C   UNL     1      11.038  18.345  17.332  0.00  0.00    +0.000 C 
ATOM     18  C   UNL     1      11.034  16.898  17.734  0.00  0.00    +0.000 A 
ATOM     19  C   UNL     1      10.853  16.543  19.070  0.00  0.00    +0.000 A 
ATOM     20  C   UNL     1      10.797  15.198  19.436  0.00  0.00    +0.000 A 
ATOM     21  C   UNL     1      10.919  14.170  18.485  0.00  0.00    +0.000 A 
ATOM     22  C   UNL     1      11.155  14.527  17.154  0.00  0.00    +0.000 A 
ATOM     23  C   UNL     1      11.208  15.883  16.783  0.00  0.00    +0.000 A 
ENDBRANCH   7  21
ENDBRANCH   1  12
BRANCH   5  24
ATOM     24  S   UNL     1       5.310   5.489  16.125  0.00  0.00    +0.000 S 
ATOM     25  O   UNL     1       5.334   6.434  15.034  0.00  0.00    +0.000 OA
ATOM     26  O   UNL     1       5.567   4.076  15.899  0.00  0.00    +0.000 OA
BRANCH  24  27
ATOM     27  N   UNL     1       3.901   5.663  17.035  0.00  0.00    +0.000 N 
ATOM     28  C   UNL     1       3.716   6.917  17.813  0.00  0.00    +0.000 C 
ATOM     29  C   UNL     1       3.000   6.526  19.113  0.00  0.00    +0.000 C 
ATOM     30  C   UNL     1       2.609   5.108  18.865  0.00  0.00    +0.000 A 
ATOM     31  C   UNL     1       1.763   4.348  19.664  0.00  0.00    +0.000 A 
ATOM     32  C   UNL     1       1.430   3.064  19.243  0.00  0.00    +0.000 A 
ATOM     33  C   UNL     1       1.967   2.568  18.044  0.00  0.00    +0.000 A 
ATOM     34  C   UNL     1       2.859   3.338  17.263  0.00  0.00    +0.000 A 
ATOM     35  C   UNL     1       3.191   4.607  17.697  0.00  0.00    +0.000 A 
ENDBRANCH  24  27
ENDBRANCH   5  24
TORSDOF 4
ENDMDL
MODEL 2
REMARK VINA RESULT:      -9.7      7.417     10.991
REMARK  Name = 
REMARK  5 active torsions:
REMARK  status: ('A' for Active; 'I' for Inactive)
REMARK    1  A    between atoms: C_1  and  C_2
REMARK    2  A    between atoms: C_5  and  C_6
REMARK    3  A    between atoms: C_11  and  C_13
REMARK    4  A    between atoms: C_17  and  S_18
REMARK    5  A    between atoms: S_18  and  N_21
REMARK                            x       y       z     vdW  Elec       q    Type
REMARK                         _______ _______ _______ _____ _____    ______ ____
ROOT
ATOM      1  C   UNL     1       0.330   9.701  20.966  0.00  0.00    +0.000 A 
ATOM      2  C   UNL     1       0.174   9.483  22.343  0.00  0.00    +0.000 A 
ATOM      3  C   UNL     1      -0.735  10.244  23.087  0.00  0.00    +0.000 A 
ATOM      4  C   UNL     1      -1.469  11.266  22.474  0.00  0.00    +0.000 A 
ATOM      5  C   UNL     1      -1.287  11.520  21.111  0.00  0.00    +0.000 A 
ATOM      6  C   UNL     1      -0.439  10.703  20.349  0.00  0.00    +0.000 A 
ENDROOT
BRANCH   1  12
ATOM      7  C   UNL     1       3.340   5.507  18.557  0.00  0.00    +0.000 A 
ATOM      8  N   UNL     1       2.665   4.680  19.339  0.00  0.00    +0.000 NA
ATOM      9  N   UNL     1       2.045   5.401  20.317  0.00  0.00    +0.000 NA
ATOM     10  C   UNL     1       2.257   6.667  20.067  0.00  0.00    +0.000 A 
ATOM     11  N   UNL     1       1.668   7.672  20.788  0.00  0.00    +0.000 N 
ATOM     12  C   UNL     1       1.357   8.887  20.225  0.00  0.00    +0.000 C 
ATOM     13  O   UNL     1       1.796   9.276  19.144  0.00  0.00    +0.000 OA
ATOM     14  N   UNL     1       3.099   6.790  18.992  0.00  0.00    +0.000 N 
ATOM     15  H   UNL     1       1.142   7.313  21.571  0.00  0.00    +0.000 HD
ATOM     16  H   UNL     1       3.451   7.658  18.617  0.00  0.00    +0.000 HD
BRANCH   7  21
ATOM     17  C   UNL     1       6.311   4.070  13.805  0.00  0.00    +0.000 C 
ATOM     18  C   UNL     1       5.609   4.411  15.088  0.00  0.00    +0.000 A 
ATOM     19  C   UNL     1       5.455   5.744  15.469  0.00  0.00    +0.000 A 
ATOM     20  C   UNL     1       4.757   6.064  16.634  0.00  0.00    +0.000 A 
ATOM     21  C   UNL     1       4.195   5.068  17.452  0.00  0.00    +0.000 A 
ATOM     22  C   UNL     1       4.398   3.730  17.099  0.00  0.00    +0.000 A 
ATOM     23  C   UNL     1       5.097   3.407  15.922  0.00  0.00    +0.000 A 
ENDBRANCH   7  21
ENDBRANCH   1  12
BRANCH   5  24
ATOM     24  S   UNL     1      -2.170  12.859  20.282  0.00  0.00    +0.000 S 
ATOM     25  O   UNL     1      -2.791  13.638  21.328  0.00  0.00    +0.000 OA
ATOM     26  O   UNL     1      -1.217  13.462  19.364  0.00  0.00    +0.000 OA
BRANCH  24  27
ATOM     27  N   UNL     1      -3.330  12.007  19.405  0.00  0.00    +0.000 N 
ATOM     28  C   UNL     1      -2.974  11.536  18.039  0.00  0.00    +0.000 C 
ATOM     29  C   UNL     1      -4.247  11.653  17.190  0.00  0.00    +0.000 C 
ATOM     30  C   UNL     1      -5.300  11.950  18.203  0.00  0.00    +0.000 A 
ATOM     31  C   UNL     1      -6.671  11.958  17.971  0.00  0.00    +0.000 A 
ATOM     32  C   UNL     1      -7.524  12.170  19.049  0.00  0.00    +0.000 A 
ATOM     33  C   UNL     1      -6.984  12.386  20.327  0.00  0.00    +0.000 A 
ATOM     34  C   UNL     1      -5.586  12.416  20.540  0.00  0.00    +0.000 A 
ATOM     35  C   UNL     1      -4.749  12.216  19.459  0.00  0.00    +0.000 A 
ENDBRANCH  24  27
ENDBRANCH   5  24
TORSDOF 4
ENDMDL
MODEL 3
REMARK VINA RESULT:      -9.7      0.718      1.491
REMARK  Name = 
REMARK  5 active torsions:
REMARK  status: ('A' for Active; 'I' for Inactive)
REMARK    1  A    between atoms: C_1  and  C_2
REMARK    2  A    between atoms: C_5  and  C_6
REMARK    3  A    between atoms: C_11  and  C_13
REMARK    4  A    between atoms: C_17  and  S_18
REMARK    5  A    between atoms: S_18  and  N_21
REMARK                            x       y       z     vdW  Elec       q    Type
REMARK                         _______ _______ _______ _____ _____    ______ ____
ROOT
ATOM      1  C   UNL     1       7.906   8.097  18.216  0.00  0.00    +0.000 A 
ATOM      2  C   UNL     1       8.519   7.158  19.058  0.00  0.00    +0.000 A 
ATOM      3  C   UNL     1       8.100   5.823  19.063  0.00  0.00    +0.000 A 
ATOM      4  C   UNL     1       7.029   5.416  18.259  0.00  0.00    +0.000 A 
ATOM      5  C   UNL     1       6.382   6.355  17.449  0.00  0.00    +0.000 A 
ATOM      6  C   UNL     1       6.856   7.674  17.382  0.00  0.00    +0.000 A 
ENDROOT
BRANCH   1  12
ATOM      7  C   UNL     1      10.901  12.892  18.924  0.00  0.00    +0.000 A 
ATOM      8  N   UNL     1      11.737  12.169  19.650  0.00  0.00    +0.000 NA
ATOM      9  N   UNL     1      11.140  10.984  19.966  0.00  0.00    +0.000 NA
ATOM     10  C   UNL     1       9.989  10.945  19.346  0.00  0.00    +0.000 A 
ATOM     11  N   UNL     1       9.185   9.836  19.347  0.00  0.00    +0.000 N 
ATOM     12  C   UNL     1       8.364   9.530  18.288  0.00  0.00    +0.000 C 
ATOM     13  O   UNL     1       8.077  10.320  17.390  0.00  0.00    +0.000 OA
ATOM     14  N   UNL     1       9.770  12.138  18.706  0.00  0.00    +0.000 N 
ATOM     15  H   UNL     1       9.546   9.111  19.950  0.00  0.00    +0.000 HD
ATOM     16  H   UNL     1       8.941  12.383  18.187  0.00  0.00    +0.000 HD
BRANCH   7  21
ATOM     17  C   UNL     1      11.431  18.451  17.416  0.00  0.00    +0.000 C 
ATOM     18  C   UNL     1      11.381  16.997  17.783  0.00  0.00    +0.000 A 
ATOM     19  C   UNL     1      11.304  16.615  19.123  0.00  0.00    +0.000 A 
ATOM     20  C   UNL     1      11.204  15.265  19.462  0.00  0.00    +0.000 A 
ATOM     21  C   UNL     1      11.179  14.259  18.480  0.00  0.00    +0.000 A 
ATOM     22  C   UNL     1      11.310  14.639  17.141  0.00  0.00    +0.000 A 
ATOM     23  C   UNL     1      11.407  16.000  16.798  0.00  0.00    +0.000 A 
ENDBRANCH   7  21
ENDBRANCH   1  12
BRANCH   5  24
ATOM     24  S   UNL     1       4.963   5.895  16.432  0.00  0.00    +0.000 S 
ATOM     25  O   UNL     1       4.137   7.076  16.338  0.00  0.00    +0.000 OA
ATOM     26  O   UNL     1       5.509   5.266  15.240  0.00  0.00    +0.000 OA
BRANCH  24  27
ATOM     27  N   UNL     1       4.223   4.724  17.393  0.00  0.00    +0.000 N 
ATOM     28  C   UNL     1       3.956   3.389  16.795  0.00  0.00    +0.000 C 
ATOM     29  C   UNL     1       2.626   2.902  17.386  0.00  0.00    +0.000 C 
ATOM     30  C   UNL     1       2.359   3.892  18.469  0.00  0.00    +0.000 A 
ATOM     31  C   UNL     1       1.367   3.787  19.439  0.00  0.00    +0.000 A 
ATOM     32  C   UNL     1       1.309   4.759  20.433  0.00  0.00    +0.000 A 
ATOM     33  C   UNL     1       2.230   5.817  20.422  0.00  0.00    +0.000 A 
ATOM     34  C   UNL     1       3.207   5.933  19.406  0.00  0.00    +0.000 A 
ATOM     35  C   UNL     1       3.248   4.968  18.417  0.00  0.00    +0.000 A 
ENDBRANCH  24  27
ENDBRANCH   5  24
TORSDOF 4
ENDMDL
MODEL 4
REMARK VINA RESULT:      -9.6      7.447     11.190
REMARK  Name = 
REMARK  5 active torsions:
REMARK  status: ('A' for Active; 'I' for Inactive)
REMARK    1  A    between atoms: C_1  and  C_2
REMARK    2  A    between atoms: C_5  and  C_6
REMARK    3  A    between atoms: C_11  and  C_13
REMARK    4  A    between atoms: C_17  and  S_18
REMARK    5  A    between atoms: S_18  and  N_21
REMARK                            x       y       z     vdW  Elec       q    Type
REMARK                         _______ _______ _______ _____ _____    ______ ____
ROOT
ATOM      1  C   UNL     1      -0.165  10.360  21.297  0.00  0.00    +0.000 A 
ATOM      2  C   UNL     1      -0.564   9.881  22.554  0.00  0.00    +0.000 A 
ATOM      3  C   UNL     1      -1.462  10.609  23.343  0.00  0.00    +0.000 A 
ATOM      4  C   UNL     1      -1.938  11.851  22.908  0.00  0.00    +0.000 A 
ATOM      5  C   UNL     1      -1.511  12.357  21.676  0.00  0.00    +0.000 A 
ATOM      6  C   UNL     1      -0.677  11.589  20.849  0.00  0.00    +0.000 A 
ENDROOT
BRANCH   1  12
ATOM      7  C   UNL     1       2.837   6.198  18.822  0.00  0.00    +0.000 A 
ATOM      8  N   UNL     1       2.253   5.376  19.678  0.00  0.00    +0.000 NA
ATOM      9  N   UNL     1       1.675   6.108  20.673  0.00  0.00    +0.000 NA
ATOM     10  C   UNL     1       1.816   7.371  20.366  0.00  0.00    +0.000 A 
ATOM     11  N   UNL     1       1.239   8.378  21.092  0.00  0.00    +0.000 N 
ATOM     12  C   UNL     1       0.840   9.559  20.513  0.00  0.00    +0.000 C 
ATOM     13  O   UNL     1       1.186   9.925  19.391  0.00  0.00    +0.000 OA
ATOM     14  N   UNL     1       2.575   7.486  19.230  0.00  0.00    +0.000 N 
ATOM     15  H   UNL     1       0.784   8.029  21.924  0.00  0.00    +0.000 HD
ATOM     16  H   UNL     1       2.864   8.353  18.801  0.00  0.00    +0.000 HD
BRANCH   7  21
ATOM     17  C   UNL     1       6.320   4.105  14.706  0.00  0.00    +0.000 C 
ATOM     18  C   UNL     1       5.363   4.681  15.708  0.00  0.00    +0.000 A 
ATOM     19  C   UNL     1       4.547   3.838  16.463  0.00  0.00    +0.000 A 
ATOM     20  C   UNL     1       3.696   4.370  17.431  0.00  0.00    +0.000 A 
ATOM     21  C   UNL     1       3.630   5.752  17.675  0.00  0.00    +0.000 A 
ATOM     22  C   UNL     1       4.408   6.601  16.881  0.00  0.00    +0.000 A 
ATOM     23  C   UNL     1       5.270   6.066  15.907  0.00  0.00    +0.000 A 
ENDBRANCH   7  21
ENDBRANCH   1  12
BRANCH   5  24
ATOM     24  S   UNL     1      -2.054  13.976  21.091  0.00  0.00    +0.000 S 
ATOM     25  O   UNL     1      -1.828  14.895  22.182  0.00  0.00    +0.000 OA
ATOM     26  O   UNL     1      -1.413  14.173  19.800  0.00  0.00    +0.000 OA
BRANCH  24  27
ATOM     27  N   UNL     1      -3.704  13.717  20.862  0.00  0.00    +0.000 N 
ATOM     28  C   UNL     1      -4.632  14.071  21.969  0.00  0.00    +0.000 C 
ATOM     29  C   UNL     1      -5.752  13.021  21.956  0.00  0.00    +0.000 C 
ATOM     30  C   UNL     1      -5.508  12.288  20.681  0.00  0.00    +0.000 A 
ATOM     31  C   UNL     1      -6.364  11.358  20.103  0.00  0.00    +0.000 A 
ATOM     32  C   UNL     1      -6.025  10.827  18.862  0.00  0.00    +0.000 A 
ATOM     33  C   UNL     1      -4.831  11.226  18.241  0.00  0.00    +0.000 A 
ATOM     34  C   UNL     1      -3.950  12.142  18.861  0.00  0.00    +0.000 A 
ATOM     35  C   UNL     1      -4.291  12.653  20.098  0.00  0.00    +0.000 A 
ENDBRANCH  24  27
ENDBRANCH   5  24
TORSDOF 4
ENDMDL
MODEL 5
REMARK VINA RESULT:      -9.6      7.415     10.630
REMARK  Name = 
REMARK  5 active torsions:
REMARK  status: ('A' for Active; 'I' for Inactive)
REMARK    1  A    between atoms: C_1  and  C_2
REMARK    2  A    between atoms: C_5  and  C_6
REMARK    3  A    between atoms: C_11  and  C_13
REMARK    4  A    between atoms: C_17  and  S_18
REMARK    5  A    between atoms: S_18  and  N_21
REMARK                            x       y       z     vdW  Elec       q    Type
REMARK                         _______ _______ _______ _____ _____    ______ ____
ROOT
ATOM      1  C   UNL     1       0.456   9.717  21.110  0.00  0.00    +0.000 A 
ATOM      2  C   UNL     1      -0.047   9.212  22.318  0.00  0.00    +0.000 A 
ATOM      3  C   UNL     1      -0.940   9.965  23.089  0.00  0.00    +0.000 A 
ATOM      4  C   UNL     1      -1.307  11.254  22.687  0.00  0.00    +0.000 A 
ATOM      5  C   UNL     1      -0.775  11.784  21.508  0.00  0.00    +0.000 A 
ATOM      6  C   UNL     1       0.054  10.997  20.693  0.00  0.00    +0.000 A 
ENDROOT
BRANCH   1  12
ATOM      7  C   UNL     1       3.305   5.475  18.590  0.00  0.00    +0.000 A 
ATOM      8  N   UNL     1       2.604   4.655  19.355  0.00  0.00    +0.000 NA
ATOM      9  N   UNL     1       2.013   5.375  20.352  0.00  0.00    +0.000 NA
ATOM     10  C   UNL     1       2.269   6.638  20.132  0.00  0.00    +0.000 A 
ATOM     11  N   UNL     1       1.720   7.646  20.878  0.00  0.00    +0.000 N 
ATOM     12  C   UNL     1       1.451   8.885  20.346  0.00  0.00    +0.000 C 
ATOM     13  O   UNL     1       1.901   9.283  19.273  0.00  0.00    +0.000 OA
ATOM     14  N   UNL     1       3.112   6.756  19.057  0.00  0.00    +0.000 N 
ATOM     15  H   UNL     1       1.183   7.288  21.655  0.00  0.00    +0.000 HD
ATOM     16  H   UNL     1       3.494   7.619  18.700  0.00  0.00    +0.000 HD
BRANCH   7  21
ATOM     17  C   UNL     1       6.206   4.044  13.795  0.00  0.00    +0.000 C 
ATOM     18  C   UNL     1       5.522   4.381  15.088  0.00  0.00    +0.000 A 
ATOM     19  C   UNL     1       5.416   5.709  15.499  0.00  0.00    +0.000 A 
ATOM     20  C   UNL     1       4.734   6.026  16.674  0.00  0.00    +0.000 A 
ATOM     21  C   UNL     1       4.141   5.033  17.472  0.00  0.00    +0.000 A 
ATOM     22  C   UNL     1       4.295   3.697  17.088  0.00  0.00    +0.000 A 
ATOM     23  C   UNL     1       4.979   3.376  15.902  0.00  0.00    +0.000 A 
ENDBRANCH   7  21
ENDBRANCH   1  12
BRANCH   5  24
ATOM     24  S   UNL     1      -1.174  13.461  20.970  0.00  0.00    +0.000 S 
ATOM     25  O   UNL     1      -1.492  14.201  22.168  0.00  0.00    +0.000 OA
ATOM     26  O   UNL     1      -0.085  13.875  20.100  0.00  0.00    +0.000 OA
BRANCH  24  27
ATOM     27  N   UNL     1      -2.560  13.198  20.046  0.00  0.00    +0.000 N 
ATOM     28  C   UNL     1      -3.885  13.382  20.696  0.00  0.00    +0.000 C 
ATOM     29  C   UNL     1      -4.818  12.320  20.100  0.00  0.00    +0.000 C 
ATOM     30  C   UNL     1      -4.017  11.767  18.970  0.00  0.00    +0.000 A 
ATOM     31  C   UNL     1      -4.487  10.904  17.987  0.00  0.00    +0.000 A 
ATOM     32  C   UNL     1      -3.629  10.550  16.950  0.00  0.00    +0.000 A 
ATOM     33  C   UNL     1      -2.319  11.054  16.934  0.00  0.00    +0.000 A 
ATOM     34  C   UNL     1      -1.842  11.898  17.962  0.00  0.00    +0.000 A 
ATOM     35  C   UNL     1      -2.699  12.233  18.993  0.00  0.00    +0.000 A 
ENDBRANCH  24  27
ENDBRANCH   5  24
TORSDOF 4
ENDMDL
MODEL 6
REMARK VINA RESULT:      -9.6      7.651     11.353
REMARK  Name = 
REMARK  5 active torsions:
REMARK  status: ('A' for Active; 'I' for Inactive)
REMARK    1  A    between atoms: C_1  and  C_2
REMARK    2  A    between atoms: C_5  and  C_6
REMARK    3  A    between atoms: C_11  and  C_13
REMARK    4  A    between atoms: C_17  and  S_18
REMARK    5  A    between atoms: S_18  and  N_21
REMARK                            x       y       z     vdW  Elec       q    Type
REMARK                         _______ _______ _______ _____ _____    ______ ____
ROOT
ATOM      1  C   UNL     1       0.212   9.830  21.238  0.00  0.00    +0.000 A 
ATOM      2  C   UNL     1       0.069   9.434  22.576  0.00  0.00    +0.000 A 
ATOM      3  C   UNL     1      -0.804  10.114  23.432  0.00  0.00    +0.000 A 
ATOM      4  C   UNL     1      -1.514  11.231  22.975  0.00  0.00    +0.000 A 
ATOM      5  C   UNL     1      -1.344  11.660  21.656  0.00  0.00    +0.000 A 
ATOM      6  C   UNL     1      -0.533  10.929  20.775  0.00  0.00    +0.000 A 
ENDROOT
BRANCH   1  12
ATOM      7  C   UNL     1       3.227   5.866  18.472  0.00  0.00    +0.000 A 
ATOM      8  N   UNL     1       2.720   4.995  19.329  0.00  0.00    +0.000 NA
ATOM      9  N   UNL     1       2.169   5.673  20.377  0.00  0.00    +0.000 NA
ATOM     10  C   UNL     1       2.248   6.950  20.105  0.00  0.00    +0.000 A 
ATOM     11  N   UNL     1       1.675   7.911  20.894  0.00  0.00    +0.000 N 
ATOM     12  C   UNL     1       1.202   9.094  20.375  0.00  0.00    +0.000 C 
ATOM     13  O   UNL     1       1.474   9.507  19.250  0.00  0.00    +0.000 OA
ATOM     14  N   UNL     1       2.941   7.130  18.935  0.00  0.00    +0.000 N 
ATOM     15  H   UNL     1       1.278   7.519  21.735  0.00  0.00    +0.000 HD
ATOM     16  H   UNL     1       3.175   8.019  18.521  0.00  0.00    +0.000 HD
BRANCH   7  21
ATOM     17  C   UNL     1       6.572   4.056  14.113  0.00  0.00    +0.000 C 
ATOM     18  C   UNL     1       5.644   4.555  15.182  0.00  0.00    +0.000 A 
ATOM     19  C   UNL     1       4.936   3.651  15.974  0.00  0.00    +0.000 A 
ATOM     20  C   UNL     1       4.114   4.114  17.002  0.00  0.00    +0.000 A 
ATOM     21  C   UNL     1       3.973   5.487  17.270  0.00  0.00    +0.000 A 
ATOM     22  C   UNL     1       4.640   6.394  16.441  0.00  0.00    +0.000 A 
ATOM     23  C   UNL     1       5.472   5.929  15.407  0.00  0.00    +0.000 A 
ENDBRANCH   7  21
ENDBRANCH   1  12
BRANCH   5  24
ATOM     24  S   UNL     1      -2.196  13.124  21.030  0.00  0.00    +0.000 S 
ATOM     25  O   UNL     1      -2.060  14.135  22.053  0.00  0.00    +0.000 OA
ATOM     26  O   UNL     1      -1.685  13.344  19.686  0.00  0.00    +0.000 OA
BRANCH  24  27
ATOM     27  N   UNL     1      -3.788  12.577  20.941  0.00  0.00    +0.000 N 
ATOM     28  C   UNL     1      -4.409  12.436  19.596  0.00  0.00    +0.000 C 
ATOM     29  C   UNL     1      -5.885  12.826  19.752  0.00  0.00    +0.000 C 
ATOM     30  C   UNL     1      -6.051  12.922  21.231  0.00  0.00    +0.000 A 
ATOM     31  C   UNL     1      -7.260  13.060  21.905  0.00  0.00    +0.000 A 
ATOM     32  C   UNL     1      -7.247  13.048  23.296  0.00  0.00    +0.000 A 
ATOM     33  C   UNL     1      -6.026  12.916  23.976  0.00  0.00    +0.000 A 
ATOM     34  C   UNL     1      -4.801  12.817  23.278  0.00  0.00    +0.000 A 
ATOM     35  C   UNL     1      -4.825  12.842  21.896  0.00  0.00    +0.000 A 
ENDBRANCH  24  27
ENDBRANCH   5  24
TORSDOF 4
ENDMDL
MODEL 7
REMARK VINA RESULT:      -9.5      7.427     11.233
REMARK  Name = 
REMARK  5 active torsions:
REMARK  status: ('A' for Active; 'I' for Inactive)
REMARK    1  A    between atoms: C_1  and  C_2
REMARK    2  A    between atoms: C_5  and  C_6
REMARK    3  A    between atoms: C_11  and  C_13
REMARK    4  A    between atoms: C_17  and  S_18
REMARK    5  A    between atoms: S_18  and  N_21
REMARK                            x       y       z     vdW  Elec       q    Type
REMARK                         _______ _______ _______ _____ _____    ______ ____
ROOT
ATOM      1  C   UNL     1       0.315   9.703  21.047  0.00  0.00    +0.000 A 
ATOM      2  C   UNL     1       0.118   9.437  22.410  0.00  0.00    +0.000 A 
ATOM      3  C   UNL     1      -0.787  10.194  23.161  0.00  0.00    +0.000 A 
ATOM      4  C   UNL     1      -1.476  11.260  22.572  0.00  0.00    +0.000 A 
ATOM      5  C   UNL     1      -1.253  11.561  21.225  0.00  0.00    +0.000 A 
ATOM      6  C   UNL     1      -0.408  10.750  20.451  0.00  0.00    +0.000 A 
ENDROOT
BRANCH   1  12
ATOM      7  C   UNL     1       3.286   5.513  18.581  0.00  0.00    +0.000 A 
ATOM      8  N   UNL     1       2.592   4.681  19.340  0.00  0.00    +0.000 NA
ATOM      9  N   UNL     1       1.973   5.392  20.326  0.00  0.00    +0.000 NA
ATOM     10  C   UNL     1       2.206   6.659  20.105  0.00  0.00    +0.000 A 
ATOM     11  N   UNL     1       1.625   7.658  20.840  0.00  0.00    +0.000 N 
ATOM     12  C   UNL     1       1.338   8.889  20.299  0.00  0.00    +0.000 C 
ATOM     13  O   UNL     1       1.794   9.293  19.231  0.00  0.00    +0.000 OA
ATOM     14  N   UNL     1       3.061   6.791  19.040  0.00  0.00    +0.000 N 
ATOM     15  H   UNL     1       1.086   7.291  21.611  0.00  0.00    +0.000 HD
ATOM     16  H   UNL     1       3.429   7.661  18.686  0.00  0.00    +0.000 HD
BRANCH   7  21
ATOM     17  C   UNL     1       6.282   4.128  13.830  0.00  0.00    +0.000 C 
ATOM     18  C   UNL     1       5.573   4.454  15.113  0.00  0.00    +0.000 A 
ATOM     19  C   UNL     1       5.434   5.781  15.519  0.00  0.00    +0.000 A 
ATOM     20  C   UNL     1       4.730   6.087  16.683  0.00  0.00    +0.000 A 
ATOM     21  C   UNL     1       4.146   5.084  17.476  0.00  0.00    +0.000 A 
ATOM     22  C   UNL     1       4.333   3.751  17.098  0.00  0.00    +0.000 A 
ATOM     23  C   UNL     1       5.039   3.441  15.922  0.00  0.00    +0.000 A 
ENDBRANCH   7  21
ENDBRANCH   1  12
BRANCH   5  24
ATOM     24  S   UNL     1      -2.076  12.957  20.428  0.00  0.00    +0.000 S 
ATOM     25  O   UNL     1      -2.054  14.037  21.388  0.00  0.00    +0.000 OA
ATOM     26  O   UNL     1      -1.450  13.102  19.123  0.00  0.00    +0.000 OA
BRANCH  24  27
ATOM     27  N   UNL     1      -3.641  12.361  20.236  0.00  0.00    +0.000 N 
ATOM     28  C   UNL     1      -4.101  12.024  18.862  0.00  0.00    +0.000 C 
ATOM     29  C   UNL     1      -5.590  12.393  18.795  0.00  0.00    +0.000 C 
ATOM     30  C   UNL     1      -5.926  12.684  20.218  0.00  0.00    +0.000 A 
ATOM     31  C   UNL     1      -7.206  12.881  20.726  0.00  0.00    +0.000 A 
ATOM     32  C   UNL     1      -7.353  13.056  22.098  0.00  0.00    +0.000 A 
ATOM     33  C   UNL     1      -6.218  13.049  22.924  0.00  0.00    +0.000 A 
ATOM     34  C   UNL     1      -4.919  12.889  22.388  0.00  0.00    +0.000 A 
ATOM     35  C   UNL     1      -4.784  12.727  21.022  0.00  0.00    +0.000 A 
ENDBRANCH  24  27
ENDBRANCH   5  24
TORSDOF 4
ENDMDL
MODEL 8
REMARK VINA RESULT:      -9.3      4.595      8.982
REMARK  Name = 
REMARK  5 active torsions:
REMARK  status: ('A' for Active; 'I' for Inactive)
REMARK    1  A    between atoms: C_1  and  C_2
REMARK    2  A    between atoms: C_5  and  C_6
REMARK    3  A    between atoms: C_11  and  C_13
REMARK    4  A    between atoms: C_17  and  S_18
REMARK    5  A    between atoms: S_18  and  N_21
REMARK                            x       y       z     vdW  Elec       q    Type
REMARK                         _______ _______ _______ _____ _____    ______ ____
ROOT
ATOM      1  C   UNL     1       2.868   5.890  18.634  0.00  0.00    +0.000 A 
ATOM      2  C   UNL     1       2.366   4.601  18.864  0.00  0.00    +0.000 A 
ATOM      3  C   UNL     1       2.902   3.496  18.193  0.00  0.00    +0.000 A 
ATOM      4  C   UNL     1       3.918   3.669  17.246  0.00  0.00    +0.000 A 
ATOM      5  C   UNL     1       4.394   4.956  16.977  0.00  0.00    +0.000 A 
ATOM      6  C   UNL     1       3.915   6.053  17.710  0.00  0.00    +0.000 A 
ENDROOT
BRANCH   1  12
ATOM      7  C   UNL     1      -0.107  10.557  19.983  0.00  0.00    +0.000 A 
ATOM      8  N   UNL     1      -0.114  10.831  18.689  0.00  0.00    +0.000 NA
ATOM      9  N   UNL     1       0.816  10.052  18.066  0.00  0.00    +0.000 NA
ATOM     10  C   UNL     1       1.309   9.235  18.960  0.00  0.00    +0.000 A 
ATOM     11  N   UNL     1       2.181   8.229  18.642  0.00  0.00    +0.000 N 
ATOM     12  C   UNL     1       2.222   7.048  19.346  0.00  0.00    +0.000 C 
ATOM     13  O   UNL     1       1.694   6.886  20.445  0.00  0.00    +0.000 OA
ATOM     14  N   UNL     1       0.791   9.536  20.194  0.00  0.00    +0.000 N 
ATOM     15  H   UNL     1       2.456   8.263  17.671  0.00  0.00    +0.000 HD
ATOM     16  H   UNL     1       1.035   9.082  21.061  0.00  0.00    +0.000 HD
BRANCH   7  21
ATOM     17  C   UNL     1      -3.595  12.812  24.010  0.00  0.00    +0.000 C 
ATOM     18  C   UNL     1      -2.645  12.306  22.963  0.00  0.00    +0.000 A 
ATOM     19  C   UNL     1      -1.686  11.348  23.292  0.00  0.00    +0.000 A 
ATOM     20  C   UNL     1      -0.839  10.840  22.307  0.00  0.00    +0.000 A 
ATOM     21  C   UNL     1      -0.920  11.270  20.971  0.00  0.00    +0.000 A 
ATOM     22  C   UNL     1      -1.844  12.269  20.654  0.00  0.00    +0.000 A 
ATOM     23  C   UNL     1      -2.703  12.780  21.645  0.00  0.00    +0.000 A 
ENDBRANCH   7  21
ENDBRANCH   1  12
BRANCH   5  24
ATOM     24  S   UNL     1       5.667   5.242  15.728  0.00  0.00    +0.000 S 
ATOM     25  O   UNL     1       5.805   4.000  15.005  0.00  0.00    +0.000 OA
ATOM     26  O   UNL     1       5.292   6.470  15.044  0.00  0.00    +0.000 OA
BRANCH  24  27
ATOM     27  N   UNL     1       7.023   5.528  16.688  0.00  0.00    +0.000 N 
ATOM     28  C   UNL     1       7.523   4.421  17.547  0.00  0.00    +0.000 C 
ATOM     29  C   UNL     1       8.036   5.069  18.841  0.00  0.00    +0.000 C 
ATOM     30  C   UNL     1       8.017   6.524  18.518  0.00  0.00    +0.000 A 
ATOM     31  C   UNL     1       8.572   7.536  19.293  0.00  0.00    +0.000 A 
ATOM     32  C   UNL     1       8.543   8.838  18.803  0.00  0.00    +0.000 A 
ATOM     33  C   UNL     1       7.943   9.096  17.561  0.00  0.00    +0.000 A 
ATOM     34  C   UNL     1       7.345   8.064  16.802  0.00  0.00    +0.000 A 
ATOM     35  C   UNL     1       7.370   6.776  17.304  0.00  0.00    +0.000 A 
ENDBRANCH  24  27
ENDBRANCH   5  24
TORSDOF 4
ENDMDL
MODEL 9
REMARK VINA RESULT:      -9.3      7.722     11.536
REMARK  Name = 
REMARK  5 active torsions:
REMARK  status: ('A' for Active; 'I' for Inactive)
REMARK    1  A    between atoms: C_1  and  C_2
REMARK    2  A    between atoms: C_5  and  C_6
REMARK    3  A    between atoms: C_11  and  C_13
REMARK    4  A    between atoms: C_17  and  S_18
REMARK    5  A    between atoms: S_18  and  N_21
REMARK                            x       y       z     vdW  Elec       q    Type
REMARK                         _______ _______ _______ _____ _____    ______ ____
ROOT
ATOM      1  C   UNL     1       0.304   9.677  21.188  0.00  0.00    +0.000 A 
ATOM      2  C   UNL     1       0.177   9.264  22.522  0.00  0.00    +0.000 A 
ATOM      3  C   UNL     1      -0.696   9.924  23.393  0.00  0.00    +0.000 A 
ATOM      4  C   UNL     1      -1.423  11.038  22.956  0.00  0.00    +0.000 A 
ATOM      5  C   UNL     1      -1.268  11.484  21.640  0.00  0.00    +0.000 A 
ATOM      6  C   UNL     1      -0.456  10.772  20.744  0.00  0.00    +0.000 A 
ENDROOT
BRANCH   1  12
ATOM      7  C   UNL     1       3.355   5.776  18.371  0.00  0.00    +0.000 A 
ATOM      8  N   UNL     1       2.881   4.895  19.236  0.00  0.00    +0.000 NA
ATOM      9  N   UNL     1       2.333   5.562  20.293  0.00  0.00    +0.000 NA
ATOM     10  C   UNL     1       2.381   6.840  20.021  0.00  0.00    +0.000 A 
ATOM     11  N   UNL     1       1.801   7.788  20.819  0.00  0.00    +0.000 N 
ATOM     12  C   UNL     1       1.295   8.961  20.309  0.00  0.00    +0.000 C 
ATOM     13  O   UNL     1       1.540   9.381  19.179  0.00  0.00    +0.000 OA
ATOM     14  N   UNL     1       3.050   7.034  18.840  0.00  0.00    +0.000 N 
ATOM     15  H   UNL     1       1.426   7.388  21.667  0.00  0.00    +0.000 HD
ATOM     16  H   UNL     1       3.259   7.928  18.422  0.00  0.00    +0.000 HD
BRANCH   7  21
ATOM     17  C   UNL     1       6.666   4.038  13.957  0.00  0.00    +0.000 C 
ATOM     18  C   UNL     1       5.745   4.518  15.041  0.00  0.00    +0.000 A 
ATOM     19  C   UNL     1       5.072   3.598  15.846  0.00  0.00    +0.000 A 
ATOM     20  C   UNL     1       4.258   4.044  16.888  0.00  0.00    +0.000 A 
ATOM     21  C   UNL     1       4.089   5.413  17.157  0.00  0.00    +0.000 A 
ATOM     22  C   UNL     1       4.721   6.334  16.316  0.00  0.00    +0.000 A 
ATOM     23  C   UNL     1       5.545   5.887  15.268  0.00  0.00    +0.000 A 
ENDBRANCH   7  21
ENDBRANCH   1  12
BRANCH   5  24
ATOM     24  S   UNL     1      -2.141  12.946  21.038  0.00  0.00    +0.000 S 
ATOM     25  O   UNL     1      -1.123  13.921  20.725  0.00  0.00    +0.000 OA
ATOM     26  O   UNL     1      -3.064  12.473  20.019  0.00  0.00    +0.000 OA
BRANCH  24  27
ATOM     27  N   UNL     1      -3.010  13.408  22.408  0.00  0.00    +0.000 N 
ATOM     28  C   UNL     1      -4.494  13.450  22.318  0.00  0.00    +0.000 C 
ATOM     29  C   UNL     1      -4.952  14.636  23.178  0.00  0.00    +0.000 C 
ATOM     30  C   UNL     1      -3.704  15.032  23.893  0.00  0.00    +0.000 A 
ATOM     31  C   UNL     1      -3.624  15.940  24.943  0.00  0.00    +0.000 A 
ATOM     32  C   UNL     1      -2.391  16.133  25.559  0.00  0.00    +0.000 A 
ATOM     33  C   UNL     1      -1.269  15.426  25.098  0.00  0.00    +0.000 A 
ATOM     34  C   UNL     1      -1.358  14.537  24.003  0.00  0.00    +0.000 A 
ATOM     35  C   UNL     1      -2.585  14.363  23.391  0.00  0.00    +0.000 A 
ENDBRANCH  24  27
ENDBRANCH   5  24
TORSDOF 4
ENDMDL
