MODEL 1
REMARK VINA RESULT:      -6.1      0.000      0.000
REMARK  Name = 
REMARK  16 active torsions:
REMARK  status: ('A' for Active; 'I' for Inactive)
REMARK    1  A    between atoms: C_2  and  C_3
REMARK    2  A    between atoms: C_3  and  N_4
REMARK    3  A    between atoms: N_4  and  C_5
REMARK    4  A    between atoms: C_10  and  C_12
REMARK    5  A    between atoms: C_12  and  C_13
REMARK    6  A    between atoms: C_13  and  C_14
REMARK    7  A    between atoms: C_14  and  C_15
REMARK    8  A    between atoms: C_15  and  C_16
REMARK    9  A    between atoms: C_16  and  C_17
REMARK   10  A    between atoms: C_17  and  C_18
REMARK   11  A    between atoms: C_18  and  C_19
REMARK   12  A    between atoms: C_19  and  C_20
REMARK   13  A    between atoms: C_20  and  C_21
REMARK   14  A    between atoms: C_21  and  C_22
REMARK   15  A    between atoms: C_22  and  C_23
REMARK   16  A    between atoms: C_23  and  C_24
REMARK                            x       y       z     vdW  Elec       q    Type
REMARK                         _______ _______ _______ _____ _____    ______ ____
ROOT
ATOM      1  N   UNL     1       6.015   5.884  17.386  0.00  0.00    +0.000 N 
ATOM      2  C   UNL     1       5.047   7.064  17.584  0.00  0.00    +0.000 C 
ATOM      3  C   UNL     1       5.587   5.086  16.151  0.00  0.00    +0.000 C 
ATOM      4  C   UNL     1       4.256   4.362  16.312  0.00  0.00    +0.000 C 
ATOM      5  C   UNL     1       4.387   3.134  17.211  0.00  0.00    +0.000 C 
ATOM      6  N   UNL     1       4.160   3.401  18.632  0.00  0.00    +0.000 N 
ATOM      7  C   UNL     1       3.435   2.457  19.365  0.00  0.00    +0.000 C 
ATOM      8  O   UNL     1       3.016   1.430  18.837  0.00  0.00    +0.000 OA
ATOM      9  C   UNL     1       4.746   4.593  19.241  0.00  0.00    +0.000 C 
ATOM     10  C   UNL     1       6.110   5.008  18.657  0.00  0.00    +0.000 C 
ENDROOT
BRANCH   1  11
ATOM     11  C   UNL     1       7.420   6.517  17.134  0.00  0.00    +0.000 C 
BRANCH  11  13
ATOM     12  C   UNL     1       8.237   8.740  18.008  0.00  0.00    +0.000 C 
ATOM     13  C   UNL     1       7.933   7.433  18.202  0.00  0.00    +0.000 C 
ENDBRANCH  11  13
ENDBRANCH   1  11
BRANCH   7  14
ATOM     14  C   UNL     1       3.199   2.750  20.832  0.00  0.00    +0.000 C 
BRANCH  14  15
ATOM     15  C   UNL     1       1.723   2.990  21.139  0.00  0.00    +0.000 C 
BRANCH  15  16
ATOM     16  C   UNL     1       1.108   4.013  20.191  0.00  0.00    +0.000 C 
BRANCH  16  17
ATOM     17  C   UNL     1       1.325   5.429  20.711  0.00  0.00    +0.000 C 
BRANCH  17  18
ATOM     18  C   UNL     1       2.080   6.267  19.700  0.00  0.00    +0.000 C 
BRANCH  18  19
ATOM     19  C   UNL     1       1.948   7.742  20.043  0.00  0.00    +0.000 C 
BRANCH  19  20
ATOM     20  C   UNL     1       1.134   7.909  21.315  0.00  0.00    +0.000 C 
BRANCH  20  21
ATOM     21  C   UNL     1       0.587   9.323  21.402  0.00  0.00    +0.000 C 
BRANCH  21  22
ATOM     22  C   UNL     1       0.602   9.976  20.030  0.00  0.00    +0.000 C 
BRANCH  22  23
ATOM     23  C   UNL     1      -0.567  10.938  19.894  0.00  0.00    +0.000 C 
BRANCH  23  24
ATOM     24  C   UNL     1      -1.478  10.503  18.756  0.00  0.00    +0.000 C 
BRANCH  24  25
ATOM     25  C   UNL     1      -1.640  11.625  17.740  0.00  0.00    +0.000 C 
ATOM     26  C   UNL     1      -0.943  12.883  18.221  0.00  0.00    +0.000 C 
ENDBRANCH  24  25
ENDBRANCH  23  24
ENDBRANCH  22  23
ENDBRANCH  21  22
ENDBRANCH  20  21
ENDBRANCH  19  20
ENDBRANCH  18  19
ENDBRANCH  17  18
ENDBRANCH  16  17
ENDBRANCH  15  16
ENDBRANCH  14  15
ENDBRANCH   7  14
TORSDOF 14
ENDMDL
MODEL 2
REMARK VINA RESULT:      -5.8      0.950      1.250
REMARK  Name = 
REMARK  16 active torsions:
REMARK  status: ('A' for Active; 'I' for Inactive)
REMARK    1  A    between atoms: C_2  and  C_3
REMARK    2  A    between atoms: C_3  and  N_4
REMARK    3  A    between atoms: N_4  and  C_5
REMARK    4  A    between atoms: C_10  and  C_12
REMARK    5  A    between atoms: C_12  and  C_13
REMARK    6  A    between atoms: C_13  and  C_14
REMARK    7  A    between atoms: C_14  and  C_15
REMARK    8  A    between atoms: C_15  and  C_16
REMARK    9  A    between atoms: C_16  and  C_17
REMARK   10  A    between atoms: C_17  and  C_18
REMARK   11  A    between atoms: C_18  and  C_19
REMARK   12  A    between atoms: C_19  and  C_20
REMARK   13  A    between atoms: C_20  and  C_21
REMARK   14  A    between atoms: C_21  and  C_22
REMARK   15  A    between atoms: C_22  and  C_23
REMARK   16  A    between atoms: C_23  and  C_24
REMARK                            x       y       z     vdW  Elec       q    Type
REMARK                         _______ _______ _______ _____ _____    ______ ____
ROOT
ATOM      1  N   UNL     1       5.936   5.810  17.333  0.00  0.00    +0.000 N 
ATOM      2  C   UNL     1       4.919   6.959  17.449  0.00  0.00    +0.000 C 
ATOM      3  C   UNL     1       5.592   4.957  16.108  0.00  0.00    +0.000 C 
ATOM      4  C   UNL     1       4.281   4.191  16.236  0.00  0.00    +0.000 C 
ATOM      5  C   UNL     1       4.416   2.998  17.181  0.00  0.00    +0.000 C 
ATOM      6  N   UNL     1       4.117   3.302  18.581  0.00  0.00    +0.000 N 
ATOM      7  C   UNL     1       3.394   2.356  19.314  0.00  0.00    +0.000 C 
ATOM      8  O   UNL     1       3.035   1.297  18.803  0.00  0.00    +0.000 OA
ATOM      9  C   UNL     1       4.633   4.534  19.174  0.00  0.00    +0.000 C 
ATOM     10  C   UNL     1       6.005   4.980  18.636  0.00  0.00    +0.000 C 
ENDROOT
BRANCH   1  11
ATOM     11  C   UNL     1       7.328   6.486  17.121  0.00  0.00    +0.000 C 
BRANCH  11  13
ATOM     12  C   UNL     1       8.409   8.481  18.227  0.00  0.00    +0.000 C 
ATOM     13  C   UNL     1       7.418   7.938  17.478  0.00  0.00    +0.000 C 
ENDBRANCH  11  13
ENDBRANCH   1  11
BRANCH   7  14
ATOM     14  C   UNL     1       3.082   2.688  20.758  0.00  0.00    +0.000 C 
BRANCH  14  15
ATOM     15  C   UNL     1       1.611   3.038  20.962  0.00  0.00    +0.000 C 
BRANCH  15  16
ATOM     16  C   UNL     1       1.178   4.199  20.074  0.00  0.00    +0.000 C 
BRANCH  16  17
ATOM     17  C   UNL     1       1.106   5.492  20.876  0.00  0.00    +0.000 C 
BRANCH  17  18
ATOM     18  C   UNL     1       1.735   6.639  20.111  0.00  0.00    +0.000 C 
BRANCH  18  19
ATOM     19  C   UNL     1       1.683   7.911  20.941  0.00  0.00    +0.000 C 
BRANCH  19  20
ATOM     20  C   UNL     1       0.896   8.981  20.204  0.00  0.00    +0.000 C 
BRANCH  20  21
ATOM     21  C   UNL     1       1.452   9.166  18.802  0.00  0.00    +0.000 C 
BRANCH  21  22
ATOM     22  C   UNL     1       1.058  10.529  18.258  0.00  0.00    +0.000 C 
BRANCH  22  23
ATOM     23  C   UNL     1      -0.431  10.762  18.454  0.00  0.00    +0.000 C 
BRANCH  23  24
ATOM     24  C   UNL     1      -1.223  10.043  17.374  0.00  0.00    +0.000 C 
BRANCH  24  25
ATOM     25  C   UNL     1      -2.350  10.927  16.856  0.00  0.00    +0.000 C 
ATOM     26  C   UNL     1      -3.163  10.192  15.807  0.00  0.00    +0.000 C 
ENDBRANCH  24  25
ENDBRANCH  23  24
ENDBRANCH  22  23
ENDBRANCH  21  22
ENDBRANCH  20  21
ENDBRANCH  19  20
ENDBRANCH  18  19
ENDBRANCH  17  18
ENDBRANCH  16  17
ENDBRANCH  15  16
ENDBRANCH  14  15
ENDBRANCH   7  14
TORSDOF 14
ENDMDL
MODEL 3
REMARK VINA RESULT:      -5.7      2.635      7.641
REMARK  Name = 
REMARK  16 active torsions:
REMARK  status: ('A' for Active; 'I' for Inactive)
REMARK    1  A    between atoms: C_2  and  C_3
REMARK    2  A    between atoms: C_3  and  N_4
REMARK    3  A    between atoms: N_4  and  C_5
REMARK    4  A    between atoms: C_10  and  C_12
REMARK    5  A    between atoms: C_12  and  C_13
REMARK    6  A    between atoms: C_13  and  C_14
REMARK    7  A    between atoms: C_14  and  C_15
REMARK    8  A    between atoms: C_15  and  C_16
REMARK    9  A    between atoms: C_16  and  C_17
REMARK   10  A    between atoms: C_17  and  C_18
REMARK   11  A    between atoms: C_18  and  C_19
REMARK   12  A    between atoms: C_19  and  C_20
REMARK   13  A    between atoms: C_20  and  C_21
REMARK   14  A    between atoms: C_21  and  C_22
REMARK   15  A    between atoms: C_22  and  C_23
REMARK   16  A    between atoms: C_23  and  C_24
REMARK                            x       y       z     vdW  Elec       q    Type
REMARK                         _______ _______ _______ _____ _____    ______ ____
ROOT
ATOM      1  N   UNL     1      -0.039  11.488  19.039  0.00  0.00    +0.000 N 
ATOM      2  C   UNL     1       1.220  12.340  18.801  0.00  0.00    +0.000 C 
ATOM      3  C   UNL     1      -0.282  11.362  20.546  0.00  0.00    +0.000 C 
ATOM      4  C   UNL     1       0.778  10.548  21.278  0.00  0.00    +0.000 C 
ATOM      5  C   UNL     1       0.629   9.052  21.005  0.00  0.00    +0.000 C 
ATOM      6  N   UNL     1       1.380   8.574  19.844  0.00  0.00    +0.000 N 
ATOM      7  C   UNL     1       2.025   7.337  19.949  0.00  0.00    +0.000 C 
ATOM      8  O   UNL     1       1.948   6.668  20.977  0.00  0.00    +0.000 OA
ATOM      9  C   UNL     1       1.377   9.360  18.613  0.00  0.00    +0.000 C 
ATOM     10  C   UNL     1       0.063  10.115  18.336  0.00  0.00    +0.000 C 
ENDROOT
BRANCH   1  11
ATOM     11  C   UNL     1      -1.221  12.274  18.387  0.00  0.00    +0.000 C 
BRANCH  11  13
ATOM     12  C   UNL     1      -3.295  11.354  17.280  0.00  0.00    +0.000 C 
ATOM     13  C   UNL     1      -2.552  11.586  18.390  0.00  0.00    +0.000 C 
ENDBRANCH  11  13
ENDBRANCH   1  11
BRANCH   7  14
ATOM     14  C   UNL     1       2.808   6.859  18.745  0.00  0.00    +0.000 C 
BRANCH  14  15
ATOM     15  C   UNL     1       1.938   6.067  17.772  0.00  0.00    +0.000 C 
BRANCH  15  16
ATOM     16  C   UNL     1       2.428   4.632  17.617  0.00  0.00    +0.000 C 
BRANCH  16  17
ATOM     17  C   UNL     1       2.090   3.811  18.855  0.00  0.00    +0.000 C 
BRANCH  17  18
ATOM     18  C   UNL     1       3.143   2.750  19.105  0.00  0.00    +0.000 C 
BRANCH  18  19
ATOM     19  C   UNL     1       4.287   3.331  19.920  0.00  0.00    +0.000 C 
BRANCH  19  20
ATOM     20  C   UNL     1       5.413   3.766  18.998  0.00  0.00    +0.000 C 
BRANCH  20  21
ATOM     21  C   UNL     1       5.806   5.203  19.295  0.00  0.00    +0.000 C 
BRANCH  21  22
ATOM     22  C   UNL     1       7.191   5.492  18.740  0.00  0.00    +0.000 C 
BRANCH  22  23
ATOM     23  C   UNL     1       7.105   5.809  17.256  0.00  0.00    +0.000 C 
BRANCH  23  24
ATOM     24  C   UNL     1       6.024   6.848  17.001  0.00  0.00    +0.000 C 
BRANCH  24  25
ATOM     25  C   UNL     1       5.194   6.471  15.782  0.00  0.00    +0.000 C 
ATOM     26  C   UNL     1       5.323   4.988  15.489  0.00  0.00    +0.000 C 
ENDBRANCH  24  25
ENDBRANCH  23  24
ENDBRANCH  22  23
ENDBRANCH  21  22
ENDBRANCH  20  21
ENDBRANCH  19  20
ENDBRANCH  18  19
ENDBRANCH  17  18
ENDBRANCH  16  17
ENDBRANCH  15  16
ENDBRANCH  14  15
ENDBRANCH   7  14
TORSDOF 14
ENDMDL
MODEL 4
REMARK VINA RESULT:      -5.7      3.640      8.900
REMARK  Name = 
REMARK  16 active torsions:
REMARK  status: ('A' for Active; 'I' for Inactive)
REMARK    1  A    between atoms: C_2  and  C_3
REMARK    2  A    between atoms: C_3  and  N_4
REMARK    3  A    between atoms: N_4  and  C_5
REMARK    4  A    between atoms: C_10  and  C_12
REMARK    5  A    between atoms: C_12  and  C_13
REMARK    6  A    between atoms: C_13  and  C_14
REMARK    7  A    between atoms: C_14  and  C_15
REMARK    8  A    between atoms: C_15  and  C_16
REMARK    9  A    between atoms: C_16  and  C_17
REMARK   10  A    between atoms: C_17  and  C_18
REMARK   11  A    between atoms: C_18  and  C_19
REMARK   12  A    between atoms: C_19  and  C_20
REMARK   13  A    between atoms: C_20  and  C_21
REMARK   14  A    between atoms: C_21  and  C_22
REMARK   15  A    between atoms: C_22  and  C_23
REMARK   16  A    between atoms: C_23  and  C_24
REMARK                            x       y       z     vdW  Elec       q    Type
REMARK                         _______ _______ _______ _____ _____    ______ ____
ROOT
ATOM      1  N   UNL     1      -1.926  11.704  18.757  0.00  0.00    +0.000 N 
ATOM      2  C   UNL     1      -0.810  12.604  18.196  0.00  0.00    +0.000 C 
ATOM      3  C   UNL     1      -2.591  12.411  19.943  0.00  0.00    +0.000 C 
ATOM      4  C   UNL     1      -1.684  12.567  21.158  0.00  0.00    +0.000 C 
ATOM      5  C   UNL     1      -1.498  11.242  21.895  0.00  0.00    +0.000 C 
ATOM      6  N   UNL     1      -0.362  10.447  21.428  0.00  0.00    +0.000 N 
ATOM      7  C   UNL     1       0.413   9.789  22.388  0.00  0.00    +0.000 C 
ATOM      8  O   UNL     1       0.138   9.864  23.583  0.00  0.00    +0.000 OA
ATOM      9  C   UNL     1      -0.119  10.316  19.993  0.00  0.00    +0.000 C 
ATOM     10  C   UNL     1      -1.392  10.300  19.125  0.00  0.00    +0.000 C 
ENDROOT
BRANCH   1  11
ATOM     11  C   UNL     1      -2.966  11.535  17.605  0.00  0.00    +0.000 C 
BRANCH  11  13
ATOM     12  C   UNL     1      -5.397  12.081  17.200  0.00  0.00    +0.000 C 
ATOM     13  C   UNL     1      -4.408  11.612  18.001  0.00  0.00    +0.000 C 
ENDBRANCH  11  13
ENDBRANCH   1  11
BRANCH   7  14
ATOM     14  C   UNL     1       1.592   8.979  21.892  0.00  0.00    +0.000 C 
BRANCH  14  15
ATOM     15  C   UNL     1       1.158   7.826  20.990  0.00  0.00    +0.000 C 
BRANCH  15  16
ATOM     16  C   UNL     1       2.236   7.467  19.975  0.00  0.00    +0.000 C 
BRANCH  16  17
ATOM     17  C   UNL     1       2.282   5.962  19.745  0.00  0.00    +0.000 C 
BRANCH  17  18
ATOM     18  C   UNL     1       1.374   5.238  20.719  0.00  0.00    +0.000 C 
BRANCH  18  19
ATOM     19  C   UNL     1       2.092   4.035  21.307  0.00  0.00    +0.000 C 
BRANCH  19  20
ATOM     20  C   UNL     1       1.317   2.765  20.999  0.00  0.00    +0.000 C 
BRANCH  20  21
ATOM     21  C   UNL     1       1.675   2.258  19.613  0.00  0.00    +0.000 C 
BRANCH  21  22
ATOM     22  C   UNL     1       3.185   2.229  19.440  0.00  0.00    +0.000 C 
BRANCH  22  23
ATOM     23  C   UNL     1       3.544   2.206  17.963  0.00  0.00    +0.000 C 
BRANCH  23  24
ATOM     24  C   UNL     1       2.964   3.424  17.262  0.00  0.00    +0.000 C 
BRANCH  24  25
ATOM     25  C   UNL     1       4.070   4.398  16.877  0.00  0.00    +0.000 C 
ATOM     26  C   UNL     1       5.317   4.139  17.701  0.00  0.00    +0.000 C 
ENDBRANCH  24  25
ENDBRANCH  23  24
ENDBRANCH  22  23
ENDBRANCH  21  22
ENDBRANCH  20  21
ENDBRANCH  19  20
ENDBRANCH  18  19
ENDBRANCH  17  18
ENDBRANCH  16  17
ENDBRANCH  15  16
ENDBRANCH  14  15
ENDBRANCH   7  14
TORSDOF 14
ENDMDL
MODEL 5
REMARK VINA RESULT:      -5.7      2.685      8.025
REMARK  Name = 
REMARK  16 active torsions:
REMARK  status: ('A' for Active; 'I' for Inactive)
REMARK    1  A    between atoms: C_2  and  C_3
REMARK    2  A    between atoms: C_3  and  N_4
REMARK    3  A    between atoms: N_4  and  C_5
REMARK    4  A    between atoms: C_10  and  C_12
REMARK    5  A    between atoms: C_12  and  C_13
REMARK    6  A    between atoms: C_13  and  C_14
REMARK    7  A    between atoms: C_14  and  C_15
REMARK    8  A    between atoms: C_15  and  C_16
REMARK    9  A    between atoms: C_16  and  C_17
REMARK   10  A    between atoms: C_17  and  C_18
REMARK   11  A    between atoms: C_18  and  C_19
REMARK   12  A    between atoms: C_19  and  C_20
REMARK   13  A    between atoms: C_20  and  C_21
REMARK   14  A    between atoms: C_21  and  C_22
REMARK   15  A    between atoms: C_22  and  C_23
REMARK   16  A    between atoms: C_23  and  C_24
REMARK                            x       y       z     vdW  Elec       q    Type
REMARK                         _______ _______ _______ _____ _____    ______ ____
ROOT
ATOM      1  N   UNL     1      -0.120  11.481  19.584  0.00  0.00    +0.000 N 
ATOM      2  C   UNL     1       1.043  12.489  19.556  0.00  0.00    +0.000 C 
ATOM      3  C   UNL     1      -0.239  10.892  20.993  0.00  0.00    +0.000 C 
ATOM      4  C   UNL     1       0.937  10.011  21.397  0.00  0.00    +0.000 C 
ATOM      5  C   UNL     1       0.893   8.655  20.694  0.00  0.00    +0.000 C 
ATOM      6  N   UNL     1       1.595   8.619  19.411  0.00  0.00    +0.000 N 
ATOM      7  C   UNL     1       2.346   7.479  19.110  0.00  0.00    +0.000 C 
ATOM      8  O   UNL     1       2.402   6.533  19.892  0.00  0.00    +0.000 OA
ATOM      9  C   UNL     1       1.435   9.729  18.474  0.00  0.00    +0.000 C 
ATOM     10  C   UNL     1       0.045  10.393  18.497  0.00  0.00    +0.000 C 
ENDROOT
BRANCH   1  11
ATOM     11  C   UNL     1      -1.408  12.299  19.253  0.00  0.00    +0.000 C 
BRANCH  11  13
ATOM     12  C   UNL     1      -2.712  13.699  20.900  0.00  0.00    +0.000 C 
ATOM     13  C   UNL     1      -2.375  12.492  20.380  0.00  0.00    +0.000 C 
ENDBRANCH  11  13
ENDBRANCH   1  11
BRANCH   7  14
ATOM     14  C   UNL     1       3.075   7.459  17.783  0.00  0.00    +0.000 C 
BRANCH  14  15
ATOM     15  C   UNL     1       4.520   6.987  17.929  0.00  0.00    +0.000 C 
BRANCH  15  16
ATOM     16  C   UNL     1       5.173   6.744  16.573  0.00  0.00    +0.000 C 
BRANCH  16  17
ATOM     17  C   UNL     1       6.561   6.141  16.744  0.00  0.00    +0.000 C 
BRANCH  17  18
ATOM     18  C   UNL     1       6.585   4.697  16.285  0.00  0.00    +0.000 C 
BRANCH  18  19
ATOM     19  C   UNL     1       5.216   4.294  15.760  0.00  0.00    +0.000 C 
BRANCH  19  20
ATOM     20  C   UNL     1       4.677   3.122  16.563  0.00  0.00    +0.000 C 
BRANCH  20  21
ATOM     21  C   UNL     1       3.835   3.628  17.722  0.00  0.00    +0.000 C 
BRANCH  21  22
ATOM     22  C   UNL     1       2.386   3.780  17.289  0.00  0.00    +0.000 C 
BRANCH  22  23
ATOM     23  C   UNL     1       1.455   3.444  18.443  0.00  0.00    +0.000 C 
BRANCH  23  24
ATOM     24  C   UNL     1       1.891   2.149  19.111  0.00  0.00    +0.000 C 
BRANCH  24  25
ATOM     25  C   UNL     1       2.208   2.385  20.582  0.00  0.00    +0.000 C 
ATOM     26  C   UNL     1       1.340   3.497  21.141  0.00  0.00    +0.000 C 
ENDBRANCH  24  25
ENDBRANCH  23  24
ENDBRANCH  22  23
ENDBRANCH  21  22
ENDBRANCH  20  21
ENDBRANCH  19  20
ENDBRANCH  18  19
ENDBRANCH  17  18
ENDBRANCH  16  17
ENDBRANCH  15  16
ENDBRANCH  14  15
ENDBRANCH   7  14
TORSDOF 14
ENDMDL
MODEL 6
REMARK VINA RESULT:      -5.7      2.104      2.490
REMARK  Name = 
REMARK  16 active torsions:
REMARK  status: ('A' for Active; 'I' for Inactive)
REMARK    1  A    between atoms: C_2  and  C_3
REMARK    2  A    between atoms: C_3  and  N_4
REMARK    3  A    between atoms: N_4  and  C_5
REMARK    4  A    between atoms: C_10  and  C_12
REMARK    5  A    between atoms: C_12  and  C_13
REMARK    6  A    between atoms: C_13  and  C_14
REMARK    7  A    between atoms: C_14  and  C_15
REMARK    8  A    between atoms: C_15  and  C_16
REMARK    9  A    between atoms: C_16  and  C_17
REMARK   10  A    between atoms: C_17  and  C_18
REMARK   11  A    between atoms: C_18  and  C_19
REMARK   12  A    between atoms: C_19  and  C_20
REMARK   13  A    between atoms: C_20  and  C_21
REMARK   14  A    between atoms: C_21  and  C_22
REMARK   15  A    between atoms: C_22  and  C_23
REMARK   16  A    between atoms: C_23  and  C_24
REMARK                            x       y       z     vdW  Elec       q    Type
REMARK                         _______ _______ _______ _____ _____    ______ ____
ROOT
ATOM      1  N   UNL     1       6.144   5.855  17.408  0.00  0.00    +0.000 N 
ATOM      2  C   UNL     1       5.496   6.893  16.475  0.00  0.00    +0.000 C 
ATOM      3  C   UNL     1       6.568   4.635  16.584  0.00  0.00    +0.000 C 
ATOM      4  C   UNL     1       5.401   3.840  16.010  0.00  0.00    +0.000 C 
ATOM      5  C   UNL     1       4.693   3.020  17.087  0.00  0.00    +0.000 C 
ATOM      6  N   UNL     1       3.597   3.722  17.756  0.00  0.00    +0.000 N 
ATOM      7  C   UNL     1       2.437   2.997  18.041  0.00  0.00    +0.000 C 
ATOM      8  O   UNL     1       2.347   1.805  17.754  0.00  0.00    +0.000 OA
ATOM      9  C   UNL     1       3.775   5.116  18.155  0.00  0.00    +0.000 C 
ATOM     10  C   UNL     1       5.208   5.485  18.582  0.00  0.00    +0.000 C 
ENDROOT
BRANCH   1  11
ATOM     11  C   UNL     1       7.412   6.544  18.005  0.00  0.00    +0.000 C 
BRANCH  11  13
ATOM     12  C   UNL     1       8.212   8.934  18.142  0.00  0.00    +0.000 C 
ATOM     13  C   UNL     1       7.778   7.873  17.419  0.00  0.00    +0.000 C 
ENDBRANCH  11  13
ENDBRANCH   1  11
BRANCH   7  14
ATOM     14  C   UNL     1       1.306   3.737  18.723  0.00  0.00    +0.000 C 
BRANCH  14  15
ATOM     15  C   UNL     1       1.281   3.487  20.229  0.00  0.00    +0.000 C 
BRANCH  15  16
ATOM     16  C   UNL     1       1.845   4.670  21.007  0.00  0.00    +0.000 C 
BRANCH  16  17
ATOM     17  C   UNL     1       1.167   5.967  20.583  0.00  0.00    +0.000 C 
BRANCH  17  18
ATOM     18  C   UNL     1       2.093   7.150  20.775  0.00  0.00    +0.000 C 
BRANCH  18  19
ATOM     19  C   UNL     1       1.329   8.449  20.575  0.00  0.00    +0.000 C 
BRANCH  19  20
ATOM     20  C   UNL     1       0.167   8.523  21.551  0.00  0.00    +0.000 C 
BRANCH  20  21
ATOM     21  C   UNL     1      -0.583   9.832  21.370  0.00  0.00    +0.000 C 
BRANCH  21  22
ATOM     22  C   UNL     1      -0.608  10.606  22.678  0.00  0.00    +0.000 C 
BRANCH  22  23
ATOM     23  C   UNL     1      -0.634  12.100  22.404  0.00  0.00    +0.000 C 
BRANCH  23  24
ATOM     24  C   UNL     1      -1.862  12.731  23.044  0.00  0.00    +0.000 C 
BRANCH  24  25
ATOM     25  C   UNL     1      -1.494  14.037  23.736  0.00  0.00    +0.000 C 
ATOM     26  C   UNL     1      -2.687  14.592  24.492  0.00  0.00    +0.000 C 
ENDBRANCH  24  25
ENDBRANCH  23  24
ENDBRANCH  22  23
ENDBRANCH  21  22
ENDBRANCH  20  21
ENDBRANCH  19  20
ENDBRANCH  18  19
ENDBRANCH  17  18
ENDBRANCH  16  17
ENDBRANCH  15  16
ENDBRANCH  14  15
ENDBRANCH   7  14
TORSDOF 14
ENDMDL
MODEL 7
REMARK VINA RESULT:      -5.6      1.019      1.153
REMARK  Name = 
REMARK  16 active torsions:
REMARK  status: ('A' for Active; 'I' for Inactive)
REMARK    1  A    between atoms: C_2  and  C_3
REMARK    2  A    between atoms: C_3  and  N_4
REMARK    3  A    between atoms: N_4  and  C_5
REMARK    4  A    between atoms: C_10  and  C_12
REMARK    5  A    between atoms: C_12  and  C_13
REMARK    6  A    between atoms: C_13  and  C_14
REMARK    7  A    between atoms: C_14  and  C_15
REMARK    8  A    between atoms: C_15  and  C_16
REMARK    9  A    between atoms: C_16  and  C_17
REMARK   10  A    between atoms: C_17  and  C_18
REMARK   11  A    between atoms: C_18  and  C_19
REMARK   12  A    between atoms: C_19  and  C_20
REMARK   13  A    between atoms: C_20  and  C_21
REMARK   14  A    between atoms: C_21  and  C_22
REMARK   15  A    between atoms: C_22  and  C_23
REMARK   16  A    between atoms: C_23  and  C_24
REMARK                            x       y       z     vdW  Elec       q    Type
REMARK                         _______ _______ _______ _____ _____    ______ ____
ROOT
ATOM      1  N   UNL     1       6.384   6.195  17.779  0.00  0.00    +0.000 N 
ATOM      2  C   UNL     1       5.269   7.255  17.834  0.00  0.00    +0.000 C 
ATOM      3  C   UNL     1       6.387   5.542  16.393  0.00  0.00    +0.000 C 
ATOM      4  C   UNL     1       5.151   4.699  16.104  0.00  0.00    +0.000 C 
ATOM      5  C   UNL     1       5.183   3.374  16.863  0.00  0.00    +0.000 C 
ATOM      6  N   UNL     1       4.565   3.424  18.188  0.00  0.00    +0.000 N 
ATOM      7  C   UNL     1       3.787   2.333  18.586  0.00  0.00    +0.000 C 
ATOM      8  O   UNL     1       3.641   1.357  17.853  0.00  0.00    +0.000 OA
ATOM      9  C   UNL     1       4.832   4.564  19.062  0.00  0.00    +0.000 C 
ATOM     10  C   UNL     1       6.243   5.164  18.922  0.00  0.00    +0.000 C 
ENDROOT
BRANCH   1  11
ATOM     11  C   UNL     1       7.725   6.968  17.992  0.00  0.00    +0.000 C 
BRANCH  11  13
ATOM     12  C   UNL     1       8.358   9.404  18.181  0.00  0.00    +0.000 C 
ATOM     13  C   UNL     1       7.748   8.389  17.520  0.00  0.00    +0.000 C 
ENDBRANCH  11  13
ENDBRANCH   1  11
BRANCH   7  14
ATOM     14  C   UNL     1       3.145   2.402  19.956  0.00  0.00    +0.000 C 
BRANCH  14  15
ATOM     15  C   UNL     1       1.623   2.485  19.873  0.00  0.00    +0.000 C 
BRANCH  15  16
ATOM     16  C   UNL     1       1.162   3.805  19.264  0.00  0.00    +0.000 C 
BRANCH  16  17
ATOM     17  C   UNL     1       0.746   4.785  20.354  0.00  0.00    +0.000 C 
BRANCH  17  18
ATOM     18  C   UNL     1       1.882   5.725  20.700  0.00  0.00    +0.000 C 
BRANCH  18  19
ATOM     19  C   UNL     1       2.000   6.812  19.644  0.00  0.00    +0.000 C 
BRANCH  19  20
ATOM     20  C   UNL     1       1.882   8.181  20.293  0.00  0.00    +0.000 C 
BRANCH  20  21
ATOM     21  C   UNL     1       0.570   8.836  19.896  0.00  0.00    +0.000 C 
BRANCH  21  22
ATOM     22  C   UNL     1       0.747   9.621  18.606  0.00  0.00    +0.000 C 
BRANCH  22  23
ATOM     23  C   UNL     1      -0.471  10.493  18.351  0.00  0.00    +0.000 C 
BRANCH  23  24
ATOM     24  C   UNL     1      -1.408   9.813  17.365  0.00  0.00    +0.000 C 
BRANCH  24  25
ATOM     25  C   UNL     1      -2.766  10.503  17.352  0.00  0.00    +0.000 C 
ATOM     26  C   UNL     1      -2.777  11.671  18.320  0.00  0.00    +0.000 C 
ENDBRANCH  24  25
ENDBRANCH  23  24
ENDBRANCH  22  23
ENDBRANCH  21  22
ENDBRANCH  20  21
ENDBRANCH  19  20
ENDBRANCH  18  19
ENDBRANCH  17  18
ENDBRANCH  16  17
ENDBRANCH  15  16
ENDBRANCH  14  15
ENDBRANCH   7  14
TORSDOF 14
ENDMDL
MODEL 8
REMARK VINA RESULT:      -5.6      3.517      8.640
REMARK  Name = 
REMARK  16 active torsions:
REMARK  status: ('A' for Active; 'I' for Inactive)
REMARK    1  A    between atoms: C_2  and  C_3
REMARK    2  A    between atoms: C_3  and  N_4
REMARK    3  A    between atoms: N_4  and  C_5
REMARK    4  A    between atoms: C_10  and  C_12
REMARK    5  A    between atoms: C_12  and  C_13
REMARK    6  A    between atoms: C_13  and  C_14
REMARK    7  A    between atoms: C_14  and  C_15
REMARK    8  A    between atoms: C_15  and  C_16
REMARK    9  A    between atoms: C_16  and  C_17
REMARK   10  A    between atoms: C_17  and  C_18
REMARK   11  A    between atoms: C_18  and  C_19
REMARK   12  A    between atoms: C_19  and  C_20
REMARK   13  A    between atoms: C_20  and  C_21
REMARK   14  A    between atoms: C_21  and  C_22
REMARK   15  A    between atoms: C_22  and  C_23
REMARK   16  A    between atoms: C_23  and  C_24
REMARK                            x       y       z     vdW  Elec       q    Type
REMARK                         _______ _______ _______ _____ _____    ______ ____
ROOT
ATOM      1  N   UNL     1      -1.853  11.724  18.668  0.00  0.00    +0.000 N 
ATOM      2  C   UNL     1      -0.706  12.523  18.023  0.00  0.00    +0.000 C 
ATOM      3  C   UNL     1      -2.366  12.486  19.894  0.00  0.00    +0.000 C 
ATOM      4  C   UNL     1      -1.365  12.562  21.041  0.00  0.00    +0.000 C 
ATOM      5  C   UNL     1      -1.242  11.226  21.771  0.00  0.00    +0.000 C 
ATOM      6  N   UNL     1      -0.216  10.335  21.228  0.00  0.00    +0.000 N 
ATOM      7  C   UNL     1       0.565   9.612  22.134  0.00  0.00    +0.000 C 
ATOM      8  O   UNL     1       0.385   9.710  23.346  0.00  0.00    +0.000 OA
ATOM      9  C   UNL     1      -0.090  10.184  19.780  0.00  0.00    +0.000 C 
ATOM     10  C   UNL     1      -1.418  10.279  19.006  0.00  0.00    +0.000 C 
ENDROOT
BRANCH   1  11
ATOM     11  C   UNL     1      -2.984  11.647  17.594  0.00  0.00    +0.000 C 
BRANCH  11  13
ATOM     12  C   UNL     1      -3.330  10.529  15.357  0.00  0.00    +0.000 C 
ATOM     13  C   UNL     1      -2.916  10.488  16.648  0.00  0.00    +0.000 C 
ENDBRANCH  11  13
ENDBRANCH   1  11
BRANCH   7  14
ATOM     14  C   UNL     1       1.630   8.702  21.559  0.00  0.00    +0.000 C 
BRANCH  14  15
ATOM     15  C   UNL     1       1.079   7.322  21.208  0.00  0.00    +0.000 C 
BRANCH  15  16
ATOM     16  C   UNL     1       2.188   6.359  20.800  0.00  0.00    +0.000 C 
BRANCH  16  17
ATOM     17  C   UNL     1       1.685   5.371  19.755  0.00  0.00    +0.000 C 
BRANCH  17  18
ATOM     18  C   UNL     1       0.993   4.194  20.412  0.00  0.00    +0.000 C 
BRANCH  18  19
ATOM     19  C   UNL     1       1.845   2.943  20.275  0.00  0.00    +0.000 C 
BRANCH  19  20
ATOM     20  C   UNL     1       1.552   2.258  18.951  0.00  0.00    +0.000 C 
BRANCH  20  21
ATOM     21  C   UNL     1       2.826   2.137  18.132  0.00  0.00    +0.000 C 
BRANCH  21  22
ATOM     22  C   UNL     1       2.841   3.183  17.029  0.00  0.00    +0.000 C 
BRANCH  22  23
ATOM     23  C   UNL     1       3.959   4.183  17.269  0.00  0.00    +0.000 C 
BRANCH  23  24
ATOM     24  C   UNL     1       5.215   3.758  16.524  0.00  0.00    +0.000 C 
BRANCH  24  25
ATOM     25  C   UNL     1       5.419   4.616  15.282  0.00  0.00    +0.000 C 
ATOM     26  C   UNL     1       5.238   6.085  15.616  0.00  0.00    +0.000 C 
ENDBRANCH  24  25
ENDBRANCH  23  24
ENDBRANCH  22  23
ENDBRANCH  21  22
ENDBRANCH  20  21
ENDBRANCH  19  20
ENDBRANCH  18  19
ENDBRANCH  17  18
ENDBRANCH  16  17
ENDBRANCH  15  16
ENDBRANCH  14  15
ENDBRANCH   7  14
TORSDOF 14
ENDMDL
MODEL 9
REMARK VINA RESULT:      -5.6      3.255      8.171
REMARK  Name = 
REMARK  16 active torsions:
REMARK  status: ('A' for Active; 'I' for Inactive)
REMARK    1  A    between atoms: C_2  and  C_3
REMARK    2  A    between atoms: C_3  and  N_4
REMARK    3  A    between atoms: N_4  and  C_5
REMARK    4  A    between atoms: C_10  and  C_12
REMARK    5  A    between atoms: C_12  and  C_13
REMARK    6  A    between atoms: C_13  and  C_14
REMARK    7  A    between atoms: C_14  and  C_15
REMARK    8  A    between atoms: C_15  and  C_16
REMARK    9  A    between atoms: C_16  and  C_17
REMARK   10  A    between atoms: C_17  and  C_18
REMARK   11  A    between atoms: C_18  and  C_19
REMARK   12  A    between atoms: C_19  and  C_20
REMARK   13  A    between atoms: C_20  and  C_21
REMARK   14  A    between atoms: C_21  and  C_22
REMARK   15  A    between atoms: C_22  and  C_23
REMARK   16  A    between atoms: C_23  and  C_24
REMARK                            x       y       z     vdW  Elec       q    Type
REMARK                         _______ _______ _______ _____ _____    ______ ____
ROOT
ATOM      1  N   UNL     1      -0.809  12.143  20.228  0.00  0.00    +0.000 N 
ATOM      2  C   UNL     1      -2.093  11.823  19.442  0.00  0.00    +0.000 C 
ATOM      3  C   UNL     1       0.071  13.077  19.392  0.00  0.00    +0.000 C 
ATOM      4  C   UNL     1       0.638  12.431  18.134  0.00  0.00    +0.000 C 
ATOM      5  C   UNL     1       1.769  11.458  18.460  0.00  0.00    +0.000 C 
ATOM      6  N   UNL     1       1.330  10.083  18.700  0.00  0.00    +0.000 N 
ATOM      7  C   UNL     1       2.113   9.048  18.180  0.00  0.00    +0.000 C 
ATOM      8  O   UNL     1       3.145   9.286  17.556  0.00  0.00    +0.000 OA
ATOM      9  C   UNL     1       0.143   9.840  19.517  0.00  0.00    +0.000 C 
ATOM     10  C   UNL     1      -0.070  10.854  20.656  0.00  0.00    +0.000 C 
ENDROOT
BRANCH   1  11
ATOM     11  C   UNL     1      -1.269  12.885  21.523  0.00  0.00    +0.000 C 
BRANCH  11  13
ATOM     12  C   UNL     1      -2.810  12.038  23.335  0.00  0.00    +0.000 C 
ATOM     13  C   UNL     1      -2.605  12.487  22.072  0.00  0.00    +0.000 C 
ENDBRANCH  11  13
ENDBRANCH   1  11
BRANCH   7  14
ATOM     14  C   UNL     1       1.642   7.630  18.426  0.00  0.00    +0.000 C 
BRANCH  14  15
ATOM     15  C   UNL     1       2.398   6.964  19.573  0.00  0.00    +0.000 C 
BRANCH  15  16
ATOM     16  C   UNL     1       1.542   5.921  20.281  0.00  0.00    +0.000 C 
BRANCH  16  17
ATOM     17  C   UNL     1       2.417   4.923  21.029  0.00  0.00    +0.000 C 
BRANCH  17  18
ATOM     18  C   UNL     1       1.798   3.540  21.012  0.00  0.00    +0.000 C 
BRANCH  18  19
ATOM     19  C   UNL     1       0.702   3.472  19.961  0.00  0.00    +0.000 C 
BRANCH  19  20
ATOM     20  C   UNL     1       0.984   2.338  18.989  0.00  0.00    +0.000 C 
BRANCH  20  21
ATOM     21  C   UNL     1       2.442   1.922  19.082  0.00  0.00    +0.000 C 
BRANCH  21  22
ATOM     22  C   UNL     1       3.117   2.076  17.729  0.00  0.00    +0.000 C 
BRANCH  22  23
ATOM     23  C   UNL     1       3.021   3.517  17.255  0.00  0.00    +0.000 C 
BRANCH  23  24
ATOM     24  C   UNL     1       4.231   4.308  17.727  0.00  0.00    +0.000 C 
BRANCH  24  25
ATOM     25  C   UNL     1       4.533   5.450  16.765  0.00  0.00    +0.000 C 
ATOM     26  C   UNL     1       5.407   6.493  17.437  0.00  0.00    +0.000 C 
ENDBRANCH  24  25
ENDBRANCH  23  24
ENDBRANCH  22  23
ENDBRANCH  21  22
ENDBRANCH  20  21
ENDBRANCH  19  20
ENDBRANCH  18  19
ENDBRANCH  17  18
ENDBRANCH  16  17
ENDBRANCH  15  16
ENDBRANCH  14  15
ENDBRANCH   7  14
TORSDOF 14
ENDMDL
