MODEL 1
REMARK VINA RESULT:      -8.5      0.000      0.000
REMARK  Name = 
REMARK  6 active torsions:
REMARK  status: ('A' for Active; 'I' for Inactive)
REMARK    1  A    between atoms: C_1  and  O_2
REMARK    2  A    between atoms: O_2  and  C_3
REMARK    3  A    between atoms: C_6  and  C_7
REMARK    4  A    between atoms: C_17  and  C_18
REMARK    5  A    between atoms: C_24  and  O_25
REMARK    6  A    between atoms: O_25  and  C_26
REMARK                            x       y       z     vdW  Elec       q    Type
REMARK                         _______ _______ _______ _____ _____    ______ ____
ROOT
ATOM      1  C   UNL     1       2.237   7.266  18.856  0.00  0.00    +0.000 A 
ATOM      2  C   UNL     1       1.871   7.646  20.141  0.00  0.00    +0.000 A 
ATOM      3  C   UNL     1       1.427   8.953  20.287  0.00  0.00    +0.000 A 
ATOM      4  C   UNL     1       0.741   9.647  21.306  0.00  0.00    +0.000 A 
ATOM      5  C   UNL     1       0.362   9.295  22.614  0.00  0.00    +0.000 A 
ATOM      6  C   UNL     1      -0.613  10.053  23.258  0.00  0.00    +0.000 A 
ATOM      7  C   UNL     1      -1.199  11.139  22.613  0.00  0.00    +0.000 A 
ATOM      8  C   UNL     1      -0.752  11.569  21.356  0.00  0.00    +0.000 A 
ATOM      9  C   UNL     1       0.256  10.820  20.728  0.00  0.00    +0.000 A 
ATOM     10  N   UNL     1       1.009  11.026  19.559  0.00  0.00    +0.000 N 
ATOM     11  C   UNL     1       1.214  12.258  18.913  0.00  0.00    +0.000 C 
ATOM     12  C   UNL     1       2.477  12.393  18.108  0.00  0.00    +0.000 C 
ATOM     13  O   UNL     1       0.451  13.191  19.127  0.00  0.00    +0.000 OA
ATOM     14  C   UNL     1       1.514   9.794  19.193  0.00  0.00    +0.000 A 
ATOM     15  N   UNL     1       1.992   9.433  17.988  0.00  0.00    +0.000 NA
ATOM     16  N   UNL     1       2.325   8.158  17.831  0.00  0.00    +0.000 NA
ENDROOT
BRANCH   1  20
ATOM     17  C   UNL     1       2.990   3.116  18.054  0.00  0.00    +0.000 A 
ATOM     18  C   UNL     1       3.639   4.120  17.316  0.00  0.00    +0.000 A 
ATOM     19  C   UNL     1       3.394   5.474  17.566  0.00  0.00    +0.000 A 
ATOM     20  C   UNL     1       2.465   5.856  18.528  0.00  0.00    +0.000 A 
ATOM     21  C   UNL     1       1.744   4.837  19.182  0.00  0.00    +0.000 A 
ATOM     22  C   UNL     1       1.991   3.477  18.963  0.00  0.00    +0.000 A 
BRANCH  17  24
ATOM     23  C   UNL     1       4.097   1.215  18.914  0.00  0.00    +0.000 C 
ATOM     24  O   UNL     1       3.301   1.796  17.882  0.00  0.00    +0.000 OA
ENDBRANCH  17  24
BRANCH  22  25
ATOM     25  O   UNL     1       1.197   2.686  19.746  0.00  0.00    +0.000 OA
ATOM     26  C   UNL     1       1.322   2.767  21.158  0.00  0.00    +0.000 C 
ENDBRANCH  22  25
ENDBRANCH   1  20
TORSDOF 3
ENDMDL
MODEL 2
REMARK VINA RESULT:      -8.4      1.191      1.763
REMARK  Name = 
REMARK  6 active torsions:
REMARK  status: ('A' for Active; 'I' for Inactive)
REMARK    1  A    between atoms: C_1  and  O_2
REMARK    2  A    between atoms: O_2  and  C_3
REMARK    3  A    between atoms: C_6  and  C_7
REMARK    4  A    between atoms: C_17  and  C_18
REMARK    5  A    between atoms: C_24  and  O_25
REMARK    6  A    between atoms: O_25  and  C_26
REMARK                            x       y       z     vdW  Elec       q    Type
REMARK                         _______ _______ _______ _____ _____    ______ ____
ROOT
ATOM      1  C   UNL     1       2.272   7.654  18.935  0.00  0.00    +0.000 A 
ATOM      2  C   UNL     1       1.846   8.034  20.201  0.00  0.00    +0.000 A 
ATOM      3  C   UNL     1       1.289   9.302  20.301  0.00  0.00    +0.000 A 
ATOM      4  C   UNL     1       0.524   9.961  21.286  0.00  0.00    +0.000 A 
ATOM      5  C   UNL     1       0.147   9.612  22.596  0.00  0.00    +0.000 A 
ATOM      6  C   UNL     1      -0.903  10.300  23.199  0.00  0.00    +0.000 A 
ATOM      7  C   UNL     1      -1.565  11.315  22.512  0.00  0.00    +0.000 A 
ATOM      8  C   UNL     1      -1.128  11.749  21.253  0.00  0.00    +0.000 A 
ATOM      9  C   UNL     1      -0.045  11.073  20.666  0.00  0.00    +0.000 A 
ATOM     10  N   UNL     1       0.713  11.311  19.508  0.00  0.00    +0.000 N 
ATOM     11  C   UNL     1       0.827  12.539  18.832  0.00  0.00    +0.000 C 
ATOM     12  C   UNL     1       2.092  12.761  18.049  0.00  0.00    +0.000 C 
ATOM     13  O   UNL     1      -0.017  13.409  19.004  0.00  0.00    +0.000 OA
ATOM     14  C   UNL     1       1.329  10.118  19.187  0.00  0.00    +0.000 A 
ATOM     15  N   UNL     1       1.864   9.768  18.002  0.00  0.00    +0.000 NA
ATOM     16  N   UNL     1       2.307   8.522  17.887  0.00  0.00    +0.000 NA
ENDROOT
BRANCH   1  20
ATOM     17  C   UNL     1       3.414   3.629  17.970  0.00  0.00    +0.000 A 
ATOM     18  C   UNL     1       2.105   4.081  17.734  0.00  0.00    +0.000 A 
ATOM     19  C   UNL     1       1.723   5.389  18.053  0.00  0.00    +0.000 A 
ATOM     20  C   UNL     1       2.626   6.260  18.651  0.00  0.00    +0.000 A 
ATOM     21  C   UNL     1       3.901   5.757  18.979  0.00  0.00    +0.000 A 
ATOM     22  C   UNL     1       4.309   4.461  18.648  0.00  0.00    +0.000 A 
BRANCH  17  24
ATOM     23  C   UNL     1       3.590   1.336  18.506  0.00  0.00    +0.000 C 
ATOM     24  O   UNL     1       3.818   2.386  17.568  0.00  0.00    +0.000 OA
ENDBRANCH  17  24
BRANCH  22  25
ATOM     25  O   UNL     1       5.601   4.224  19.031  0.00  0.00    +0.000 OA
ATOM     26  C   UNL     1       6.457   5.327  19.288  0.00  0.00    +0.000 C 
ENDBRANCH  22  25
ENDBRANCH   1  20
TORSDOF 3
ENDMDL
MODEL 3
REMARK VINA RESULT:      -8.3      1.078      1.242
REMARK  Name = 
REMARK  6 active torsions:
REMARK  status: ('A' for Active; 'I' for Inactive)
REMARK    1  A    between atoms: C_1  and  O_2
REMARK    2  A    between atoms: O_2  and  C_3
REMARK    3  A    between atoms: C_6  and  C_7
REMARK    4  A    between atoms: C_17  and  C_18
REMARK    5  A    between atoms: C_24  and  O_25
REMARK    6  A    between atoms: O_25  and  C_26
REMARK                            x       y       z     vdW  Elec       q    Type
REMARK                         _______ _______ _______ _____ _____    ______ ____
ROOT
ATOM      1  C   UNL     1       1.928   8.028  19.474  0.00  0.00    +0.000 A 
ATOM      2  C   UNL     1       1.409   8.531  20.661  0.00  0.00    +0.000 A 
ATOM      3  C   UNL     1       0.862   9.806  20.594  0.00  0.00    +0.000 A 
ATOM      4  C   UNL     1       0.031  10.561  21.448  0.00  0.00    +0.000 A 
ATOM      5  C   UNL     1      -0.451  10.342  22.751  0.00  0.00    +0.000 A 
ATOM      6  C   UNL     1      -1.537  11.091  23.200  0.00  0.00    +0.000 A 
ATOM      7  C   UNL     1      -2.130  12.037  22.369  0.00  0.00    +0.000 A 
ATOM      8  C   UNL     1      -1.591  12.345  21.112  0.00  0.00    +0.000 A 
ATOM      9  C   UNL     1      -0.475  11.610  20.681  0.00  0.00    +0.000 A 
ATOM     10  N   UNL     1       0.374  11.731  19.568  0.00  0.00    +0.000 N 
ATOM     11  C   UNL     1       0.556  12.887  18.787  0.00  0.00    +0.000 C 
ATOM     12  C   UNL     1       1.881  13.025  18.088  0.00  0.00    +0.000 C 
ATOM     13  O   UNL     1      -0.289  13.774  18.808  0.00  0.00    +0.000 OA
ATOM     14  C   UNL     1       0.998  10.510  19.412  0.00  0.00    +0.000 A 
ATOM     15  N   UNL     1       1.619  10.043  18.312  0.00  0.00    +0.000 NA
ATOM     16  N   UNL     1       2.054   8.790  18.354  0.00  0.00    +0.000 NA
ENDROOT
BRANCH   1  20
ATOM     17  C   UNL     1       3.118   3.910  19.230  0.00  0.00    +0.000 A 
ATOM     18  C   UNL     1       3.202   4.750  18.107  0.00  0.00    +0.000 A 
ATOM     19  C   UNL     1       2.809   6.091  18.176  0.00  0.00    +0.000 A 
ATOM     20  C   UNL     1       2.285   6.611  19.355  0.00  0.00    +0.000 A 
ATOM     21  C   UNL     1       2.107   5.728  20.438  0.00  0.00    +0.000 A 
ATOM     22  C   UNL     1       2.515   4.390  20.396  0.00  0.00    +0.000 A 
BRANCH  17  24
ATOM     23  C   UNL     1       3.171   1.850  18.076  0.00  0.00    +0.000 C 
ATOM     24  O   UNL     1       3.595   2.629  19.194  0.00  0.00    +0.000 OA
ENDBRANCH  17  24
BRANCH  22  25
ATOM     25  O   UNL     1       2.278   3.751  21.582  0.00  0.00    +0.000 OA
ATOM     26  C   UNL     1       1.351   2.676  21.613  0.00  0.00    +0.000 C 
ENDBRANCH  22  25
ENDBRANCH   1  20
TORSDOF 3
ENDMDL
MODEL 4
REMARK VINA RESULT:      -8.3      0.776      1.895
REMARK  Name = 
REMARK  6 active torsions:
REMARK  status: ('A' for Active; 'I' for Inactive)
REMARK    1  A    between atoms: C_1  and  O_2
REMARK    2  A    between atoms: O_2  and  C_3
REMARK    3  A    between atoms: C_6  and  C_7
REMARK    4  A    between atoms: C_17  and  C_18
REMARK    5  A    between atoms: C_24  and  O_25
REMARK    6  A    between atoms: O_25  and  C_26
REMARK                            x       y       z     vdW  Elec       q    Type
REMARK                         _______ _______ _______ _____ _____    ______ ____
ROOT
ATOM      1  C   UNL     1       2.187   7.378  19.045  0.00  0.00    +0.000 A 
ATOM      2  C   UNL     1       1.769   7.802  20.300  0.00  0.00    +0.000 A 
ATOM      3  C   UNL     1       1.308   9.109  20.380  0.00  0.00    +0.000 A 
ATOM      4  C   UNL     1       0.578   9.834  21.345  0.00  0.00    +0.000 A 
ATOM      5  C   UNL     1       0.152   9.527  22.651  0.00  0.00    +0.000 A 
ATOM      6  C   UNL     1      -0.853  10.298  23.228  0.00  0.00    +0.000 A 
ATOM      7  C   UNL     1      -1.424  11.353  22.521  0.00  0.00    +0.000 A 
ATOM      8  C   UNL     1      -0.933  11.741  21.267  0.00  0.00    +0.000 A 
ATOM      9  C   UNL     1       0.106  10.979  20.706  0.00  0.00    +0.000 A 
ATOM     10  N   UNL     1       0.900  11.149  19.560  0.00  0.00    +0.000 N 
ATOM     11  C   UNL     1       1.120  12.358  18.876  0.00  0.00    +0.000 C 
ATOM     12  C   UNL     1       2.411  12.475  18.114  0.00  0.00    +0.000 C 
ATOM     13  O   UNL     1       0.340  13.291  19.026  0.00  0.00    +0.000 OA
ATOM     14  C   UNL     1       1.430   9.910  19.260  0.00  0.00    +0.000 A 
ATOM     15  N   UNL     1       1.957   9.508  18.087  0.00  0.00    +0.000 NA
ATOM     16  N   UNL     1       2.306   8.232  17.992  0.00  0.00    +0.000 NA
ENDROOT
BRANCH   1  20
ATOM     17  C   UNL     1       2.829   3.236  18.116  0.00  0.00    +0.000 A 
ATOM     18  C   UNL     1       2.013   3.612  19.196  0.00  0.00    +0.000 A 
ATOM     19  C   UNL     1       1.805   4.960  19.510  0.00  0.00    +0.000 A 
ATOM     20  C   UNL     1       2.440   5.959  18.780  0.00  0.00    +0.000 A 
ATOM     21  C   UNL     1       3.339   5.561  17.771  0.00  0.00    +0.000 A 
ATOM     22  C   UNL     1       3.543   4.221  17.427  0.00  0.00    +0.000 A 
BRANCH  17  24
ATOM     23  C   UNL     1       3.841   1.145  18.545  0.00  0.00    +0.000 C 
ATOM     24  O   UNL     1       2.954   1.926  17.745  0.00  0.00    +0.000 OA
ENDBRANCH  17  24
BRANCH  22  25
ATOM     25  O   UNL     1       4.426   4.093  16.390  0.00  0.00    +0.000 OA
ATOM     26  C   UNL     1       5.679   4.757  16.466  0.00  0.00    +0.000 C 
ENDBRANCH  22  25
ENDBRANCH   1  20
TORSDOF 3
ENDMDL
MODEL 5
REMARK VINA RESULT:      -8.1      1.935      3.471
REMARK  Name = 
REMARK  6 active torsions:
REMARK  status: ('A' for Active; 'I' for Inactive)
REMARK    1  A    between atoms: C_1  and  O_2
REMARK    2  A    between atoms: O_2  and  C_3
REMARK    3  A    between atoms: C_6  and  C_7
REMARK    4  A    between atoms: C_17  and  C_18
REMARK    5  A    between atoms: C_24  and  O_25
REMARK    6  A    between atoms: O_25  and  C_26
REMARK                            x       y       z     vdW  Elec       q    Type
REMARK                         _______ _______ _______ _____ _____    ______ ____
ROOT
ATOM      1  C   UNL     1       2.547   7.344  18.581  0.00  0.00    +0.000 A 
ATOM      2  C   UNL     1       2.195   8.590  18.078  0.00  0.00    +0.000 A 
ATOM      3  C   UNL     1       1.629   9.475  18.986  0.00  0.00    +0.000 A 
ATOM      4  C   UNL     1       1.378  10.864  18.974  0.00  0.00    +0.000 A 
ATOM      5  C   UNL     1       1.499  11.849  17.977  0.00  0.00    +0.000 A 
ATOM      6  C   UNL     1       1.520  13.189  18.355  0.00  0.00    +0.000 A 
ATOM      7  C   UNL     1       1.424  13.541  19.699  0.00  0.00    +0.000 A 
ATOM      8  C   UNL     1       1.191  12.579  20.691  0.00  0.00    +0.000 A 
ATOM      9  C   UNL     1       1.135  11.232  20.297  0.00  0.00    +0.000 A 
ATOM     10  N   UNL     1       0.804  10.052  20.982  0.00  0.00    +0.000 N 
ATOM     11  C   UNL     1       0.052   9.966  22.168  0.00  0.00    +0.000 C 
ATOM     12  C   UNL     1      -0.701   8.684  22.395  0.00  0.00    +0.000 C 
ATOM     13  O   UNL     1      -0.067  10.951  22.885  0.00  0.00    +0.000 OA
ATOM     14  C   UNL     1       1.341   9.009  20.255  0.00  0.00    +0.000 A 
ATOM     15  N   UNL     1       1.579   7.753  20.679  0.00  0.00    +0.000 NA
ATOM     16  N   UNL     1       2.207   6.943  19.836  0.00  0.00    +0.000 NA
ENDROOT
BRANCH   1  20
ATOM     17  C   UNL     1       5.088   4.624  16.442  0.00  0.00    +0.000 A 
ATOM     18  C   UNL     1       5.214   6.012  16.268  0.00  0.00    +0.000 A 
ATOM     19  C   UNL     1       4.385   6.905  16.956  0.00  0.00    +0.000 A 
ATOM     20  C   UNL     1       3.386   6.431  17.799  0.00  0.00    +0.000 A 
ATOM     21  C   UNL     1       3.203   5.036  17.877  0.00  0.00    +0.000 A 
ATOM     22  C   UNL     1       4.036   4.127  17.216  0.00  0.00    +0.000 A 
BRANCH  17  24
ATOM     23  C   UNL     1       6.222   3.994  14.467  0.00  0.00    +0.000 C 
ATOM     24  O   UNL     1       5.961   3.754  15.850  0.00  0.00    +0.000 OA
ENDBRANCH  17  24
BRANCH  22  25
ATOM     25  O   UNL     1       3.685   2.832  17.483  0.00  0.00    +0.000 OA
ATOM     26  C   UNL     1       2.331   2.534  17.791  0.00  0.00    +0.000 C 
ENDBRANCH  22  25
ENDBRANCH   1  20
TORSDOF 3
ENDMDL
MODEL 6
REMARK VINA RESULT:      -8.1      1.942      8.278
REMARK  Name = 
REMARK  6 active torsions:
REMARK  status: ('A' for Active; 'I' for Inactive)
REMARK    1  A    between atoms: C_1  and  O_2
REMARK    2  A    between atoms: O_2  and  C_3
REMARK    3  A    between atoms: C_6  and  C_7
REMARK    4  A    between atoms: C_17  and  C_18
REMARK    5  A    between atoms: C_24  and  O_25
REMARK    6  A    between atoms: O_25  and  C_26
REMARK                            x       y       z     vdW  Elec       q    Type
REMARK                         _______ _______ _______ _____ _____    ______ ____
ROOT
ATOM      1  C   UNL     1       1.837   7.311  20.232  0.00  0.00    +0.000 A 
ATOM      2  C   UNL     1       2.890   7.365  19.327  0.00  0.00    +0.000 A 
ATOM      3  C   UNL     1       3.368   6.142  18.875  0.00  0.00    +0.000 A 
ATOM      4  C   UNL     1       4.204   5.750  17.808  0.00  0.00    +0.000 A 
ATOM      5  C   UNL     1       4.969   6.477  16.877  0.00  0.00    +0.000 A 
ATOM      6  C   UNL     1       5.408   5.834  15.721  0.00  0.00    +0.000 A 
ATOM      7  C   UNL     1       5.092   4.496  15.498  0.00  0.00    +0.000 A 
ATOM      8  C   UNL     1       4.430   3.731  16.468  0.00  0.00    +0.000 A 
ATOM      9  C   UNL     1       4.021   4.378  17.646  0.00  0.00    +0.000 A 
ATOM     10  N   UNL     1       3.463   3.908  18.846  0.00  0.00    +0.000 N 
ATOM     11  C   UNL     1       3.530   2.590  19.331  0.00  0.00    +0.000 C 
ATOM     12  C   UNL     1       3.446   2.416  20.822  0.00  0.00    +0.000 C 
ATOM     13  O   UNL     1       3.779   1.671  18.560  0.00  0.00    +0.000 OA
ATOM     14  C   UNL     1       2.862   4.993  19.453  0.00  0.00    +0.000 A 
ATOM     15  N   UNL     1       1.927   4.973  20.422  0.00  0.00    +0.000 NA
ATOM     16  N   UNL     1       1.408   6.141  20.779  0.00  0.00    +0.000 NA
ENDROOT
BRANCH   1  20
ATOM     17  C   UNL     1      -0.224  10.938  21.243  0.00  0.00    +0.000 A 
ATOM     18  C   UNL     1      -0.199   9.854  22.136  0.00  0.00    +0.000 A 
ATOM     19  C   UNL     1       0.464   8.665  21.810  0.00  0.00    +0.000 A 
ATOM     20  C   UNL     1       1.080   8.519  20.572  0.00  0.00    +0.000 A 
ATOM     21  C   UNL     1       0.952   9.575  19.649  0.00  0.00    +0.000 A 
ATOM     22  C   UNL     1       0.313  10.780  19.963  0.00  0.00    +0.000 A 
BRANCH  17  24
ATOM     23  C   UNL     1      -1.266  12.210  22.939  0.00  0.00    +0.000 C 
ATOM     24  O   UNL     1      -0.784  12.134  21.598  0.00  0.00    +0.000 OA
ENDBRANCH  17  24
BRANCH  22  25
ATOM     25  O   UNL     1       0.358  11.663  18.920  0.00  0.00    +0.000 OA
ATOM     26  C   UNL     1       1.532  12.437  18.722  0.00  0.00    +0.000 C 
ENDBRANCH  22  25
ENDBRANCH   1  20
TORSDOF 3
ENDMDL
MODEL 7
REMARK VINA RESULT:      -8.0      2.097      8.172
REMARK  Name = 
REMARK  6 active torsions:
REMARK  status: ('A' for Active; 'I' for Inactive)
REMARK    1  A    between atoms: C_1  and  O_2
REMARK    2  A    between atoms: O_2  and  C_3
REMARK    3  A    between atoms: C_6  and  C_7
REMARK    4  A    between atoms: C_17  and  C_18
REMARK    5  A    between atoms: C_24  and  O_25
REMARK    6  A    between atoms: O_25  and  C_26
REMARK                            x       y       z     vdW  Elec       q    Type
REMARK                         _______ _______ _______ _____ _____    ______ ____
ROOT
ATOM      1  C   UNL     1       2.137   7.565  19.353  0.00  0.00    +0.000 A 
ATOM      2  C   UNL     1       3.206   7.491  18.468  0.00  0.00    +0.000 A 
ATOM      3  C   UNL     1       3.652   6.213  18.157  0.00  0.00    +0.000 A 
ATOM      4  C   UNL     1       4.492   5.686  17.153  0.00  0.00    +0.000 A 
ATOM      5  C   UNL     1       5.293   6.286  16.164  0.00  0.00    +0.000 A 
ATOM      6  C   UNL     1       5.730   5.511  15.092  0.00  0.00    +0.000 A 
ATOM      7  C   UNL     1       5.376   4.167  15.007  0.00  0.00    +0.000 A 
ATOM      8  C   UNL     1       4.676   3.529  16.039  0.00  0.00    +0.000 A 
ATOM      9  C   UNL     1       4.269   4.310  17.134  0.00  0.00    +0.000 A 
ATOM     10  N   UNL     1       3.678   3.988  18.367  0.00  0.00    +0.000 N 
ATOM     11  C   UNL     1       3.697   2.727  18.990  0.00  0.00    +0.000 C 
ATOM     12  C   UNL     1       3.584   2.716  20.490  0.00  0.00    +0.000 C 
ATOM     13  O   UNL     1       3.928   1.724  18.326  0.00  0.00    +0.000 OA
ATOM     14  C   UNL     1       3.101   5.148  18.844  0.00  0.00    +0.000 A 
ATOM     15  N   UNL     1       2.151   5.259  19.791  0.00  0.00    +0.000 NA
ATOM     16  N   UNL     1       1.663   6.473  20.013  0.00  0.00    +0.000 NA
ENDROOT
BRANCH   1  20
ATOM     17  C   UNL     1      -0.128  11.157  19.977  0.00  0.00    +0.000 A 
ATOM     18  C   UNL     1       0.235  10.753  18.681  0.00  0.00    +0.000 A 
ATOM     19  C   UNL     1       0.979   9.587  18.470  0.00  0.00    +0.000 A 
ATOM     20  C   UNL     1       1.413   8.824  19.548  0.00  0.00    +0.000 A 
ATOM     21  C   UNL     1       1.134   9.302  20.844  0.00  0.00    +0.000 A 
ATOM     22  C   UNL     1       0.371  10.452  21.075  0.00  0.00    +0.000 A 
BRANCH  17  24
ATOM     23  C   UNL     1      -2.165  12.231  19.447  0.00  0.00    +0.000 C 
ATOM     24  O   UNL     1      -0.940  12.239  20.180  0.00  0.00    +0.000 OA
ENDBRANCH  17  24
BRANCH  22  25
ATOM     25  O   UNL     1       0.200  10.685  22.412  0.00  0.00    +0.000 OA
ATOM     26  C   UNL     1      -0.360   9.664  23.224  0.00  0.00    +0.000 C 
ENDBRANCH  22  25
ENDBRANCH   1  20
TORSDOF 3
ENDMDL
MODEL 8
REMARK VINA RESULT:      -7.9      2.445      4.087
REMARK  Name = 
REMARK  6 active torsions:
REMARK  status: ('A' for Active; 'I' for Inactive)
REMARK    1  A    between atoms: C_1  and  O_2
REMARK    2  A    between atoms: O_2  and  C_3
REMARK    3  A    between atoms: C_6  and  C_7
REMARK    4  A    between atoms: C_17  and  C_18
REMARK    5  A    between atoms: C_24  and  O_25
REMARK    6  A    between atoms: O_25  and  C_26
REMARK                            x       y       z     vdW  Elec       q    Type
REMARK                         _______ _______ _______ _____ _____    ______ ____
ROOT
ATOM      1  C   UNL     1       2.560   7.267  18.725  0.00  0.00    +0.000 A 
ATOM      2  C   UNL     1       2.230   8.500  18.179  0.00  0.00    +0.000 A 
ATOM      3  C   UNL     1       1.646   9.414  19.047  0.00  0.00    +0.000 A 
ATOM      4  C   UNL     1       1.405  10.803  18.990  0.00  0.00    +0.000 A 
ATOM      5  C   UNL     1       1.558  11.759  17.970  0.00  0.00    +0.000 A 
ATOM      6  C   UNL     1       1.578  13.109  18.312  0.00  0.00    +0.000 A 
ATOM      7  C   UNL     1       1.449  13.499  19.642  0.00  0.00    +0.000 A 
ATOM      8  C   UNL     1       1.183  12.566  20.654  0.00  0.00    +0.000 A 
ATOM      9  C   UNL     1       1.129  11.209  20.296  0.00  0.00    +0.000 A 
ATOM     10  N   UNL     1       0.772  10.050  21.004  0.00  0.00    +0.000 N 
ATOM     11  C   UNL     1      -0.011  10.001  22.171  0.00  0.00    +0.000 C 
ATOM     12  C   UNL     1      -0.778   8.731  22.414  0.00  0.00    +0.000 C 
ATOM     13  O   UNL     1      -0.142  11.007  22.858  0.00  0.00    +0.000 OA
ATOM     14  C   UNL     1       1.322   8.984  20.320  0.00  0.00    +0.000 A 
ATOM     15  N   UNL     1       1.540   7.740  20.785  0.00  0.00    +0.000 NA
ATOM     16  N   UNL     1       2.184   6.903  19.981  0.00  0.00    +0.000 NA
ENDROOT
BRANCH   1  20
ATOM     17  C   UNL     1       5.021   4.607  16.422  0.00  0.00    +0.000 A 
ATOM     18  C   UNL     1       3.806   4.166  16.973  0.00  0.00    +0.000 A 
ATOM     19  C   UNL     1       3.002   5.025  17.731  0.00  0.00    +0.000 A 
ATOM     20  C   UNL     1       3.413   6.327  17.990  0.00  0.00    +0.000 A 
ATOM     21  C   UNL     1       4.683   6.718  17.523  0.00  0.00    +0.000 A 
ATOM     22  C   UNL     1       5.491   5.883  16.744  0.00  0.00    +0.000 A 
BRANCH  17  24
ATOM     23  C   UNL     1       5.720   4.145  14.214  0.00  0.00    +0.000 C 
ATOM     24  O   UNL     1       5.758   3.802  15.599  0.00  0.00    +0.000 OA
ENDBRANCH  17  24
BRANCH  22  25
ATOM     25  O   UNL     1       6.653   6.503  16.375  0.00  0.00    +0.000 OA
ATOM     26  C   UNL     1       7.423   7.169  17.365  0.00  0.00    +0.000 C 
ENDBRANCH  22  25
ENDBRANCH   1  20
TORSDOF 3
ENDMDL
MODEL 9
REMARK VINA RESULT:      -7.9      1.974      7.996
REMARK  Name = 
REMARK  6 active torsions:
REMARK  status: ('A' for Active; 'I' for Inactive)
REMARK    1  A    between atoms: C_1  and  O_2
REMARK    2  A    between atoms: O_2  and  C_3
REMARK    3  A    between atoms: C_6  and  C_7
REMARK    4  A    between atoms: C_17  and  C_18
REMARK    5  A    between atoms: C_24  and  O_25
REMARK    6  A    between atoms: O_25  and  C_26
REMARK                            x       y       z     vdW  Elec       q    Type
REMARK                         _______ _______ _______ _____ _____    ______ ____
ROOT
ATOM      1  C   UNL     1       2.219   7.886  18.431  0.00  0.00    +0.000 A 
ATOM      2  C   UNL     1       1.625   6.630  18.424  0.00  0.00    +0.000 A 
ATOM      3  C   UNL     1       2.412   5.586  17.956  0.00  0.00    +0.000 A 
ATOM      4  C   UNL     1       2.313   4.181  18.018  0.00  0.00    +0.000 A 
ATOM      5  C   UNL     1       1.303   3.312  18.473  0.00  0.00    +0.000 A 
ATOM      6  C   UNL     1       1.629   1.984  18.739  0.00  0.00    +0.000 A 
ATOM      7  C   UNL     1       2.933   1.530  18.556  0.00  0.00    +0.000 A 
ATOM      8  C   UNL     1       3.920   2.353  17.997  0.00  0.00    +0.000 A 
ATOM      9  C   UNL     1       3.575   3.681  17.699  0.00  0.00    +0.000 A 
ATOM     10  N   UNL     1       4.254   4.716  17.035  0.00  0.00    +0.000 N 
ATOM     11  C   UNL     1       5.329   4.562  16.141  0.00  0.00    +0.000 C 
ATOM     12  C   UNL     1       5.501   5.637  15.104  0.00  0.00    +0.000 C 
ATOM     13  O   UNL     1       5.985   3.527  16.152  0.00  0.00    +0.000 OA
ATOM     14  C   UNL     1       3.647   5.895  17.418  0.00  0.00    +0.000 A 
ATOM     15  N   UNL     1       4.148   7.141  17.321  0.00  0.00    +0.000 NA
ATOM     16  N   UNL     1       3.430   8.121  17.857  0.00  0.00    +0.000 NA
ENDROOT
BRANCH   1  20
ATOM     17  C   UNL     1       0.551  11.236  20.536  0.00  0.00    +0.000 A 
ATOM     18  C   UNL     1       0.522   9.948  21.096  0.00  0.00    +0.000 A 
ATOM     19  C   UNL     1       1.056   8.850  20.413  0.00  0.00    +0.000 A 
ATOM     20  C   UNL     1       1.593   9.006  19.140  0.00  0.00    +0.000 A 
ATOM     21  C   UNL     1       1.516  10.283  18.549  0.00  0.00    +0.000 A 
ATOM     22  C   UNL     1       1.007  11.397  19.224  0.00  0.00    +0.000 A 
BRANCH  17  24
ATOM     23  C   UNL     1      -0.704  12.038  22.369  0.00  0.00    +0.000 C 
ATOM     24  O   UNL     1       0.122  12.325  21.241  0.00  0.00    +0.000 OA
ENDBRANCH  17  24
BRANCH  22  25
ATOM     25  O   UNL     1       1.081  12.529  18.459  0.00  0.00    +0.000 OA
ATOM     26  C   UNL     1       2.352  13.102  18.196  0.00  0.00    +0.000 C 
ENDBRANCH  22  25
ENDBRANCH   1  20
TORSDOF 3
ENDMDL
