MODEL 1
REMARK VINA RESULT:      -7.0      0.000      0.000
REMARK  Name = 
REMARK  8 active torsions:
REMARK  status: ('A' for Active; 'I' for Inactive)
REMARK    1  A    between atoms: C_1  and  C_2
REMARK    2  A    between atoms: C_2  and  N_3
REMARK    3  A    between atoms: N_3  and  C_4
REMARK    4  A    between atoms: N_12  and  C1*_13
REMARK    5  A    between atoms: C4*_15  and  C5*_16
REMARK    6  A    between atoms: C5*_16  and  O5*_17
REMARK    7  A    between atoms: C3*_18  and  O3*_19
REMARK    8  A    between atoms: C2*_20  and  O2*_21
REMARK                            x       y       z     vdW  Elec       q    Type
REMARK                         _______ _______ _______ _____ _____    ______ ____
ROOT
ATOM      1  C   UNL     1       6.876   6.509  16.766  0.00  0.00    +0.000 A 
ATOM      2  N   UNL     1       7.419   5.483  16.076  0.00  0.00    +0.000 NA
ATOM      3  C   UNL     1       6.754   4.310  16.015  0.00  0.00    +0.000 A 
ATOM      4  N   UNL     1       5.560   4.002  16.551  0.00  0.00    +0.000 NA
ATOM      5  C   UNL     1       5.045   5.048  17.220  0.00  0.00    +0.000 A 
ATOM      6  C   UNL     1       5.625   6.294  17.369  0.00  0.00    +0.000 A 
ATOM      7  C   UNL     1       4.699   7.025  18.140  0.00  0.00    +0.000 A 
ATOM      8  N   UNL     1       3.603   6.322  18.453  0.00  0.00    +0.000 NA
ATOM      9  N   UNL     1       3.842   5.108  17.884  0.00  0.00    +0.000 N 
ENDROOT
BRANCH   9  10
ATOM     10  C1* UNL     1       2.863   4.037  17.981  0.00  0.00    +0.000 C 
ATOM     11  O4* UNL     1       1.691   4.527  18.684  0.00  0.00    +0.000 OA
ATOM     12  C4* UNL     1       1.278   3.533  19.652  0.00  0.00    +0.000 C 
ATOM     13  C3* UNL     1       2.085   2.274  19.352  0.00  0.00    +0.000 C 
ATOM     14  C2* UNL     1       3.371   2.809  18.738  0.00  0.00    +0.000 C 
BRANCH  13  15
ATOM     15  O3* UNL     1       1.434   1.451  18.363  0.00  0.00    +0.000 OA
ATOM     16  H3* UNL     1       1.033   0.679  18.806  0.00  0.00    +0.000 HD
ENDBRANCH  13  15
BRANCH  14  17
ATOM     17  O2* UNL     1       3.971   1.833  17.885  0.00  0.00    +0.000 OA
ATOM     18  H2* UNL     1       4.182   1.064  18.456  0.00  0.00    +0.000 HD
ENDBRANCH  14  17
BRANCH  12  19
ATOM     19  C5* UNL     1       1.503   4.069  21.069  0.00  0.00    +0.000 C 
BRANCH  19  20
ATOM     20  O5* UNL     1       2.227   5.297  21.022  0.00  0.00    +0.000 OA
ATOM     21  H5* UNL     1       3.160   5.068  21.192  0.00  0.00    +0.000 HD
ENDBRANCH  19  20
ENDBRANCH  12  19
ENDBRANCH   9  10
BRANCH   1  22
ATOM     22  N   UNL     1       7.545   7.730  16.876  0.00  0.00    +0.000 N 
ATOM     23  H   UNL     1       8.140   7.922  16.079  0.00  0.00    +0.000 HD
BRANCH  22  25
ATOM     24  C   UNL     1       8.505   9.475  18.259  0.00  0.00    +0.000 C 
ATOM     25  C   UNL     1       8.168   7.994  18.166  0.00  0.00    +0.000 C 
ENDBRANCH  22  25
ENDBRANCH   1  22
TORSDOF 7
ENDMDL
MODEL 2
REMARK VINA RESULT:      -6.9      2.056      3.495
REMARK  Name = 
REMARK  8 active torsions:
REMARK  status: ('A' for Active; 'I' for Inactive)
REMARK    1  A    between atoms: C_1  and  C_2
REMARK    2  A    between atoms: C_2  and  N_3
REMARK    3  A    between atoms: N_3  and  C_4
REMARK    4  A    between atoms: N_12  and  C1*_13
REMARK    5  A    between atoms: C4*_15  and  C5*_16
REMARK    6  A    between atoms: C5*_16  and  O5*_17
REMARK    7  A    between atoms: C3*_18  and  O3*_19
REMARK    8  A    between atoms: C2*_20  and  O2*_21
REMARK                            x       y       z     vdW  Elec       q    Type
REMARK                         _______ _______ _______ _____ _____    ______ ____
ROOT
ATOM      1  C   UNL     1       6.754   4.866  15.920  0.00  0.00    +0.000 A 
ATOM      2  N   UNL     1       7.816   4.979  16.745  0.00  0.00    +0.000 NA
ATOM      3  C   UNL     1       7.642   4.785  18.069  0.00  0.00    +0.000 A 
ATOM      4  N   UNL     1       6.511   4.461  18.720  0.00  0.00    +0.000 NA
ATOM      5  C   UNL     1       5.478   4.345  17.868  0.00  0.00    +0.000 A 
ATOM      6  C   UNL     1       5.518   4.529  16.498  0.00  0.00    +0.000 A 
ATOM      7  C   UNL     1       4.196   4.295  16.071  0.00  0.00    +0.000 A 
ATOM      8  N   UNL     1       3.368   3.971  17.072  0.00  0.00    +0.000 NA
ATOM      9  N   UNL     1       4.177   4.016  18.167  0.00  0.00    +0.000 N 
ENDROOT
BRANCH   9  10
ATOM     10  C1* UNL     1       3.654   3.705  19.489  0.00  0.00    +0.000 C 
ATOM     11  O4* UNL     1       3.154   2.342  19.493  0.00  0.00    +0.000 OA
ATOM     12  C4* UNL     1       1.871   2.318  20.163  0.00  0.00    +0.000 C 
ATOM     13  C3* UNL     1       1.698   3.685  20.817  0.00  0.00    +0.000 C 
ATOM     14  C2* UNL     1       2.506   4.615  19.924  0.00  0.00    +0.000 C 
BRANCH  13  15
ATOM     15  O3* UNL     1       2.284   3.720  22.134  0.00  0.00    +0.000 OA
ATOM     16  H3* UNL     1       3.070   4.297  22.117  0.00  0.00    +0.000 HD
ENDBRANCH  13  15
BRANCH  14  17
ATOM     17  O2* UNL     1       2.945   5.763  20.652  0.00  0.00    +0.000 OA
ATOM     18  H2* UNL     1       2.631   5.640  21.573  0.00  0.00    +0.000 HD
ENDBRANCH  14  17
BRANCH  12  19
ATOM     19  C5* UNL     1       0.768   1.990  19.153  0.00  0.00    +0.000 C 
BRANCH  19  20
ATOM     20  O5* UNL     1       1.328   1.813  17.852  0.00  0.00    +0.000 OA
ATOM     21  H5* UNL     1       0.647   2.118  17.222  0.00  0.00    +0.000 HD
ENDBRANCH  19  20
ENDBRANCH  12  19
ENDBRANCH   9  10
BRANCH   1  22
ATOM     22  N   UNL     1       6.888   5.086  14.548  0.00  0.00    +0.000 N 
ATOM     23  H   UNL     1       6.508   5.979  14.256  0.00  0.00    +0.000 HD
BRANCH  22  25
ATOM     24  C   UNL     1       7.020   4.235  12.281  0.00  0.00    +0.000 C 
ATOM     25  C   UNL     1       6.514   3.969  13.691  0.00  0.00    +0.000 C 
ENDBRANCH  22  25
ENDBRANCH   1  22
TORSDOF 7
ENDMDL
MODEL 3
REMARK VINA RESULT:      -6.9      1.144      1.163
REMARK  Name = 
REMARK  8 active torsions:
REMARK  status: ('A' for Active; 'I' for Inactive)
REMARK    1  A    between atoms: C_1  and  C_2
REMARK    2  A    between atoms: C_2  and  N_3
REMARK    3  A    between atoms: N_3  and  C_4
REMARK    4  A    between atoms: N_12  and  C1*_13
REMARK    5  A    between atoms: C4*_15  and  C5*_16
REMARK    6  A    between atoms: C5*_16  and  O5*_17
REMARK    7  A    between atoms: C3*_18  and  O3*_19
REMARK    8  A    between atoms: C2*_20  and  O2*_21
REMARK                            x       y       z     vdW  Elec       q    Type
REMARK                         _______ _______ _______ _____ _____    ______ ____
ROOT
ATOM      1  C   UNL     1       6.775   5.984  16.643  0.00  0.00    +0.000 A 
ATOM      2  N   UNL     1       6.608   5.562  15.371  0.00  0.00    +0.000 NA
ATOM      3  C   UNL     1       5.578   4.738  15.084  0.00  0.00    +0.000 A 
ATOM      4  N   UNL     1       4.633   4.267  15.916  0.00  0.00    +0.000 NA
ATOM      5  C   UNL     1       4.823   4.716  17.169  0.00  0.00    +0.000 A 
ATOM      6  C   UNL     1       5.840   5.549  17.597  0.00  0.00    +0.000 A 
ATOM      7  C   UNL     1       5.597   5.723  18.975  0.00  0.00    +0.000 A 
ATOM      8  N   UNL     1       4.508   5.073  19.404  0.00  0.00    +0.000 NA
ATOM      9  N   UNL     1       4.054   4.455  18.278  0.00  0.00    +0.000 N 
ENDROOT
BRANCH   9  10
ATOM     10  C1* UNL     1       2.850   3.641  18.314  0.00  0.00    +0.000 C 
ATOM     11  O4* UNL     1       1.842   4.315  19.113  0.00  0.00    +0.000 OA
ATOM     12  C4* UNL     1       1.224   3.350  19.996  0.00  0.00    +0.000 C 
ATOM     13  C3* UNL     1       1.701   1.975  19.539  0.00  0.00    +0.000 C 
ATOM     14  C2* UNL     1       3.065   2.255  18.923  0.00  0.00    +0.000 C 
BRANCH  13  15
ATOM     15  O3* UNL     1       0.853   1.437  18.504  0.00  0.00    +0.000 OA
ATOM     16  H3* UNL     1       0.983   1.954  17.687  0.00  0.00    +0.000 HD
ENDBRANCH  13  15
BRANCH  14  17
ATOM     17  O2* UNL     1       3.398   1.261  17.953  0.00  0.00    +0.000 OA
ATOM     18  H2* UNL     1       2.852   0.475  18.168  0.00  0.00    +0.000 HD
ENDBRANCH  14  17
BRANCH  12  19
ATOM     19  C5* UNL     1       1.598   3.665  21.447  0.00  0.00    +0.000 C 
BRANCH  19  20
ATOM     20  O5* UNL     1       1.600   2.469  22.226  0.00  0.00    +0.000 OA
ATOM     21  H5* UNL     1       2.307   1.907  21.855  0.00  0.00    +0.000 HD
ENDBRANCH  19  20
ENDBRANCH  12  19
ENDBRANCH   9  10
BRANCH   1  22
ATOM     22  N   UNL     1       7.844   6.814  16.986  0.00  0.00    +0.000 N 
ATOM     23  H   UNL     1       8.523   6.351  17.579  0.00  0.00    +0.000 HD
BRANCH  22  25
ATOM     24  C   UNL     1       8.523   8.647  18.422  0.00  0.00    +0.000 C 
ATOM     25  C   UNL     1       7.485   8.157  17.423  0.00  0.00    +0.000 C 
ENDBRANCH  22  25
ENDBRANCH   1  22
TORSDOF 7
ENDMDL
MODEL 4
REMARK VINA RESULT:      -6.8      1.367      1.629
REMARK  Name = 
REMARK  8 active torsions:
REMARK  status: ('A' for Active; 'I' for Inactive)
REMARK    1  A    between atoms: C_1  and  C_2
REMARK    2  A    between atoms: C_2  and  N_3
REMARK    3  A    between atoms: N_3  and  C_4
REMARK    4  A    between atoms: N_12  and  C1*_13
REMARK    5  A    between atoms: C4*_15  and  C5*_16
REMARK    6  A    between atoms: C5*_16  and  O5*_17
REMARK    7  A    between atoms: C3*_18  and  O3*_19
REMARK    8  A    between atoms: C2*_20  and  O2*_21
REMARK                            x       y       z     vdW  Elec       q    Type
REMARK                         _______ _______ _______ _____ _____    ______ ____
ROOT
ATOM      1  C   UNL     1       6.828   6.946  17.542  0.00  0.00    +0.000 A 
ATOM      2  N   UNL     1       6.233   7.365  16.404  0.00  0.00    +0.000 NA
ATOM      3  C   UNL     1       5.095   6.765  15.999  0.00  0.00    +0.000 A 
ATOM      4  N   UNL     1       4.419   5.771  16.602  0.00  0.00    +0.000 NA
ATOM      5  C   UNL     1       5.031   5.387  17.735  0.00  0.00    +0.000 A 
ATOM      6  C   UNL     1       6.202   5.908  18.254  0.00  0.00    +0.000 A 
ATOM      7  C   UNL     1       6.419   5.178  19.440  0.00  0.00    +0.000 A 
ATOM      8  N   UNL     1       5.465   4.271  19.682  0.00  0.00    +0.000 NA
ATOM      9  N   UNL     1       4.628   4.412  18.617  0.00  0.00    +0.000 N 
ENDROOT
BRANCH   9  10
ATOM     10  C1* UNL     1       3.426   3.600  18.505  0.00  0.00    +0.000 C 
ATOM     11  O4* UNL     1       2.323   4.291  19.148  0.00  0.00    +0.000 OA
ATOM     12  C4* UNL     1       1.587   3.344  19.958  0.00  0.00    +0.000 C 
ATOM     13  C3* UNL     1       2.116   1.960  19.595  0.00  0.00    +0.000 C 
ATOM     14  C2* UNL     1       3.551   2.226  19.163  0.00  0.00    +0.000 C 
BRANCH  13  15
ATOM     15  O3* UNL     1       1.413   1.404  18.466  0.00  0.00    +0.000 OA
ATOM     16  H3* UNL     1       0.995   0.564  18.734  0.00  0.00    +0.000 HD
ENDBRANCH  13  15
BRANCH  14  17
ATOM     17  O2* UNL     1       4.008   1.213  18.266  0.00  0.00    +0.000 OA
ATOM     18  H2* UNL     1       3.747   1.505  17.367  0.00  0.00    +0.000 HD
ENDBRANCH  14  17
BRANCH  12  19
ATOM     19  C5* UNL     1       1.764   3.686  21.441  0.00  0.00    +0.000 C 
BRANCH  19  20
ATOM     20  O5* UNL     1       1.625   2.510  22.237  0.00  0.00    +0.000 OA
ATOM     21  H5* UNL     1       0.928   2.708  22.891  0.00  0.00    +0.000 HD
ENDBRANCH  19  20
ENDBRANCH  12  19
ENDBRANCH   9  10
BRANCH   1  22
ATOM     22  N   UNL     1       8.020   7.523  17.981  0.00  0.00    +0.000 N 
ATOM     23  H   UNL     1       8.294   7.202  18.902  0.00  0.00    +0.000 HD
BRANCH  22  25
ATOM     24  C   UNL     1       8.969   9.548  18.920  0.00  0.00    +0.000 C 
ATOM     25  C   UNL     1       8.132   8.963  17.792  0.00  0.00    +0.000 C 
ENDBRANCH  22  25
ENDBRANCH   1  22
TORSDOF 7
ENDMDL
MODEL 5
REMARK VINA RESULT:      -6.7      1.746      2.210
REMARK  Name = 
REMARK  8 active torsions:
REMARK  status: ('A' for Active; 'I' for Inactive)
REMARK    1  A    between atoms: C_1  and  C_2
REMARK    2  A    between atoms: C_2  and  N_3
REMARK    3  A    between atoms: N_3  and  C_4
REMARK    4  A    between atoms: N_12  and  C1*_13
REMARK    5  A    between atoms: C4*_15  and  C5*_16
REMARK    6  A    between atoms: C5*_16  and  O5*_17
REMARK    7  A    between atoms: C3*_18  and  O3*_19
REMARK    8  A    between atoms: C2*_20  and  O2*_21
REMARK                            x       y       z     vdW  Elec       q    Type
REMARK                         _______ _______ _______ _____ _____    ______ ____
ROOT
ATOM      1  C   UNL     1       7.568   7.357  17.973  0.00  0.00    +0.000 A 
ATOM      2  N   UNL     1       8.363   6.744  18.876  0.00  0.00    +0.000 NA
ATOM      3  C   UNL     1       8.050   5.497  19.285  0.00  0.00    +0.000 A 
ATOM      4  N   UNL     1       7.021   4.726  18.892  0.00  0.00    +0.000 NA
ATOM      5  C   UNL     1       6.258   5.362  17.986  0.00  0.00    +0.000 A 
ATOM      6  C   UNL     1       6.459   6.639  17.494  0.00  0.00    +0.000 A 
ATOM      7  C   UNL     1       5.403   6.836  16.582  0.00  0.00    +0.000 A 
ATOM      8  N   UNL     1       4.593   5.776  16.477  0.00  0.00    +0.000 NA
ATOM      9  N   UNL     1       5.133   4.886  17.355  0.00  0.00    +0.000 N 
ENDROOT
BRANCH   9  10
ATOM     10  C1* UNL     1       4.545   3.568  17.532  0.00  0.00    +0.000 C 
ATOM     11  O4* UNL     1       3.300   3.498  16.789  0.00  0.00    +0.000 OA
ATOM     12  C4* UNL     1       2.294   2.874  17.620  0.00  0.00    +0.000 C 
ATOM     13  C3* UNL     1       3.023   2.311  18.836  0.00  0.00    +0.000 C 
ATOM     14  C2* UNL     1       4.227   3.229  18.989  0.00  0.00    +0.000 C 
BRANCH  13  15
ATOM     15  O3* UNL     1       3.515   0.979  18.587  0.00  0.00    +0.000 OA
ATOM     16  H3* UNL     1       4.142   1.005  17.839  0.00  0.00    +0.000 HD
ENDBRANCH  13  15
BRANCH  14  17
ATOM     17  O2* UNL     1       5.297   2.558  19.656  0.00  0.00    +0.000 OA
ATOM     18  H2* UNL     1       5.109   1.598  19.578  0.00  0.00    +0.000 HD
ENDBRANCH  14  17
BRANCH  12  19
ATOM     19  C5* UNL     1       1.218   3.901  17.987  0.00  0.00    +0.000 C 
BRANCH  19  20
ATOM     20  O5* UNL     1       1.716   5.225  17.796  0.00  0.00    +0.000 OA
ATOM     21  H5* UNL     1       1.406   5.504  16.913  0.00  0.00    +0.000 HD
ENDBRANCH  19  20
ENDBRANCH  12  19
ENDBRANCH   9  10
BRANCH   1  22
ATOM     22  N   UNL     1       7.842   8.657  17.545  0.00  0.00    +0.000 N 
ATOM     23  H   UNL     1       8.144   8.694  16.578  0.00  0.00    +0.000 HD
BRANCH  22  25
ATOM     24  C   UNL     1       8.759  10.875  17.893  0.00  0.00    +0.000 C 
ATOM     25  C   UNL     1       8.645   9.465  18.453  0.00  0.00    +0.000 C 
ENDBRANCH  22  25
ENDBRANCH   1  22
TORSDOF 7
ENDMDL
MODEL 6
REMARK VINA RESULT:      -6.6      1.948      3.926
REMARK  Name = 
REMARK  8 active torsions:
REMARK  status: ('A' for Active; 'I' for Inactive)
REMARK    1  A    between atoms: C_1  and  C_2
REMARK    2  A    between atoms: C_2  and  N_3
REMARK    3  A    between atoms: N_3  and  C_4
REMARK    4  A    between atoms: N_12  and  C1*_13
REMARK    5  A    between atoms: C4*_15  and  C5*_16
REMARK    6  A    between atoms: C5*_16  and  O5*_17
REMARK    7  A    between atoms: C3*_18  and  O3*_19
REMARK    8  A    between atoms: C2*_20  and  O2*_21
REMARK                            x       y       z     vdW  Elec       q    Type
REMARK                         _______ _______ _______ _____ _____    ______ ____
ROOT
ATOM      1  C   UNL     1       6.480   4.509  15.529  0.00  0.00    +0.000 A 
ATOM      2  N   UNL     1       7.318   5.540  15.771  0.00  0.00    +0.000 NA
ATOM      3  C   UNL     1       7.052   6.376  16.796  0.00  0.00    +0.000 A 
ATOM      4  N   UNL     1       6.031   6.321  17.669  0.00  0.00    +0.000 NA
ATOM      5  C   UNL     1       5.224   5.279  17.407  0.00  0.00    +0.000 A 
ATOM      6  C   UNL     1       5.376   4.359  16.386  0.00  0.00    +0.000 A 
ATOM      7  C   UNL     1       4.287   3.478  16.539  0.00  0.00    +0.000 A 
ATOM      8  N   UNL     1       3.502   3.786  17.580  0.00  0.00    +0.000 NA
ATOM      9  N   UNL     1       4.093   4.901  18.092  0.00  0.00    +0.000 N 
ENDROOT
BRANCH   9  10
ATOM     10  C1* UNL     1       3.546   5.557  19.269  0.00  0.00    +0.000 C 
ATOM     11  O4* UNL     1       3.324   4.565  20.306  0.00  0.00    +0.000 OA
ATOM     12  C4* UNL     1       2.025   4.795  20.901  0.00  0.00    +0.000 C 
ATOM     13  C3* UNL     1       1.538   6.141  20.375  0.00  0.00    +0.000 C 
ATOM     14  C2* UNL     1       2.212   6.259  19.015  0.00  0.00    +0.000 C 
BRANCH  13  15
ATOM     15  O3* UNL     1       2.007   7.231  21.194  0.00  0.00    +0.000 OA
ATOM     16  H3* UNL     1       2.520   7.848  20.639  0.00  0.00    +0.000 HD
ENDBRANCH  13  15
BRANCH  14  17
ATOM     17  O2* UNL     1       2.362   7.629  18.640  0.00  0.00    +0.000 OA
ATOM     18  H2* UNL     1       2.641   8.106  19.450  0.00  0.00    +0.000 HD
ENDBRANCH  14  17
BRANCH  12  19
ATOM     19  C5* UNL     1       1.086   3.636  20.552  0.00  0.00    +0.000 C 
BRANCH  19  20
ATOM     20  O5* UNL     1       1.799   2.618  19.852  0.00  0.00    +0.000 OA
ATOM     21  H5* UNL     1       2.744   2.848  19.930  0.00  0.00    +0.000 HD
ENDBRANCH  19  20
ENDBRANCH  12  19
ENDBRANCH   9  10
BRANCH   1  22
ATOM     22  N   UNL     1       6.706   3.638  14.462  0.00  0.00    +0.000 N 
ATOM     23  H   UNL     1       7.546   3.085  14.581  0.00  0.00    +0.000 HD
BRANCH  22  25
ATOM     24  C   UNL     1       5.745   3.257  12.268  0.00  0.00    +0.000 C 
ATOM     25  C   UNL     1       6.552   4.214  13.133  0.00  0.00    +0.000 C 
ENDBRANCH  22  25
ENDBRANCH   1  22
TORSDOF 7
ENDMDL
MODEL 7
REMARK VINA RESULT:      -6.5      1.244      1.259
REMARK  Name = 
REMARK  8 active torsions:
REMARK  status: ('A' for Active; 'I' for Inactive)
REMARK    1  A    between atoms: C_1  and  C_2
REMARK    2  A    between atoms: C_2  and  N_3
REMARK    3  A    between atoms: N_3  and  C_4
REMARK    4  A    between atoms: N_12  and  C1*_13
REMARK    5  A    between atoms: C4*_15  and  C5*_16
REMARK    6  A    between atoms: C5*_16  and  O5*_17
REMARK    7  A    between atoms: C3*_18  and  O3*_19
REMARK    8  A    between atoms: C2*_20  and  O2*_21
REMARK                            x       y       z     vdW  Elec       q    Type
REMARK                         _______ _______ _______ _____ _____    ______ ____
ROOT
ATOM      1  C   UNL     1       5.941   6.507  16.877  0.00  0.00    +0.000 A 
ATOM      2  N   UNL     1       6.524   5.352  16.492  0.00  0.00    +0.000 NA
ATOM      3  C   UNL     1       5.842   4.196  16.626  0.00  0.00    +0.000 A 
ATOM      4  N   UNL     1       4.594   4.016  17.094  0.00  0.00    +0.000 NA
ATOM      5  C   UNL     1       4.040   5.186  17.456  0.00  0.00    +0.000 A 
ATOM      6  C   UNL     1       4.632   6.433  17.382  0.00  0.00    +0.000 A 
ATOM      7  C   UNL     1       3.651   7.319  17.873  0.00  0.00    +0.000 A 
ATOM      8  N   UNL     1       2.514   6.705  18.222  0.00  0.00    +0.000 NA
ATOM      9  N   UNL     1       2.779   5.394  17.965  0.00  0.00    +0.000 N 
ENDROOT
BRANCH   9  10
ATOM     10  C1* UNL     1       1.770   4.373  18.198  0.00  0.00    +0.000 C 
ATOM     11  O4* UNL     1       1.104   4.642  19.460  0.00  0.00    +0.000 OA
ATOM     12  C4* UNL     1       0.980   3.403  20.196  0.00  0.00    +0.000 C 
ATOM     13  C3* UNL     1       1.364   2.285  19.231  0.00  0.00    +0.000 C 
ATOM     14  C2* UNL     1       2.338   2.956  18.274  0.00  0.00    +0.000 C 
BRANCH  13  15
ATOM     15  O3* UNL     1       0.230   1.837  18.462  0.00  0.00    +0.000 OA
ATOM     16  H3* UNL     1      -0.532   2.416  18.652  0.00  0.00    +0.000 HD
ENDBRANCH  13  15
BRANCH  14  17
ATOM     17  O2* UNL     1       2.351   2.288  17.011  0.00  0.00    +0.000 OA
ATOM     18  H2* UNL     1       2.701   2.936  16.363  0.00  0.00    +0.000 HD
ENDBRANCH  14  17
BRANCH  12  19
ATOM     19  C5* UNL     1       1.868   3.452  21.443  0.00  0.00    +0.000 C 
BRANCH  19  20
ATOM     20  O5* UNL     1       1.753   2.235  22.178  0.00  0.00    +0.000 OA
ATOM     21  H5* UNL     1       2.109   1.535  21.598  0.00  0.00    +0.000 HD
ENDBRANCH  19  20
ENDBRANCH  12  19
ENDBRANCH   9  10
BRANCH   1  22
ATOM     22  N   UNL     1       6.623   7.721  16.779  0.00  0.00    +0.000 N 
ATOM     23  H   UNL     1       6.784   8.002  15.819  0.00  0.00    +0.000 HD
BRANCH  22  25
ATOM     24  C   UNL     1       8.068   9.344  17.856  0.00  0.00    +0.000 C 
ATOM     25  C   UNL     1       7.784   7.864  17.647  0.00  0.00    +0.000 C 
ENDBRANCH  22  25
ENDBRANCH   1  22
TORSDOF 7
ENDMDL
MODEL 8
REMARK VINA RESULT:      -6.3      1.110      1.152
REMARK  Name = 
REMARK  8 active torsions:
REMARK  status: ('A' for Active; 'I' for Inactive)
REMARK    1  A    between atoms: C_1  and  C_2
REMARK    2  A    between atoms: C_2  and  N_3
REMARK    3  A    between atoms: N_3  and  C_4
REMARK    4  A    between atoms: N_12  and  C1*_13
REMARK    5  A    between atoms: C4*_15  and  C5*_16
REMARK    6  A    between atoms: C5*_16  and  O5*_17
REMARK    7  A    between atoms: C3*_18  and  O3*_19
REMARK    8  A    between atoms: C2*_20  and  O2*_21
REMARK                            x       y       z     vdW  Elec       q    Type
REMARK                         _______ _______ _______ _____ _____    ______ ____
ROOT
ATOM      1  C   UNL     1       6.991   6.804  16.851  0.00  0.00    +0.000 A 
ATOM      2  N   UNL     1       7.564   6.055  15.885  0.00  0.00    +0.000 NA
ATOM      3  C   UNL     1       7.142   4.786  15.702  0.00  0.00    +0.000 A 
ATOM      4  N   UNL     1       6.171   4.130  16.361  0.00  0.00    +0.000 NA
ATOM      5  C   UNL     1       5.615   4.908  17.305  0.00  0.00    +0.000 A 
ATOM      6  C   UNL     1       5.961   6.213  17.602  0.00  0.00    +0.000 A 
ATOM      7  C   UNL     1       5.094   6.579  18.652  0.00  0.00    +0.000 A 
ATOM      8  N   UNL     1       4.246   5.602  18.999  0.00  0.00    +0.000 NA
ATOM      9  N   UNL     1       4.591   4.583  18.163  0.00  0.00    +0.000 N 
ENDROOT
BRANCH   9  10
ATOM     10  C1* UNL     1       3.881   3.315  18.208  0.00  0.00    +0.000 C 
ATOM     11  O4* UNL     1       2.481   3.542  17.896  0.00  0.00    +0.000 OA
ATOM     12  C4* UNL     1       1.668   2.798  18.834  0.00  0.00    +0.000 C 
ATOM     13  C3* UNL     1       2.615   1.878  19.596  0.00  0.00    +0.000 C 
ATOM     14  C2* UNL     1       3.940   2.627  19.572  0.00  0.00    +0.000 C 
BRANCH  13  15
ATOM     15  O3* UNL     1       2.805   0.626  18.907  0.00  0.00    +0.000 OA
ATOM     16  H3* UNL     1       1.977   0.385  18.450  0.00  0.00    +0.000 HD
ENDBRANCH  13  15
BRANCH  14  17
ATOM     17  O2* UNL     1       5.038   1.722  19.697  0.00  0.00    +0.000 OA
ATOM     18  H2* UNL     1       5.824   2.271  19.901  0.00  0.00    +0.000 HD
ENDBRANCH  14  17
BRANCH  12  19
ATOM     19  C5* UNL     1       0.912   3.771  19.745  0.00  0.00    +0.000 C 
BRANCH  19  20
ATOM     20  O5* UNL     1       0.752   3.205  21.045  0.00  0.00    +0.000 OA
ATOM     21  H5* UNL     1       1.200   2.337  21.018  0.00  0.00    +0.000 HD
ENDBRANCH  19  20
ENDBRANCH  12  19
ENDBRANCH   9  10
BRANCH   1  22
ATOM     22  N   UNL     1       7.418   8.112  17.089  0.00  0.00    +0.000 N 
ATOM     23  H   UNL     1       7.727   8.581  16.246  0.00  0.00    +0.000 HD
BRANCH  22  25
ATOM     24  C   UNL     1       8.676   9.759  18.348  0.00  0.00    +0.000 C 
ATOM     25  C   UNL     1       8.304   8.288  18.231  0.00  0.00    +0.000 C 
ENDBRANCH  22  25
ENDBRANCH   1  22
TORSDOF 7
ENDMDL
MODEL 9
REMARK VINA RESULT:      -6.2      1.247      1.681
REMARK  Name = 
REMARK  8 active torsions:
REMARK  status: ('A' for Active; 'I' for Inactive)
REMARK    1  A    between atoms: C_1  and  C_2
REMARK    2  A    between atoms: C_2  and  N_3
REMARK    3  A    between atoms: N_3  and  C_4
REMARK    4  A    between atoms: N_12  and  C1*_13
REMARK    5  A    between atoms: C4*_15  and  C5*_16
REMARK    6  A    between atoms: C5*_16  and  O5*_17
REMARK    7  A    between atoms: C3*_18  and  O3*_19
REMARK    8  A    between atoms: C2*_20  and  O2*_21
REMARK                            x       y       z     vdW  Elec       q    Type
REMARK                         _______ _______ _______ _____ _____    ______ ____
ROOT
ATOM      1  C   UNL     1       6.818   6.719  17.373  0.00  0.00    +0.000 A 
ATOM      2  N   UNL     1       7.592   5.616  17.461  0.00  0.00    +0.000 NA
ATOM      3  C   UNL     1       7.023   4.443  17.812  0.00  0.00    +0.000 A 
ATOM      4  N   UNL     1       5.730   4.194  18.083  0.00  0.00    +0.000 NA
ATOM      5  C   UNL     1       4.989   5.310  17.975  0.00  0.00    +0.000 A 
ATOM      6  C   UNL     1       5.447   6.570  17.637  0.00  0.00    +0.000 A 
ATOM      7  C   UNL     1       4.294   7.382  17.659  0.00  0.00    +0.000 A 
ATOM      8  N   UNL     1       3.180   6.707  17.968  0.00  0.00    +0.000 NA
ATOM      9  N   UNL     1       3.633   5.438  18.166  0.00  0.00    +0.000 N 
ENDROOT
BRANCH   9  10
ATOM     10  C1* UNL     1       2.712   4.367  18.512  0.00  0.00    +0.000 C 
ATOM     11  O4* UNL     1       2.805   4.100  19.936  0.00  0.00    +0.000 OA
ATOM     12  C4* UNL     1       2.851   2.668  20.140  0.00  0.00    +0.000 C 
ATOM     13  C3* UNL     1       2.519   2.027  18.797  0.00  0.00    +0.000 C 
ATOM     14  C2* UNL     1       2.997   3.054  17.781  0.00  0.00    +0.000 C 
BRANCH  13  15
ATOM     15  O3* UNL     1       1.096   1.866  18.625  0.00  0.00    +0.000 OA
ATOM     16  H3* UNL     1       0.891   1.851  17.671  0.00  0.00    +0.000 HD
ENDBRANCH  13  15
BRANCH  14  17
ATOM     17  O2* UNL     1       2.277   2.928  16.554  0.00  0.00    +0.000 OA
ATOM     18  H2* UNL     1       1.883   2.030  16.558  0.00  0.00    +0.000 HD
ENDBRANCH  14  17
BRANCH  12  19
ATOM     19  C5* UNL     1       4.230   2.267  20.674  0.00  0.00    +0.000 C 
BRANCH  19  20
ATOM     20  O5* UNL     1       5.030   1.736  19.619  0.00  0.00    +0.000 OA
ATOM     21  H5* UNL     1       5.950   1.749  19.945  0.00  0.00    +0.000 HD
ENDBRANCH  19  20
ENDBRANCH  12  19
ENDBRANCH   9  10
BRANCH   1  22
ATOM     22  N   UNL     1       7.373   7.956  17.039  0.00  0.00    +0.000 N 
ATOM     23  H   UNL     1       7.747   7.975  16.098  0.00  0.00    +0.000 HD
BRANCH  22  25
ATOM     24  C   UNL     1       8.326  10.049  17.810  0.00  0.00    +0.000 C 
ATOM     25  C   UNL     1       8.248   8.547  18.043  0.00  0.00    +0.000 C 
ENDBRANCH  22  25
ENDBRANCH   1  22
TORSDOF 7
ENDMDL
