MODEL 1
REMARK VINA RESULT:      -8.4      0.000      0.000
REMARK  Name = 
REMARK  6 active torsions:
REMARK  status: ('A' for Active; 'I' for Inactive)
REMARK    1  A    between atoms: C_2  and  O_3
REMARK    2  A    between atoms: C_2  and  C_4
REMARK    3  A    between atoms: C_4  and  N_5
REMARK    4  A    between atoms: C_8  and  C_9
REMARK    5  A    between atoms: C_12  and  O_13
REMARK    6  A    between atoms: C_15  and  O_16
REMARK                            x       y       z     vdW  Elec       q    Type
REMARK                         _______ _______ _______ _____ _____    ______ ____
ROOT
ATOM      1  N   UNL     1       6.694   5.185  17.634  0.00  0.00    +0.000 N 
ATOM      2  C   UNL     1       5.815   4.785  18.640  0.00  0.00    +0.000 A 
ATOM      3  O   UNL     1       5.989   5.068  19.818  0.00  0.00    +0.000 OA
ATOM      4  C   UNL     1       4.565   4.010  18.201  0.00  0.00    +0.000 A 
ATOM      5  N   UNL     1       4.344   3.740  16.947  0.00  0.00    +0.000 NA
ATOM      6  C   UNL     1       5.286   4.105  15.976  0.00  0.00    +0.000 A 
ATOM      7  C   UNL     1       5.022   3.739  14.651  0.00  0.00    +0.000 A 
ATOM      8  C   UNL     1       5.902   4.087  13.626  0.00  0.00    +0.000 A 
ATOM      9  C   UNL     1       7.049   4.802  13.934  0.00  0.00    +0.000 A 
ATOM     10  F   UNL     1       7.897   5.149  12.958  0.00  0.00    +0.000 F 
ATOM     11  C   UNL     1       7.337   5.172  15.245  0.00  0.00    +0.000 A 
ATOM     12  C   UNL     1       6.459   4.821  16.280  0.00  0.00    +0.000 A 
ENDROOT
BRANCH   4  13
ATOM     13  C   UNL     1       3.595   3.580  19.258  0.00  0.00    +0.000 A 
ATOM     14  C   UNL     1       2.346   4.217  19.362  0.00  0.00    +0.000 A 
ATOM     15  C   UNL     1       1.478   3.929  20.418  0.00  0.00    +0.000 A 
ATOM     16  C   UNL     1       1.838   2.964  21.348  0.00  0.00    +0.000 A 
ATOM     17  C   UNL     1       3.034   2.264  21.225  0.00  0.00    +0.000 A 
ATOM     18  C   UNL     1       3.916   2.581  20.187  0.00  0.00    +0.000 A 
BRANCH  16  19
ATOM     19  O   UNL     1       1.043   2.682  22.419  0.00  0.00    +0.000 OA
ATOM     20  H   UNL     1       0.996   1.717  22.527  0.00  0.00    +0.000 HD
ENDBRANCH  16  19
BRANCH  18  21
ATOM     21  O   UNL     1       5.119   1.932  20.130  0.00  0.00    +0.000 OA
ATOM     22  H   UNL     1       5.048   1.174  19.527  0.00  0.00    +0.000 HD
ENDBRANCH  18  21
ENDBRANCH   4  13
BRANCH   1  23
ATOM     23  C   UNL     1       7.865   5.968  18.038  0.00  0.00    +0.000 C 
BRANCH  23  25
ATOM     24  O   UNL     1       6.783   7.969  17.210  0.00  0.00    +0.000 OA
ATOM     25  C   UNL     1       7.662   7.474  17.902  0.00  0.00    +0.000 C 
BRANCH  25  26
ATOM     26  O   UNL     1       8.517   8.240  18.619  0.00  0.00    +0.000 OA
ATOM     27  H   UNL     1       9.135   7.708  19.157  0.00  0.00    +0.000 HD
ENDBRANCH  25  26
ENDBRANCH  23  25
ENDBRANCH   1  23
TORSDOF 6
ENDMDL
MODEL 2
REMARK VINA RESULT:      -8.0      0.832      1.414
REMARK  Name = 
REMARK  6 active torsions:
REMARK  status: ('A' for Active; 'I' for Inactive)
REMARK    1  A    between atoms: C_2  and  O_3
REMARK    2  A    between atoms: C_2  and  C_4
REMARK    3  A    between atoms: C_4  and  N_5
REMARK    4  A    between atoms: C_8  and  C_9
REMARK    5  A    between atoms: C_12  and  O_13
REMARK    6  A    between atoms: C_15  and  O_16
REMARK                            x       y       z     vdW  Elec       q    Type
REMARK                         _______ _______ _______ _____ _____    ______ ____
ROOT
ATOM      1  N   UNL     1       6.775   5.224  17.727  0.00  0.00    +0.000 N 
ATOM      2  C   UNL     1       5.919   4.886  18.776  0.00  0.00    +0.000 A 
ATOM      3  O   UNL     1       6.157   5.176  19.940  0.00  0.00    +0.000 OA
ATOM      4  C   UNL     1       4.612   4.173  18.402  0.00  0.00    +0.000 A 
ATOM      5  N   UNL     1       4.325   3.896  17.163  0.00  0.00    +0.000 NA
ATOM      6  C   UNL     1       5.243   4.197  16.148  0.00  0.00    +0.000 A 
ATOM      7  C   UNL     1       4.905   3.825  14.841  0.00  0.00    +0.000 A 
ATOM      8  C   UNL     1       5.758   4.111  13.775  0.00  0.00    +0.000 A 
ATOM      9  C   UNL     1       6.952   4.768  14.023  0.00  0.00    +0.000 A 
ATOM     10  F   UNL     1       7.775   5.055  13.007  0.00  0.00    +0.000 F 
ATOM     11  C   UNL     1       7.315   5.141  15.315  0.00  0.00    +0.000 A 
ATOM     12  C   UNL     1       6.464   4.853  16.391  0.00  0.00    +0.000 A 
ENDROOT
BRANCH   4  13
ATOM     13  C   UNL     1       3.666   3.811  19.505  0.00  0.00    +0.000 A 
ATOM     14  C   UNL     1       3.917   2.678  20.299  0.00  0.00    +0.000 A 
ATOM     15  C   UNL     1       2.986   2.243  21.245  0.00  0.00    +0.000 A 
ATOM     16  C   UNL     1       1.820   2.972  21.434  0.00  0.00    +0.000 A 
ATOM     17  C   UNL     1       1.583   4.139  20.716  0.00  0.00    +0.000 A 
ATOM     18  C   UNL     1       2.501   4.552  19.745  0.00  0.00    +0.000 A 
BRANCH  16  19
ATOM     19  O   UNL     1       0.864   2.560  22.315  0.00  0.00    +0.000 OA
ATOM     20  H   UNL     1       0.553   1.679  22.047  0.00  0.00    +0.000 HD
ENDBRANCH  16  19
BRANCH  18  21
ATOM     21  O   UNL     1       2.210   5.661  19.000  0.00  0.00    +0.000 OA
ATOM     22  H   UNL     1       1.420   6.095  19.363  0.00  0.00    +0.000 HD
ENDBRANCH  18  21
ENDBRANCH   4  13
BRANCH   1  23
ATOM     23  C   UNL     1       8.001   5.949  18.069  0.00  0.00    +0.000 C 
BRANCH  23  25
ATOM     24  O   UNL     1       7.076   8.022  17.228  0.00  0.00    +0.000 OA
ATOM     25  C   UNL     1       7.848   7.465  17.997  0.00  0.00    +0.000 C 
BRANCH  25  26
ATOM     26  O   UNL     1       8.618   8.167  18.861  0.00  0.00    +0.000 OA
ATOM     27  H   UNL     1       8.817   7.667  19.676  0.00  0.00    +0.000 HD
ENDBRANCH  25  26
ENDBRANCH  23  25
ENDBRANCH   1  23
TORSDOF 6
ENDMDL
MODEL 3
REMARK VINA RESULT:      -8.0      3.683      5.361
REMARK  Name = 
REMARK  6 active torsions:
REMARK  status: ('A' for Active; 'I' for Inactive)
REMARK    1  A    between atoms: C_2  and  O_3
REMARK    2  A    between atoms: C_2  and  C_4
REMARK    3  A    between atoms: C_4  and  N_5
REMARK    4  A    between atoms: C_8  and  C_9
REMARK    5  A    between atoms: C_12  and  O_13
REMARK    6  A    between atoms: C_15  and  O_16
REMARK                            x       y       z     vdW  Elec       q    Type
REMARK                         _______ _______ _______ _____ _____    ______ ____
ROOT
ATOM      1  N   UNL     1       3.109   4.486  18.403  0.00  0.00    +0.000 N 
ATOM      2  C   UNL     1       2.391   5.481  19.066  0.00  0.00    +0.000 A 
ATOM      3  O   UNL     1       1.588   5.232  19.955  0.00  0.00    +0.000 OA
ATOM      4  C   UNL     1       2.692   6.934  18.672  0.00  0.00    +0.000 A 
ATOM      5  N   UNL     1       3.575   7.216  17.758  0.00  0.00    +0.000 NA
ATOM      6  C   UNL     1       4.227   6.182  17.072  0.00  0.00    +0.000 A 
ATOM      7  C   UNL     1       5.125   6.545  16.061  0.00  0.00    +0.000 A 
ATOM      8  C   UNL     1       5.828   5.572  15.350  0.00  0.00    +0.000 A 
ATOM      9  C   UNL     1       5.627   4.235  15.653  0.00  0.00    +0.000 A 
ATOM     10  F   UNL     1       6.303   3.293  14.984  0.00  0.00    +0.000 F 
ATOM     11  C   UNL     1       4.734   3.849  16.650  0.00  0.00    +0.000 A 
ATOM     12  C   UNL     1       4.021   4.821  17.365  0.00  0.00    +0.000 A 
ENDROOT
BRANCH   4  13
ATOM     13  C   UNL     1       1.947   8.024  19.378  0.00  0.00    +0.000 A 
ATOM     14  C   UNL     1       1.634   7.889  20.742  0.00  0.00    +0.000 A 
ATOM     15  C   UNL     1       0.827   8.826  21.391  0.00  0.00    +0.000 A 
ATOM     16  C   UNL     1       0.372   9.932  20.687  0.00  0.00    +0.000 A 
ATOM     17  C   UNL     1       0.729  10.129  19.357  0.00  0.00    +0.000 A 
ATOM     18  C   UNL     1       1.508   9.170  18.701  0.00  0.00    +0.000 A 
BRANCH  16  19
ATOM     19  O   UNL     1      -0.454  10.849  21.267  0.00  0.00    +0.000 OA
ATOM     20  H   UNL     1      -0.335  11.703  20.819  0.00  0.00    +0.000 HD
ENDBRANCH  16  19
BRANCH  18  21
ATOM     21  O   UNL     1       1.784   9.350  17.373  0.00  0.00    +0.000 OA
ATOM     22  H   UNL     1       2.684   9.703  17.277  0.00  0.00    +0.000 HD
ENDBRANCH  18  21
ENDBRANCH   4  13
BRANCH   1  23
ATOM     23  C   UNL     1       2.864   3.099  18.807  0.00  0.00    +0.000 C 
BRANCH  23  25
ATOM     24  O   UNL     1       3.222   2.592  21.147  0.00  0.00    +0.000 OA
ATOM     25  C   UNL     1       3.686   2.668  20.018  0.00  0.00    +0.000 C 
BRANCH  25  26
ATOM     26  O   UNL     1       4.977   2.354  19.759  0.00  0.00    +0.000 OA
ATOM     27  H   UNL     1       5.431   3.041  19.234  0.00  0.00    +0.000 HD
ENDBRANCH  25  26
ENDBRANCH  23  25
ENDBRANCH   1  23
TORSDOF 6
ENDMDL
MODEL 4
REMARK VINA RESULT:      -7.9      3.950      5.713
REMARK  Name = 
REMARK  6 active torsions:
REMARK  status: ('A' for Active; 'I' for Inactive)
REMARK    1  A    between atoms: C_2  and  O_3
REMARK    2  A    between atoms: C_2  and  C_4
REMARK    3  A    between atoms: C_4  and  N_5
REMARK    4  A    between atoms: C_8  and  C_9
REMARK    5  A    between atoms: C_12  and  O_13
REMARK    6  A    between atoms: C_15  and  O_16
REMARK                            x       y       z     vdW  Elec       q    Type
REMARK                         _______ _______ _______ _____ _____    ______ ____
ROOT
ATOM      1  N   UNL     1       3.114   4.620  18.690  0.00  0.00    +0.000 N 
ATOM      2  C   UNL     1       2.382   5.639  19.299  0.00  0.00    +0.000 A 
ATOM      3  O   UNL     1       1.614   5.433  20.230  0.00  0.00    +0.000 OA
ATOM      4  C   UNL     1       2.622   7.067  18.789  0.00  0.00    +0.000 A 
ATOM      5  N   UNL     1       3.468   7.307  17.830  0.00  0.00    +0.000 NA
ATOM      6  C   UNL     1       4.134   6.245  17.202  0.00  0.00    +0.000 A 
ATOM      7  C   UNL     1       4.989   6.559  16.139  0.00  0.00    +0.000 A 
ATOM      8  C   UNL     1       5.704   5.558  15.480  0.00  0.00    +0.000 A 
ATOM      9  C   UNL     1       5.557   4.242  15.889  0.00  0.00    +0.000 A 
ATOM     10  F   UNL     1       6.245   3.274  15.270  0.00  0.00    +0.000 F 
ATOM     11  C   UNL     1       4.708   3.904  16.939  0.00  0.00    +0.000 A 
ATOM     12  C   UNL     1       3.984   4.904  17.602  0.00  0.00    +0.000 A 
ENDROOT
BRANCH   4  13
ATOM     13  C   UNL     1       1.861   8.183  19.435  0.00  0.00    +0.000 A 
ATOM     14  C   UNL     1       1.550   8.118  20.804  0.00  0.00    +0.000 A 
ATOM     15  C   UNL     1       0.730   9.077  21.402  0.00  0.00    +0.000 A 
ATOM     16  C   UNL     1       0.258  10.137  20.639  0.00  0.00    +0.000 A 
ATOM     17  C   UNL     1       0.614  10.267  19.301  0.00  0.00    +0.000 A 
ATOM     18  C   UNL     1       1.406   9.285  18.697  0.00  0.00    +0.000 A 
BRANCH  16  19
ATOM     19  O   UNL     1      -0.580  11.072  21.169  0.00  0.00    +0.000 OA
ATOM     20  H   UNL     1      -1.350  11.167  20.584  0.00  0.00    +0.000 HD
ENDBRANCH  16  19
BRANCH  18  21
ATOM     21  O   UNL     1       1.681   9.395  17.362  0.00  0.00    +0.000 OA
ATOM     22  H   UNL     1       0.848   9.468  16.867  0.00  0.00    +0.000 HD
ENDBRANCH  18  21
ENDBRANCH   4  13
BRANCH   1  23
ATOM     23  C   UNL     1       2.928   3.261  19.204  0.00  0.00    +0.000 C 
BRANCH  23  25
ATOM     24  O   UNL     1       0.624   2.561  18.960  0.00  0.00    +0.000 OA
ATOM     25  C   UNL     1       1.772   2.516  18.542  0.00  0.00    +0.000 C 
BRANCH  25  26
ATOM     26  O   UNL     1       2.099   1.806  17.437  0.00  0.00    +0.000 OA
ATOM     27  H   UNL     1       1.792   0.880  17.483  0.00  0.00    +0.000 HD
ENDBRANCH  25  26
ENDBRANCH  23  25
ENDBRANCH   1  23
TORSDOF 6
ENDMDL
MODEL 5
REMARK VINA RESULT:      -7.5      3.992      5.486
REMARK  Name = 
REMARK  6 active torsions:
REMARK  status: ('A' for Active; 'I' for Inactive)
REMARK    1  A    between atoms: C_2  and  O_3
REMARK    2  A    between atoms: C_2  and  C_4
REMARK    3  A    between atoms: C_4  and  N_5
REMARK    4  A    between atoms: C_8  and  C_9
REMARK    5  A    between atoms: C_12  and  O_13
REMARK    6  A    between atoms: C_15  and  O_16
REMARK                            x       y       z     vdW  Elec       q    Type
REMARK                         _______ _______ _______ _____ _____    ______ ____
ROOT
ATOM      1  N   UNL     1       4.329   5.285  17.644  0.00  0.00    +0.000 N 
ATOM      2  C   UNL     1       3.825   6.565  17.875  0.00  0.00    +0.000 A 
ATOM      3  O   UNL     1       4.374   7.575  17.453  0.00  0.00    +0.000 OA
ATOM      4  C   UNL     1       2.499   6.660  18.642  0.00  0.00    +0.000 A 
ATOM      5  N   UNL     1       1.882   5.593  19.058  0.00  0.00    +0.000 NA
ATOM      6  C   UNL     1       2.457   4.330  18.860  0.00  0.00    +0.000 A 
ATOM      7  C   UNL     1       1.776   3.222  19.379  0.00  0.00    +0.000 A 
ATOM      8  C   UNL     1       2.275   1.932  19.202  0.00  0.00    +0.000 A 
ATOM      9  C   UNL     1       3.460   1.755  18.506  0.00  0.00    +0.000 A 
ATOM     10  F   UNL     1       3.945   0.520  18.322  0.00  0.00    +0.000 F 
ATOM     11  C   UNL     1       4.160   2.841  17.987  0.00  0.00    +0.000 A 
ATOM     12  C   UNL     1       3.666   4.141  18.165  0.00  0.00    +0.000 A 
ENDROOT
BRANCH   4  13
ATOM     13  C   UNL     1       1.926   8.021  18.891  0.00  0.00    +0.000 A 
ATOM     14  C   UNL     1       1.787   8.928  17.826  0.00  0.00    +0.000 A 
ATOM     15  C   UNL     1       1.381  10.245  18.051  0.00  0.00    +0.000 A 
ATOM     16  C   UNL     1       1.064  10.646  19.342  0.00  0.00    +0.000 A 
ATOM     17  C   UNL     1       1.119   9.747  20.402  0.00  0.00    +0.000 A 
ATOM     18  C   UNL     1       1.560   8.439  20.178  0.00  0.00    +0.000 A 
BRANCH  16  19
ATOM     19  O   UNL     1       0.705  11.932  19.615  0.00  0.00    +0.000 OA
ATOM     20  H   UNL     1       1.476  12.400  19.978  0.00  0.00    +0.000 HD
ENDBRANCH  16  19
BRANCH  18  21
ATOM     21  O   UNL     1       1.677   7.596  21.249  0.00  0.00    +0.000 OA
ATOM     22  H   UNL     1       2.577   7.231  21.274  0.00  0.00    +0.000 HD
ENDBRANCH  18  21
ENDBRANCH   4  13
BRANCH   1  23
ATOM     23  C   UNL     1       5.569   5.181  16.869  0.00  0.00    +0.000 C 
BRANCH  23  25
ATOM     24  O   UNL     1       7.389   4.436  18.281  0.00  0.00    +0.000 OA
ATOM     25  C   UNL     1       6.827   5.363  17.714  0.00  0.00    +0.000 C 
BRANCH  25  26
ATOM     26  O   UNL     1       7.298   6.630  17.784  0.00  0.00    +0.000 OA
ATOM     27  H   UNL     1       7.365   6.954  18.703  0.00  0.00    +0.000 HD
ENDBRANCH  25  26
ENDBRANCH  23  25
ENDBRANCH   1  23
TORSDOF 6
ENDMDL
MODEL 6
REMARK VINA RESULT:      -7.5      3.434      5.025
REMARK  Name = 
REMARK  6 active torsions:
REMARK  status: ('A' for Active; 'I' for Inactive)
REMARK    1  A    between atoms: C_2  and  O_3
REMARK    2  A    between atoms: C_2  and  C_4
REMARK    3  A    between atoms: C_4  and  N_5
REMARK    4  A    between atoms: C_8  and  C_9
REMARK    5  A    between atoms: C_12  and  O_13
REMARK    6  A    between atoms: C_15  and  O_16
REMARK                            x       y       z     vdW  Elec       q    Type
REMARK                         _______ _______ _______ _____ _____    ______ ____
ROOT
ATOM      1  N   UNL     1       3.118   4.216  17.588  0.00  0.00    +0.000 N 
ATOM      2  C   UNL     1       2.356   5.124  18.322  0.00  0.00    +0.000 A 
ATOM      3  O   UNL     1       1.374   4.787  18.970  0.00  0.00    +0.000 OA
ATOM      4  C   UNL     1       2.838   6.581  18.338  0.00  0.00    +0.000 A 
ATOM      5  N   UNL     1       3.907   6.946  17.690  0.00  0.00    +0.000 NA
ATOM      6  C   UNL     1       4.606   6.013  16.913  0.00  0.00    +0.000 A 
ATOM      7  C   UNL     1       5.714   6.474  16.193  0.00  0.00    +0.000 A 
ATOM      8  C   UNL     1       6.473   5.600  15.414  0.00  0.00    +0.000 A 
ATOM      9  C   UNL     1       6.116   4.262  15.358  0.00  0.00    +0.000 A 
ATOM     10  F   UNL     1       6.842   3.412  14.621  0.00  0.00    +0.000 F 
ATOM     11  C   UNL     1       5.013   3.780  16.059  0.00  0.00    +0.000 A 
ATOM     12  C   UNL     1       4.244   4.654  16.839  0.00  0.00    +0.000 A 
ENDROOT
BRANCH   4  13
ATOM     13  C   UNL     1       2.049   7.576  19.131  0.00  0.00    +0.000 A 
ATOM     14  C   UNL     1       1.620   8.771  18.528  0.00  0.00    +0.000 A 
ATOM     15  C   UNL     1       0.999   9.773  19.277  0.00  0.00    +0.000 A 
ATOM     16  C   UNL     1       0.760   9.560  20.628  0.00  0.00    +0.000 A 
ATOM     17  C   UNL     1       1.106   8.356  21.233  0.00  0.00    +0.000 A 
ATOM     18  C   UNL     1       1.759   7.370  20.487  0.00  0.00    +0.000 A 
BRANCH  16  19
ATOM     19  O   UNL     1       0.198  10.526  21.407  0.00  0.00    +0.000 OA
ATOM     20  H   UNL     1       0.565  10.456  22.305  0.00  0.00    +0.000 HD
ENDBRANCH  16  19
BRANCH  18  21
ATOM     21  O   UNL     1       2.155   6.225  21.122  0.00  0.00    +0.000 OA
ATOM     22  H   UNL     1       3.027   5.956  20.787  0.00  0.00    +0.000 HD
ENDBRANCH  18  21
ENDBRANCH   4  13
BRANCH   1  23
ATOM     23  C   UNL     1       2.694   2.813  17.607  0.00  0.00    +0.000 C 
BRANCH  23  25
ATOM     24  O   UNL     1       3.531   2.329  19.827  0.00  0.00    +0.000 OA
ATOM     25  C   UNL     1       3.416   1.978  18.661  0.00  0.00    +0.000 C 
BRANCH  25  26
ATOM     26  O   UNL     1       3.914   0.798  18.222  0.00  0.00    +0.000 OA
ATOM     27  H   UNL     1       4.176   0.829  17.282  0.00  0.00    +0.000 HD
ENDBRANCH  25  26
ENDBRANCH  23  25
ENDBRANCH   1  23
TORSDOF 6
ENDMDL
MODEL 7
REMARK VINA RESULT:      -7.4      4.132      5.639
REMARK  Name = 
REMARK  6 active torsions:
REMARK  status: ('A' for Active; 'I' for Inactive)
REMARK    1  A    between atoms: C_2  and  O_3
REMARK    2  A    between atoms: C_2  and  C_4
REMARK    3  A    between atoms: C_4  and  N_5
REMARK    4  A    between atoms: C_8  and  C_9
REMARK    5  A    between atoms: C_12  and  O_13
REMARK    6  A    between atoms: C_15  and  O_16
REMARK                            x       y       z     vdW  Elec       q    Type
REMARK                         _______ _______ _______ _____ _____    ______ ____
ROOT
ATOM      1  N   UNL     1       4.328   5.319  17.786  0.00  0.00    +0.000 N 
ATOM      2  C   UNL     1       3.814   6.595  18.016  0.00  0.00    +0.000 A 
ATOM      3  O   UNL     1       4.384   7.611  17.643  0.00  0.00    +0.000 OA
ATOM      4  C   UNL     1       2.450   6.678  18.716  0.00  0.00    +0.000 A 
ATOM      5  N   UNL     1       1.811   5.604  19.078  0.00  0.00    +0.000 NA
ATOM      6  C   UNL     1       2.394   4.344  18.885  0.00  0.00    +0.000 A 
ATOM      7  C   UNL     1       1.686   3.228  19.346  0.00  0.00    +0.000 A 
ATOM      8  C   UNL     1       2.192   1.940  19.170  0.00  0.00    +0.000 A 
ATOM      9  C   UNL     1       3.411   1.774  18.533  0.00  0.00    +0.000 A 
ATOM     10  F   UNL     1       3.903   0.542  18.350  0.00  0.00    +0.000 F 
ATOM     11  C   UNL     1       4.138   2.869  18.072  0.00  0.00    +0.000 A 
ATOM     12  C   UNL     1       3.637   4.166  18.250  0.00  0.00    +0.000 A 
ENDROOT
BRANCH   4  13
ATOM     13  C   UNL     1       1.866   8.035  18.961  0.00  0.00    +0.000 A 
ATOM     14  C   UNL     1       1.694   8.928  17.889  0.00  0.00    +0.000 A 
ATOM     15  C   UNL     1       1.278  10.243  18.109  0.00  0.00    +0.000 A 
ATOM     16  C   UNL     1       0.983  10.654  19.401  0.00  0.00    +0.000 A 
ATOM     17  C   UNL     1       1.071   9.769  20.470  0.00  0.00    +0.000 A 
ATOM     18  C   UNL     1       1.523   8.464  20.251  0.00  0.00    +0.000 A 
BRANCH  16  19
ATOM     19  O   UNL     1       0.615  11.940  19.667  0.00  0.00    +0.000 OA
ATOM     20  H   UNL     1       0.220  11.974  20.554  0.00  0.00    +0.000 HD
ENDBRANCH  16  19
BRANCH  18  21
ATOM     21  O   UNL     1       1.673   7.634  21.329  0.00  0.00    +0.000 OA
ATOM     22  H   UNL     1       0.937   7.000  21.351  0.00  0.00    +0.000 HD
ENDBRANCH  18  21
ENDBRANCH   4  13
BRANCH   1  23
ATOM     23  C   UNL     1       5.605   5.228  17.075  0.00  0.00    +0.000 C 
BRANCH  23  25
ATOM     24  O   UNL     1       5.359   4.313  14.847  0.00  0.00    +0.000 OA
ATOM     25  C   UNL     1       5.460   5.304  15.558  0.00  0.00    +0.000 C 
BRANCH  25  26
ATOM     26  O   UNL     1       5.432   6.555  15.041  0.00  0.00    +0.000 OA
ATOM     27  H   UNL     1       4.686   6.689  14.426  0.00  0.00    +0.000 HD
ENDBRANCH  25  26
ENDBRANCH  23  25
ENDBRANCH   1  23
TORSDOF 6
ENDMDL
MODEL 8
REMARK VINA RESULT:      -7.2      4.139      5.796
REMARK  Name = 
REMARK  6 active torsions:
REMARK  status: ('A' for Active; 'I' for Inactive)
REMARK    1  A    between atoms: C_2  and  O_3
REMARK    2  A    between atoms: C_2  and  C_4
REMARK    3  A    between atoms: C_4  and  N_5
REMARK    4  A    between atoms: C_8  and  C_9
REMARK    5  A    between atoms: C_12  and  O_13
REMARK    6  A    between atoms: C_15  and  O_16
REMARK                            x       y       z     vdW  Elec       q    Type
REMARK                         _______ _______ _______ _____ _____    ______ ____
ROOT
ATOM      1  N   UNL     1       4.436   5.376  18.213  0.00  0.00    +0.000 N 
ATOM      2  C   UNL     1       3.778   6.605  18.191  0.00  0.00    +0.000 A 
ATOM      3  O   UNL     1       4.076   7.498  17.409  0.00  0.00    +0.000 OA
ATOM      4  C   UNL     1       2.602   6.780  19.162  0.00  0.00    +0.000 A 
ATOM      5  N   UNL     1       2.245   5.823  19.969  0.00  0.00    +0.000 NA
ATOM      6  C   UNL     1       2.976   4.628  20.002  0.00  0.00    +0.000 A 
ATOM      7  C   UNL     1       2.581   3.656  20.930  0.00  0.00    +0.000 A 
ATOM      8  C   UNL     1       3.245   2.432  21.007  0.00  0.00    +0.000 A 
ATOM      9  C   UNL     1       4.309   2.186  20.153  0.00  0.00    +0.000 A 
ATOM     10  F   UNL     1       4.949   1.011  20.212  0.00  0.00    +0.000 F 
ATOM     11  C   UNL     1       4.725   3.139  19.227  0.00  0.00    +0.000 A 
ATOM     12  C   UNL     1       4.065   4.372  19.148  0.00  0.00    +0.000 A 
ENDROOT
BRANCH   4  13
ATOM     13  C   UNL     1       1.866   8.084  19.150  0.00  0.00    +0.000 A 
ATOM     14  C   UNL     1       1.638   8.748  17.932  0.00  0.00    +0.000 A 
ATOM     15  C   UNL     1       1.074  10.025  17.904  0.00  0.00    +0.000 A 
ATOM     16  C   UNL     1       0.689  10.623  19.096  0.00  0.00    +0.000 A 
ATOM     17  C   UNL     1       0.833   9.957  20.308  0.00  0.00    +0.000 A 
ATOM     18  C   UNL     1       1.431   8.693  20.336  0.00  0.00    +0.000 A 
BRANCH  16  19
ATOM     19  O   UNL     1       0.175  11.885  19.120  0.00  0.00    +0.000 OA
ATOM     20  H   UNL     1       0.642  12.399  19.801  0.00  0.00    +0.000 HD
ENDBRANCH  16  19
BRANCH  18  21
ATOM     21  O   UNL     1       1.630   8.089  21.547  0.00  0.00    +0.000 OA
ATOM     22  H   UNL     1       1.104   7.274  21.591  0.00  0.00    +0.000 HD
ENDBRANCH  18  21
ENDBRANCH   4  13
BRANCH   1  23
ATOM     23  C   UNL     1       5.528   5.182  17.254  0.00  0.00    +0.000 C 
BRANCH  23  25
ATOM     24  O   UNL     1       7.303   6.514  18.220  0.00  0.00    +0.000 OA
ATOM     25  C   UNL     1       6.910   5.414  17.857  0.00  0.00    +0.000 C 
BRANCH  25  26
ATOM     26  O   UNL     1       7.680   4.308  17.981  0.00  0.00    +0.000 OA
ATOM     27  H   UNL     1       8.477   4.341  17.418  0.00  0.00    +0.000 HD
ENDBRANCH  25  26
ENDBRANCH  23  25
ENDBRANCH   1  23
TORSDOF 6
ENDMDL
MODEL 9
REMARK VINA RESULT:      -7.2      3.820      5.401
REMARK  Name = 
REMARK  6 active torsions:
REMARK  status: ('A' for Active; 'I' for Inactive)
REMARK    1  A    between atoms: C_2  and  O_3
REMARK    2  A    between atoms: C_2  and  C_4
REMARK    3  A    between atoms: C_4  and  N_5
REMARK    4  A    between atoms: C_8  and  C_9
REMARK    5  A    between atoms: C_12  and  O_13
REMARK    6  A    between atoms: C_15  and  O_16
REMARK                            x       y       z     vdW  Elec       q    Type
REMARK                         _______ _______ _______ _____ _____    ______ ____
ROOT
ATOM      1  N   UNL     1       3.555   4.747  18.363  0.00  0.00    +0.000 N 
ATOM      2  C   UNL     1       2.551   5.651  18.708  0.00  0.00    +0.000 A 
ATOM      3  O   UNL     1       1.481   5.296  19.186  0.00  0.00    +0.000 OA
ATOM      4  C   UNL     1       2.863   7.142  18.519  0.00  0.00    +0.000 A 
ATOM      5  N   UNL     1       4.013   7.536  18.053  0.00  0.00    +0.000 NA
ATOM      6  C   UNL     1       4.970   6.591  17.659  0.00  0.00    +0.000 A 
ATOM      7  C   UNL     1       6.165   7.072  17.112  0.00  0.00    +0.000 A 
ATOM      8  C   UNL     1       7.173   6.193  16.717  0.00  0.00    +0.000 A 
ATOM      9  C   UNL     1       6.979   4.830  16.869  0.00  0.00    +0.000 A 
ATOM     10  F   UNL     1       7.943   3.976  16.502  0.00  0.00    +0.000 F 
ATOM     11  C   UNL     1       5.796   4.326  17.404  0.00  0.00    +0.000 A 
ATOM     12  C   UNL     1       4.777   5.204  17.798  0.00  0.00    +0.000 A 
ENDROOT
BRANCH   4  13
ATOM     13  C   UNL     1       1.809   8.136  18.896  0.00  0.00    +0.000 A 
ATOM     14  C   UNL     1       1.222   8.944  17.906  0.00  0.00    +0.000 A 
ATOM     15  C   UNL     1       0.336   9.968  18.246  0.00  0.00    +0.000 A 
ATOM     16  C   UNL     1      -0.005  10.156  19.578  0.00  0.00    +0.000 A 
ATOM     17  C   UNL     1       0.502   9.322  20.569  0.00  0.00    +0.000 A 
ATOM     18  C   UNL     1       1.417   8.320  20.229  0.00  0.00    +0.000 A 
BRANCH  16  19
ATOM     19  O   UNL     1      -0.831  11.171  19.961  0.00  0.00    +0.000 OA
ATOM     20  H   UNL     1      -0.472  11.578  20.767  0.00  0.00    +0.000 HD
ENDBRANCH  16  19
BRANCH  18  21
ATOM     21  O   UNL     1       1.959   7.562  21.230  0.00  0.00    +0.000 OA
ATOM     22  H   UNL     1       2.709   8.037  21.624  0.00  0.00    +0.000 HD
ENDBRANCH  18  21
ENDBRANCH   4  13
BRANCH   1  23
ATOM     23  C   UNL     1       3.285   3.325  18.587  0.00  0.00    +0.000 C 
BRANCH  23  25
ATOM     24  O   UNL     1       4.805   2.301  20.169  0.00  0.00    +0.000 OA
ATOM     25  C   UNL     1       3.724   2.835  19.964  0.00  0.00    +0.000 C 
BRANCH  25  26
ATOM     26  O   UNL     1       2.835   3.046  20.964  0.00  0.00    +0.000 OA
ATOM     27  H   UNL     1       2.384   3.909  20.887  0.00  0.00    +0.000 HD
ENDBRANCH  25  26
ENDBRANCH  23  25
ENDBRANCH   1  23
TORSDOF 6
ENDMDL
