MODEL 1
REMARK VINA RESULT:      -6.6      0.000      0.000
REMARK  Name = 
REMARK  11 active torsions:
REMARK  status: ('A' for Active; 'I' for Inactive)
REMARK    1  A    between atoms: C_1  and  O_2
REMARK    2  A    between atoms: O_2  and  C_3
REMARK    3  A    between atoms: C_6  and  N_7
REMARK    4  A    between atoms: N_10  and  C_11
REMARK    5  A    between atoms: C_12  and  C_13
REMARK    6  A    between atoms: C_14  and  C_15
REMARK    7  A    between atoms: C_18  and  C_19
REMARK    8  A    between atoms: C_21  and  C_22
REMARK    9  A    between atoms: C_21  and  C_23
REMARK   10  A    between atoms: C_28  and  O_29
REMARK   11  A    between atoms: O_29  and  C_30
REMARK                            x       y       z     vdW  Elec       q    Type
REMARK                         _______ _______ _______ _____ _____    ______ ____
ROOT
ATOM      1  N   UNL     1       1.125   9.348  19.407  0.00  0.00    +0.000 N 
ATOM      2  C   UNL     1       0.549   9.531  20.754  0.00  0.00    +0.000 C 
ATOM      3  C   UNL     1       1.018  10.856  21.414  0.00  0.00    +0.000 C 
ATOM      4  N   UNL     1       0.948  12.050  20.510  0.00  0.00    +0.000 N 
ATOM      5  C   UNL     1       1.552  11.766  19.196  0.00  0.00    +0.000 C 
ATOM      6  C   UNL     1       0.935  10.513  18.537  0.00  0.00    +0.000 C 
ENDROOT
BRANCH   4   7
ATOM      7  C   UNL     1       0.022  13.055  20.771  0.00  0.00    +0.000 A 
ATOM      8  C   UNL     1       0.419  14.234  21.517  0.00  0.00    +0.000 A 
ATOM      9  C   UNL     1       1.876  14.672  21.509  0.00  0.00    +0.000 C 
ATOM     10  C   UNL     1      -0.528  15.024  22.226  0.00  0.00    +0.000 A 
ATOM     11  C   UNL     1      -0.156  16.229  23.043  0.00  0.00    +0.000 C 
ATOM     12  C   UNL     1      -1.850  14.708  22.010  0.00  0.00    +0.000 A 
ATOM     13  C   UNL     1      -2.213  13.928  20.922  0.00  0.00    +0.000 A 
ATOM     14  C   UNL     1      -1.348  12.980  20.400  0.00  0.00    +0.000 A 
ATOM     15  C   UNL     1      -2.024  11.828  19.706  0.00  0.00    +0.000 C 
ATOM     16  C   UNL     1      -3.695  13.960  20.887  0.00  0.00    +0.000 C 
ATOM     17  C   UNL     1      -3.836  13.763  22.387  0.00  0.00    +0.000 C 
ATOM     18  C   UNL     1      -3.354  12.373  22.925  0.00  0.00    +0.000 C 
ATOM     19  C   UNL     1      -5.329  13.847  22.689  0.00  0.00    +0.000 C 
ATOM     20  O   UNL     1      -2.944  14.836  22.892  0.00  0.00    +0.000 OA
ENDBRANCH   4   7
BRANCH   1  24
ATOM     21  C   UNL     1       3.669   6.126  18.402  0.00  0.00    +0.000 A 
ATOM     22  C   UNL     1       3.535   7.227  17.555  0.00  0.00    +0.000 A 
ATOM     23  C   UNL     1       2.702   8.292  17.894  0.00  0.00    +0.000 A 
ATOM     24  C   UNL     1       1.934   8.290  19.062  0.00  0.00    +0.000 A 
ATOM     25  C   UNL     1       2.016   7.134  19.847  0.00  0.00    +0.000 A 
ATOM     26  C   UNL     1       2.867   6.058  19.544  0.00  0.00    +0.000 A 
BRANCH  21  28
ATOM     27  C   UNL     1       4.067   4.157  17.167  0.00  0.00    +0.000 C 
ATOM     28  O   UNL     1       4.549   5.108  18.109  0.00  0.00    +0.000 OA
ENDBRANCH  21  28
BRANCH  26  29
ATOM     29  O   UNL     1       2.780   5.059  20.478  0.00  0.00    +0.000 OA
ATOM     30  C   UNL     1       1.636   4.222  20.481  0.00  0.00    +0.000 C 
ENDBRANCH  26  29
ENDBRANCH   1  24
TORSDOF 4
ENDMDL
MODEL 2
REMARK VINA RESULT:      -6.5      1.239      1.389
REMARK  Name = 
REMARK  11 active torsions:
REMARK  status: ('A' for Active; 'I' for Inactive)
REMARK    1  A    between atoms: C_1  and  O_2
REMARK    2  A    between atoms: O_2  and  C_3
REMARK    3  A    between atoms: C_6  and  N_7
REMARK    4  A    between atoms: N_10  and  C_11
REMARK    5  A    between atoms: C_12  and  C_13
REMARK    6  A    between atoms: C_14  and  C_15
REMARK    7  A    between atoms: C_18  and  C_19
REMARK    8  A    between atoms: C_21  and  C_22
REMARK    9  A    between atoms: C_21  and  C_23
REMARK   10  A    between atoms: C_28  and  O_29
REMARK   11  A    between atoms: O_29  and  C_30
REMARK                            x       y       z     vdW  Elec       q    Type
REMARK                         _______ _______ _______ _____ _____    ______ ____
ROOT
ATOM      1  N   UNL     1       1.671   8.483  18.912  0.00  0.00    +0.000 N 
ATOM      2  C   UNL     1       1.172   8.885  20.243  0.00  0.00    +0.000 C 
ATOM      3  C   UNL     1       1.547  10.351  20.589  0.00  0.00    +0.000 C 
ATOM      4  N   UNL     1       1.296  11.327  19.479  0.00  0.00    +0.000 N 
ATOM      5  C   UNL     1       1.837  10.836  18.198  0.00  0.00    +0.000 C 
ATOM      6  C   UNL     1       1.307   9.428  17.851  0.00  0.00    +0.000 C 
ENDROOT
BRANCH   4   7
ATOM      7  C   UNL     1       0.293  12.281  19.618  0.00  0.00    +0.000 A 
ATOM      8  C   UNL     1       0.637  13.665  19.877  0.00  0.00    +0.000 A 
ATOM      9  C   UNL     1       1.991  14.199  19.433  0.00  0.00    +0.000 C 
ATOM     10  C   UNL     1      -0.278  14.559  20.501  0.00  0.00    +0.000 A 
ATOM     11  C   UNL     1       0.050  15.988  20.826  0.00  0.00    +0.000 C 
ATOM     12  C   UNL     1      -1.557  14.079  20.673  0.00  0.00    +0.000 A 
ATOM     13  C   UNL     1      -1.986  12.964  19.968  0.00  0.00    +0.000 A 
ATOM     14  C   UNL     1      -1.095  11.975  19.582  0.00  0.00    +0.000 A 
ATOM     15  C   UNL     1      -1.705  10.609  19.422  0.00  0.00    +0.000 C 
ATOM     16  C   UNL     1      -3.440  12.859  20.238  0.00  0.00    +0.000 C 
ATOM     17  C   UNL     1      -3.288  13.142  21.723  0.00  0.00    +0.000 C 
ATOM     18  C   UNL     1      -2.522  12.043  22.536  0.00  0.00    +0.000 C 
ATOM     19  C   UNL     1      -4.702  13.192  22.294  0.00  0.00    +0.000 C 
ATOM     20  O   UNL     1      -2.488  14.391  21.687  0.00  0.00    +0.000 OA
ENDBRANCH   4   7
BRANCH   1  24
ATOM     21  C   UNL     1       4.442   5.340  18.362  0.00  0.00    +0.000 A 
ATOM     22  C   UNL     1       4.444   6.455  17.523  0.00  0.00    +0.000 A 
ATOM     23  C   UNL     1       3.535   7.494  17.713  0.00  0.00    +0.000 A 
ATOM     24  C   UNL     1       2.558   7.451  18.712  0.00  0.00    +0.000 A 
ATOM     25  C   UNL     1       2.518   6.281  19.480  0.00  0.00    +0.000 A 
ATOM     26  C   UNL     1       3.440   5.231  19.328  0.00  0.00    +0.000 A 
BRANCH  21  28
ATOM     27  C   UNL     1       6.516   4.703  17.436  0.00  0.00    +0.000 C 
ATOM     28  O   UNL     1       5.388   4.348  18.227  0.00  0.00    +0.000 OA
ENDBRANCH  21  28
BRANCH  26  29
ATOM     29  O   UNL     1       3.201   4.210  20.213  0.00  0.00    +0.000 OA
ATOM     30  C   UNL     1       2.162   4.359  21.165  0.00  0.00    +0.000 C 
ENDBRANCH  26  29
ENDBRANCH   1  24
TORSDOF 4
ENDMDL
MODEL 3
REMARK VINA RESULT:      -6.5      1.175      1.693
REMARK  Name = 
REMARK  11 active torsions:
REMARK  status: ('A' for Active; 'I' for Inactive)
REMARK    1  A    between atoms: C_1  and  O_2
REMARK    2  A    between atoms: O_2  and  C_3
REMARK    3  A    between atoms: C_6  and  N_7
REMARK    4  A    between atoms: N_10  and  C_11
REMARK    5  A    between atoms: C_12  and  C_13
REMARK    6  A    between atoms: C_14  and  C_15
REMARK    7  A    between atoms: C_18  and  C_19
REMARK    8  A    between atoms: C_21  and  C_22
REMARK    9  A    between atoms: C_21  and  C_23
REMARK   10  A    between atoms: C_28  and  O_29
REMARK   11  A    between atoms: O_29  and  C_30
REMARK                            x       y       z     vdW  Elec       q    Type
REMARK                         _______ _______ _______ _____ _____    ______ ____
ROOT
ATOM      1  N   UNL     1       1.778   8.677  19.488  0.00  0.00    +0.000 N 
ATOM      2  C   UNL     1       1.526   9.679  18.433  0.00  0.00    +0.000 C 
ATOM      3  C   UNL     1       0.042  10.135  18.403  0.00  0.00    +0.000 C 
ATOM      4  N   UNL     1      -0.528  10.455  19.753  0.00  0.00    +0.000 N 
ATOM      5  C   UNL     1      -0.227   9.393  20.729  0.00  0.00    +0.000 C 
ATOM      6  C   UNL     1       1.286   9.093  20.806  0.00  0.00    +0.000 C 
ENDROOT
BRANCH   4   7
ATOM      7  C   UNL     1      -0.851  11.771  20.067  0.00  0.00    +0.000 A 
ATOM      8  C   UNL     1       0.144  12.642  20.662  0.00  0.00    +0.000 A 
ATOM      9  C   UNL     1       1.621  12.371  20.420  0.00  0.00    +0.000 C 
ATOM     10  C   UNL     1      -0.224  13.777  21.437  0.00  0.00    +0.000 A 
ATOM     11  C   UNL     1       0.772  14.683  22.105  0.00  0.00    +0.000 C 
ATOM     12  C   UNL     1      -1.563  14.096  21.431  0.00  0.00    +0.000 A 
ATOM     13  C   UNL     1      -2.403  13.564  20.463  0.00  0.00    +0.000 A 
ATOM     14  C   UNL     1      -2.149  12.326  19.896  0.00  0.00    +0.000 A 
ATOM     15  C   UNL     1      -3.368  11.606  19.389  0.00  0.00    +0.000 C 
ATOM     16  C   UNL     1      -3.698  14.266  20.633  0.00  0.00    +0.000 C 
ATOM     17  C   UNL     1      -3.675  14.156  22.149  0.00  0.00    +0.000 C 
ATOM     18  C   UNL     1      -3.790  12.699  22.713  0.00  0.00    +0.000 C 
ATOM     19  C   UNL     1      -4.904  14.909  22.649  0.00  0.00    +0.000 C 
ATOM     20  O   UNL     1      -2.330  14.707  22.446  0.00  0.00    +0.000 OA
ENDBRANCH   4   7
BRANCH   1  24
ATOM     21  C   UNL     1       3.248   4.783  18.757  0.00  0.00    +0.000 A 
ATOM     22  C   UNL     1       3.329   5.776  17.781  0.00  0.00    +0.000 A 
ATOM     23  C   UNL     1       2.851   7.062  18.029  0.00  0.00    +0.000 A 
ATOM     24  C   UNL     1       2.234   7.404  19.235  0.00  0.00    +0.000 A 
ATOM     25  C   UNL     1       2.082   6.366  20.162  0.00  0.00    +0.000 A 
ATOM     26  C   UNL     1       2.578   5.068  19.949  0.00  0.00    +0.000 A 
BRANCH  21  28
ATOM     27  C   UNL     1       2.956   2.641  17.812  0.00  0.00    +0.000 C 
ATOM     28  O   UNL     1       3.787   3.534  18.546  0.00  0.00    +0.000 OA
ENDBRANCH  21  28
BRANCH  26  29
ATOM     29  O   UNL     1       2.321   4.242  21.014  0.00  0.00    +0.000 OA
ATOM     30  C   UNL     1       1.211   3.364  20.946  0.00  0.00    +0.000 C 
ENDBRANCH  26  29
ENDBRANCH   1  24
TORSDOF 4
ENDMDL
MODEL 4
REMARK VINA RESULT:      -6.4      1.675      3.494
REMARK  Name = 
REMARK  11 active torsions:
REMARK  status: ('A' for Active; 'I' for Inactive)
REMARK    1  A    between atoms: C_1  and  O_2
REMARK    2  A    between atoms: O_2  and  C_3
REMARK    3  A    between atoms: C_6  and  N_7
REMARK    4  A    between atoms: N_10  and  C_11
REMARK    5  A    between atoms: C_12  and  C_13
REMARK    6  A    between atoms: C_14  and  C_15
REMARK    7  A    between atoms: C_18  and  C_19
REMARK    8  A    between atoms: C_21  and  C_22
REMARK    9  A    between atoms: C_21  and  C_23
REMARK   10  A    between atoms: C_28  and  O_29
REMARK   11  A    between atoms: O_29  and  C_30
REMARK                            x       y       z     vdW  Elec       q    Type
REMARK                         _______ _______ _______ _____ _____    ______ ____
ROOT
ATOM      1  N   UNL     1       1.558   8.705  20.405  0.00  0.00    +0.000 N 
ATOM      2  C   UNL     1       0.878   9.628  19.475  0.00  0.00    +0.000 C 
ATOM      3  C   UNL     1      -0.434  10.200  20.075  0.00  0.00    +0.000 C 
ATOM      4  N   UNL     1      -0.302  10.682  21.489  0.00  0.00    +0.000 N 
ATOM      5  C   UNL     1       0.383   9.689  22.335  0.00  0.00    +0.000 C 
ATOM      6  C   UNL     1       1.748   9.273  21.744  0.00  0.00    +0.000 C 
ENDROOT
BRANCH   4   7
ATOM      7  C   UNL     1      -0.400  12.043  21.762  0.00  0.00    +0.000 A 
ATOM      8  C   UNL     1      -1.586  12.572  22.408  0.00  0.00    +0.000 A 
ATOM      9  C   UNL     1      -2.425  11.665  23.295  0.00  0.00    +0.000 C 
ATOM     10  C   UNL     1      -1.966  13.936  22.272  0.00  0.00    +0.000 A 
ATOM     11  C   UNL     1      -3.206  14.517  22.890  0.00  0.00    +0.000 C 
ATOM     12  C   UNL     1      -1.049  14.752  21.647  0.00  0.00    +0.000 A 
ATOM     13  C   UNL     1       0.267  14.338  21.498  0.00  0.00    +0.000 A 
ATOM     14  C   UNL     1       0.586  12.995  21.385  0.00  0.00    +0.000 A 
ATOM     15  C   UNL     1       1.855  12.714  20.625  0.00  0.00    +0.000 C 
ATOM     16  C   UNL     1       0.998  15.520  20.981  0.00  0.00    +0.000 C 
ATOM     17  C   UNL     1      -0.087  15.880  19.980  0.00  0.00    +0.000 C 
ATOM     18  C   UNL     1      -0.297  14.846  18.823  0.00  0.00    +0.000 C 
ATOM     19  C   UNL     1       0.359  17.181  19.319  0.00  0.00    +0.000 C 
ATOM     20  O   UNL     1      -1.281  15.901  20.861  0.00  0.00    +0.000 OA
ENDBRANCH   4   7
BRANCH   1  24
ATOM     21  C   UNL     1       2.249   4.640  19.476  0.00  0.00    +0.000 A 
ATOM     22  C   UNL     1       1.589   5.007  20.649  0.00  0.00    +0.000 A 
ATOM     23  C   UNL     1       1.354   6.348  20.948  0.00  0.00    +0.000 A 
ATOM     24  C   UNL     1       1.804   7.382  20.121  0.00  0.00    +0.000 A 
ATOM     25  C   UNL     1       2.544   6.991  18.999  0.00  0.00    +0.000 A 
ATOM     26  C   UNL     1       2.771   5.646  18.659  0.00  0.00    +0.000 A 
BRANCH  21  28
ATOM     27  C   UNL     1       1.241   2.675  18.648  0.00  0.00    +0.000 C 
ATOM     28  O   UNL     1       2.414   3.316  19.139  0.00  0.00    +0.000 OA
ENDBRANCH  21  28
BRANCH  26  29
ATOM     29  O   UNL     1       3.502   5.527  17.505  0.00  0.00    +0.000 OA
ATOM     30  C   UNL     1       4.430   6.546  17.175  0.00  0.00    +0.000 C 
ENDBRANCH  26  29
ENDBRANCH   1  24
TORSDOF 4
ENDMDL
MODEL 5
REMARK VINA RESULT:      -6.3      1.058      1.874
REMARK  Name = 
REMARK  11 active torsions:
REMARK  status: ('A' for Active; 'I' for Inactive)
REMARK    1  A    between atoms: C_1  and  O_2
REMARK    2  A    between atoms: O_2  and  C_3
REMARK    3  A    between atoms: C_6  and  N_7
REMARK    4  A    between atoms: N_10  and  C_11
REMARK    5  A    between atoms: C_12  and  C_13
REMARK    6  A    between atoms: C_14  and  C_15
REMARK    7  A    between atoms: C_18  and  C_19
REMARK    8  A    between atoms: C_21  and  C_22
REMARK    9  A    between atoms: C_21  and  C_23
REMARK   10  A    between atoms: C_28  and  O_29
REMARK   11  A    between atoms: O_29  and  C_30
REMARK                            x       y       z     vdW  Elec       q    Type
REMARK                         _______ _______ _______ _____ _____    ______ ____
ROOT
ATOM      1  N   UNL     1       1.363   8.701  19.324  0.00  0.00    +0.000 N 
ATOM      2  C   UNL     1       0.879   9.124  20.653  0.00  0.00    +0.000 C 
ATOM      3  C   UNL     1       1.340  10.562  21.012  0.00  0.00    +0.000 C 
ATOM      4  N   UNL     1       1.157  11.558  19.906  0.00  0.00    +0.000 N 
ATOM      5  C   UNL     1       1.677  11.043  18.626  0.00  0.00    +0.000 C 
ATOM      6  C   UNL     1       1.065   9.672  18.266  0.00  0.00    +0.000 C 
ENDROOT
BRANCH   4   7
ATOM      7  C   UNL     1       0.213  12.571  20.044  0.00  0.00    +0.000 A 
ATOM      8  C   UNL     1       0.625  13.899  20.456  0.00  0.00    +0.000 A 
ATOM      9  C   UNL     1       2.047  14.364  20.178  0.00  0.00    +0.000 C 
ATOM     10  C   UNL     1      -0.280  14.804  21.077  0.00  0.00    +0.000 A 
ATOM     11  C   UNL     1       0.114  16.172  21.555  0.00  0.00    +0.000 C 
ATOM     12  C   UNL     1      -1.599  14.411  21.094  0.00  0.00    +0.000 A 
ATOM     13  C   UNL     1      -2.036  13.394  20.258  0.00  0.00    +0.000 A 
ATOM     14  C   UNL     1      -1.183  12.376  19.862  0.00  0.00    +0.000 A 
ATOM     15  C   UNL     1      -1.868  11.079  19.528  0.00  0.00    +0.000 C 
ATOM     16  C   UNL     1      -3.513  13.377  20.391  0.00  0.00    +0.000 C 
ATOM     17  C   UNL     1      -3.479  13.523  21.904  0.00  0.00    +0.000 C 
ATOM     18  C   UNL     1      -2.868  12.305  22.677  0.00  0.00    +0.000 C 
ATOM     19  C   UNL     1      -4.933  13.632  22.353  0.00  0.00    +0.000 C 
ATOM     20  O   UNL     1      -2.596  14.706  22.048  0.00  0.00    +0.000 OA
ENDBRANCH   4   7
BRANCH   1  24
ATOM     21  C   UNL     1       3.839   5.343  18.652  0.00  0.00    +0.000 A 
ATOM     22  C   UNL     1       3.029   5.423  19.784  0.00  0.00    +0.000 A 
ATOM     23  C   UNL     1       2.207   6.527  19.998  0.00  0.00    +0.000 A 
ATOM     24  C   UNL     1       2.187   7.618  19.124  0.00  0.00    +0.000 A 
ATOM     25  C   UNL     1       3.077   7.554  18.045  0.00  0.00    +0.000 A 
ATOM     26  C   UNL     1       3.897   6.441  17.790  0.00  0.00    +0.000 A 
BRANCH  21  28
ATOM     27  C   UNL     1       3.961   3.252  17.567  0.00  0.00    +0.000 C 
ATOM     28  O   UNL     1       4.595   4.220  18.396  0.00  0.00    +0.000 OA
ENDBRANCH  21  28
BRANCH  26  29
ATOM     29  O   UNL     1       4.659   6.615  16.664  0.00  0.00    +0.000 OA
ATOM     30  C   UNL     1       6.040   6.897  16.809  0.00  0.00    +0.000 C 
ENDBRANCH  26  29
ENDBRANCH   1  24
TORSDOF 4
ENDMDL
MODEL 6
REMARK VINA RESULT:      -6.3      1.257      2.298
REMARK  Name = 
REMARK  11 active torsions:
REMARK  status: ('A' for Active; 'I' for Inactive)
REMARK    1  A    between atoms: C_1  and  O_2
REMARK    2  A    between atoms: O_2  and  C_3
REMARK    3  A    between atoms: C_6  and  N_7
REMARK    4  A    between atoms: N_10  and  C_11
REMARK    5  A    between atoms: C_12  and  C_13
REMARK    6  A    between atoms: C_14  and  C_15
REMARK    7  A    between atoms: C_18  and  C_19
REMARK    8  A    between atoms: C_21  and  C_22
REMARK    9  A    between atoms: C_21  and  C_23
REMARK   10  A    between atoms: C_28  and  O_29
REMARK   11  A    between atoms: O_29  and  C_30
REMARK                            x       y       z     vdW  Elec       q    Type
REMARK                         _______ _______ _______ _____ _____    ______ ____
ROOT
ATOM      1  N   UNL     1       1.661   8.605  19.744  0.00  0.00    +0.000 N 
ATOM      2  C   UNL     1       1.493   9.594  18.660  0.00  0.00    +0.000 C 
ATOM      3  C   UNL     1       0.030  10.102  18.555  0.00  0.00    +0.000 C 
ATOM      4  N   UNL     1      -0.588  10.467  19.871  0.00  0.00    +0.000 N 
ATOM      5  C   UNL     1      -0.370   9.415  20.879  0.00  0.00    +0.000 C 
ATOM      6  C   UNL     1       1.126   9.063  21.030  0.00  0.00    +0.000 C 
ENDROOT
BRANCH   4   7
ATOM      7  C   UNL     1      -0.878  11.800  20.146  0.00  0.00    +0.000 A 
ATOM      8  C   UNL     1       0.137  12.660  20.724  0.00  0.00    +0.000 A 
ATOM      9  C   UNL     1       1.608  12.343  20.500  0.00  0.00    +0.000 C 
ATOM     10  C   UNL     1      -0.205  13.826  21.465  0.00  0.00    +0.000 A 
ATOM     11  C   UNL     1       0.811  14.722  22.115  0.00  0.00    +0.000 C 
ATOM     12  C   UNL     1      -1.535  14.180  21.440  0.00  0.00    +0.000 A 
ATOM     13  C   UNL     1      -2.383  13.645  20.482  0.00  0.00    +0.000 A 
ATOM     14  C   UNL     1      -2.159  12.385  19.951  0.00  0.00    +0.000 A 
ATOM     15  C   UNL     1      -3.395  11.684  19.456  0.00  0.00    +0.000 C 
ATOM     16  C   UNL     1      -3.660  14.385  20.623  0.00  0.00    +0.000 C 
ATOM     17  C   UNL     1      -3.649  14.317  22.142  0.00  0.00    +0.000 C 
ATOM     18  C   UNL     1      -3.806  12.880  22.746  0.00  0.00    +0.000 C 
ATOM     19  C   UNL     1      -4.860  15.116  22.612  0.00  0.00    +0.000 C 
ATOM     20  O   UNL     1      -2.291  14.840  22.433  0.00  0.00    +0.000 OA
ENDBRANCH   4   7
BRANCH   1  24
ATOM     21  C   UNL     1       2.891   4.621  19.048  0.00  0.00    +0.000 A 
ATOM     22  C   UNL     1       2.183   4.964  20.200  0.00  0.00    +0.000 A 
ATOM     23  C   UNL     1       1.772   6.277  20.422  0.00  0.00    +0.000 A 
ATOM     24  C   UNL     1       2.082   7.312  19.535  0.00  0.00    +0.000 A 
ATOM     25  C   UNL     1       2.871   6.959  18.434  0.00  0.00    +0.000 A 
ATOM     26  C   UNL     1       3.277   5.639  18.172  0.00  0.00    +0.000 A 
BRANCH  21  28
ATOM     27  C   UNL     1       2.358   2.637  17.889  0.00  0.00    +0.000 C 
ATOM     28  O   UNL     1       3.232   3.313  18.786  0.00  0.00    +0.000 OA
ENDBRANCH  21  28
BRANCH  26  29
ATOM     29  O   UNL     1       4.021   5.552  17.023  0.00  0.00    +0.000 OA
ATOM     30  C   UNL     1       4.917   6.604  16.708  0.00  0.00    +0.000 C 
ENDBRANCH  26  29
ENDBRANCH   1  24
TORSDOF 4
ENDMDL
MODEL 7
REMARK VINA RESULT:      -6.3      1.673      1.971
REMARK  Name = 
REMARK  11 active torsions:
REMARK  status: ('A' for Active; 'I' for Inactive)
REMARK    1  A    between atoms: C_1  and  O_2
REMARK    2  A    between atoms: O_2  and  C_3
REMARK    3  A    between atoms: C_6  and  N_7
REMARK    4  A    between atoms: N_10  and  C_11
REMARK    5  A    between atoms: C_12  and  C_13
REMARK    6  A    between atoms: C_14  and  C_15
REMARK    7  A    between atoms: C_18  and  C_19
REMARK    8  A    between atoms: C_21  and  C_22
REMARK    9  A    between atoms: C_21  and  C_23
REMARK   10  A    between atoms: C_28  and  O_29
REMARK   11  A    between atoms: O_29  and  C_30
REMARK                            x       y       z     vdW  Elec       q    Type
REMARK                         _______ _______ _______ _____ _____    ______ ____
ROOT
ATOM      1  N   UNL     1       0.507  10.042  20.007  0.00  0.00    +0.000 N 
ATOM      2  C   UNL     1       0.962  10.979  21.054  0.00  0.00    +0.000 C 
ATOM      3  C   UNL     1       1.081  12.433  20.523  0.00  0.00    +0.000 C 
ATOM      4  N   UNL     1      -0.093  12.888  19.710  0.00  0.00    +0.000 N 
ATOM      5  C   UNL     1      -0.463  11.887  18.693  0.00  0.00    +0.000 C 
ATOM      6  C   UNL     1      -0.705  10.495  19.316  0.00  0.00    +0.000 C 
ENDROOT
BRANCH   4   7
ATOM      7  C   UNL     1      -0.934  13.876  20.211  0.00  0.00    +0.000 A 
ATOM      8  C   UNL     1      -0.727  15.263  19.842  0.00  0.00    +0.000 A 
ATOM      9  C   UNL     1      -0.038  15.596  18.527  0.00  0.00    +0.000 C 
ATOM     10  C   UNL     1      -1.192  16.331  20.659  0.00  0.00    +0.000 A 
ATOM     11  C   UNL     1      -0.965  17.781  20.336  0.00  0.00    +0.000 C 
ATOM     12  C   UNL     1      -2.000  15.969  21.713  0.00  0.00    +0.000 A 
ATOM     13  C   UNL     1      -2.588  14.713  21.742  0.00  0.00    +0.000 A 
ATOM     14  C   UNL     1      -1.981  13.624  21.139  0.00  0.00    +0.000 A 
ATOM     15  C   UNL     1      -2.335  12.292  21.745  0.00  0.00    +0.000 C 
ATOM     16  C   UNL     1      -3.530  14.742  22.887  0.00  0.00    +0.000 C 
ATOM     17  C   UNL     1      -2.545  15.439  23.811  0.00  0.00    +0.000 C 
ATOM     18  C   UNL     1      -1.280  14.598  24.193  0.00  0.00    +0.000 C 
ATOM     19  C   UNL     1      -3.296  15.704  25.112  0.00  0.00    +0.000 C 
ATOM     20  O   UNL     1      -2.146  16.595  22.969  0.00  0.00    +0.000 OA
ENDBRANCH   4   7
BRANCH   1  24
ATOM     21  C   UNL     1       2.842   6.757  18.735  0.00  0.00    +0.000 A 
ATOM     22  C   UNL     1       2.671   7.876  17.920  0.00  0.00    +0.000 A 
ATOM     23  C   UNL     1       1.908   8.961  18.346  0.00  0.00    +0.000 A 
ATOM     24  C   UNL     1       1.246   8.964  19.577  0.00  0.00    +0.000 A 
ATOM     25  C   UNL     1       1.357   7.793  20.335  0.00  0.00    +0.000 A 
ATOM     26  C   UNL     1       2.142   6.695  19.942  0.00  0.00    +0.000 A 
BRANCH  21  28
ATOM     27  C   UNL     1       4.926   5.684  18.995  0.00  0.00    +0.000 C 
ATOM     28  O   UNL     1       3.657   5.716  18.351  0.00  0.00    +0.000 OA
ENDBRANCH  21  28
BRANCH  26  29
ATOM     29  O   UNL     1       2.104   5.683  20.866  0.00  0.00    +0.000 OA
ATOM     30  C   UNL     1       1.317   4.536  20.592  0.00  0.00    +0.000 C 
ENDBRANCH  26  29
ENDBRANCH   1  24
TORSDOF 4
ENDMDL
MODEL 8
REMARK VINA RESULT:      -6.3      2.015      3.467
REMARK  Name = 
REMARK  11 active torsions:
REMARK  status: ('A' for Active; 'I' for Inactive)
REMARK    1  A    between atoms: C_1  and  O_2
REMARK    2  A    between atoms: O_2  and  C_3
REMARK    3  A    between atoms: C_6  and  N_7
REMARK    4  A    between atoms: N_10  and  C_11
REMARK    5  A    between atoms: C_12  and  C_13
REMARK    6  A    between atoms: C_14  and  C_15
REMARK    7  A    between atoms: C_18  and  C_19
REMARK    8  A    between atoms: C_21  and  C_22
REMARK    9  A    between atoms: C_21  and  C_23
REMARK   10  A    between atoms: C_28  and  O_29
REMARK   11  A    between atoms: O_29  and  C_30
REMARK                            x       y       z     vdW  Elec       q    Type
REMARK                         _______ _______ _______ _____ _____    ______ ____
ROOT
ATOM      1  N   UNL     1       1.910   7.648  19.910  0.00  0.00    +0.000 N 
ATOM      2  C   UNL     1       1.996   8.806  18.998  0.00  0.00    +0.000 C 
ATOM      3  C   UNL     1       0.735   9.708  19.080  0.00  0.00    +0.000 C 
ATOM      4  N   UNL     1       0.288  10.012  20.478  0.00  0.00    +0.000 N 
ATOM      5  C   UNL     1       0.230   8.792  21.303  0.00  0.00    +0.000 C 
ATOM      6  C   UNL     1       1.569   8.022  21.286  0.00  0.00    +0.000 C 
ENDROOT
BRANCH   4   7
ATOM      7  C   UNL     1       0.399  11.310  20.966  0.00  0.00    +0.000 A 
ATOM      8  C   UNL     1      -0.414  11.738  22.089  0.00  0.00    +0.000 A 
ATOM      9  C   UNL     1      -0.920  10.705  23.085  0.00  0.00    +0.000 C 
ATOM     10  C   UNL     1      -0.718  13.109  22.313  0.00  0.00    +0.000 A 
ATOM     11  C   UNL     1      -1.588  13.592  23.438  0.00  0.00    +0.000 C 
ATOM     12  C   UNL     1      -0.048  14.007  21.513  0.00  0.00    +0.000 A 
ATOM     13  C   UNL     1       1.080  13.611  20.811  0.00  0.00    +0.000 A 
ATOM     14  C   UNL     1       1.236  12.302  20.385  0.00  0.00    +0.000 A 
ATOM     15  C   UNL     1       2.101  12.137  19.165  0.00  0.00    +0.000 C 
ATOM     16  C   UNL     1       1.646  14.855  20.234  0.00  0.00    +0.000 C 
ATOM     17  C   UNL     1       0.292  15.386  19.791  0.00  0.00    +0.000 C 
ATOM     18  C   UNL     1      -0.412  14.558  18.664  0.00  0.00    +0.000 C 
ATOM     19  C   UNL     1       0.549  16.773  19.210  0.00  0.00    +0.000 C 
ATOM     20  O   UNL     1      -0.476  15.272  21.056  0.00  0.00    +0.000 OA
ENDBRANCH   4   7
BRANCH   1  24
ATOM     21  C   UNL     1       2.071   3.619  18.643  0.00  0.00    +0.000 A 
ATOM     22  C   UNL     1       2.449   4.656  17.791  0.00  0.00    +0.000 A 
ATOM     23  C   UNL     1       2.404   5.982  18.215  0.00  0.00    +0.000 A 
ATOM     24  C   UNL     1       1.939   6.340  19.483  0.00  0.00    +0.000 A 
ATOM     25  C   UNL     1       1.478   5.290  20.285  0.00  0.00    +0.000 A 
ATOM     26  C   UNL     1       1.538   3.941  19.894  0.00  0.00    +0.000 A 
BRANCH  21  28
ATOM     27  C   UNL     1       3.504   1.770  18.345  0.00  0.00    +0.000 C 
ATOM     28  O   UNL     1       2.187   2.302  18.257  0.00  0.00    +0.000 OA
ENDBRANCH  21  28
BRANCH  26  29
ATOM     29  O   UNL     1       1.046   3.105  20.864  0.00  0.00    +0.000 OA
ATOM     30  C   UNL     1       1.940   2.576  21.828  0.00  0.00    +0.000 C 
ENDBRANCH  26  29
ENDBRANCH   1  24
TORSDOF 4
ENDMDL
MODEL 9
REMARK VINA RESULT:      -6.3      1.791      2.695
REMARK  Name = 
REMARK  11 active torsions:
REMARK  status: ('A' for Active; 'I' for Inactive)
REMARK    1  A    between atoms: C_1  and  O_2
REMARK    2  A    between atoms: O_2  and  C_3
REMARK    3  A    between atoms: C_6  and  N_7
REMARK    4  A    between atoms: N_10  and  C_11
REMARK    5  A    between atoms: C_12  and  C_13
REMARK    6  A    between atoms: C_14  and  C_15
REMARK    7  A    between atoms: C_18  and  C_19
REMARK    8  A    between atoms: C_21  and  C_22
REMARK    9  A    between atoms: C_21  and  C_23
REMARK   10  A    between atoms: C_28  and  O_29
REMARK   11  A    between atoms: O_29  and  C_30
REMARK                            x       y       z     vdW  Elec       q    Type
REMARK                         _______ _______ _______ _____ _____    ______ ____
ROOT
ATOM      1  N   UNL     1       1.720   7.822  19.198  0.00  0.00    +0.000 N 
ATOM      2  C   UNL     1       1.217   8.524  20.396  0.00  0.00    +0.000 C 
ATOM      3  C   UNL     1       1.665  10.010  20.433  0.00  0.00    +0.000 C 
ATOM      4  N   UNL     1       1.489  10.736  19.133  0.00  0.00    +0.000 N 
ATOM      5  C   UNL     1       2.027   9.956  18.004  0.00  0.00    +0.000 C 
ATOM      6  C   UNL     1       1.428   8.534  17.949  0.00  0.00    +0.000 C 
ENDROOT
BRANCH   4   7
ATOM      7  C   UNL     1       0.538  11.746  19.035  0.00  0.00    +0.000 A 
ATOM      8  C   UNL     1       0.952  13.135  18.990  0.00  0.00    +0.000 A 
ATOM      9  C   UNL     1       2.337  13.488  18.469  0.00  0.00    +0.000 C 
ATOM     10  C   UNL     1       0.080  14.189  19.380  0.00  0.00    +0.000 A 
ATOM     11  C   UNL     1       0.481  15.637  19.387  0.00  0.00    +0.000 C 
ATOM     12  C   UNL     1      -1.225  13.824  19.624  0.00  0.00    +0.000 A 
ATOM     13  C   UNL     1      -1.705  12.603  19.174  0.00  0.00    +0.000 A 
ATOM     14  C   UNL     1      -0.864  11.510  19.037  0.00  0.00    +0.000 A 
ATOM     15  C   UNL     1      -1.545  10.174  19.168  0.00  0.00    +0.000 C 
ATOM     16  C   UNL     1      -3.165  12.632  19.427  0.00  0.00    +0.000 C 
ATOM     17  C   UNL     1      -3.015  13.230  20.816  0.00  0.00    +0.000 C 
ATOM     18  C   UNL     1      -2.318  12.303  21.869  0.00  0.00    +0.000 C 
ATOM     19  C   UNL     1      -4.430  13.476  21.329  0.00  0.00    +0.000 C 
ATOM     20  O   UNL     1      -2.149  14.399  20.522  0.00  0.00    +0.000 OA
ENDBRANCH   4   7
BRANCH   1  24
ATOM     21  C   UNL     1       4.238   4.429  19.292  0.00  0.00    +0.000 A 
ATOM     22  C   UNL     1       3.198   4.578  20.209  0.00  0.00    +0.000 A 
ATOM     23  C   UNL     1       2.364   5.694  20.170  0.00  0.00    +0.000 A 
ATOM     24  C   UNL     1       2.553   6.729  19.250  0.00  0.00    +0.000 A 
ATOM     25  C   UNL     1       3.658   6.600  18.401  0.00  0.00    +0.000 A 
ATOM     26  C   UNL     1       4.499   5.473  18.401  0.00  0.00    +0.000 A 
BRANCH  21  28
ATOM     27  C   UNL     1       4.419   2.155  19.889  0.00  0.00    +0.000 C 
ATOM     28  O   UNL     1       5.015   3.293  19.277  0.00  0.00    +0.000 OA
ENDBRANCH  21  28
BRANCH  26  29
ATOM     29  O   UNL     1       5.494   5.578  17.463  0.00  0.00    +0.000 OA
ATOM     30  C   UNL     1       5.886   6.867  17.023  0.00  0.00    +0.000 C 
ENDBRANCH  26  29
ENDBRANCH   1  24
TORSDOF 4
ENDMDL
