MODEL 1
REMARK VINA RESULT:      -8.3      0.000      0.000
REMARK  Name = 
REMARK  7 active torsions:
REMARK  status: ('A' for Active; 'I' for Inactive)
REMARK    1  A    between atoms: O_1  and  C_2
REMARK    2  A    between atoms: N_5  and  C_6
REMARK    3  A    between atoms: C_6  and  C_7
REMARK    4  A    between atoms: C_7  and  N_8
REMARK    5  A    between atoms: N_8  and  C_9
REMARK    6  A    between atoms: C_9  and  C_10
REMARK    7  A    between atoms: C_13  and  C_14
REMARK                            x       y       z     vdW  Elec       q    Type
REMARK                         _______ _______ _______ _____ _____    ______ ____
ROOT
ATOM      1  C   UNL     1       7.439   5.894  17.862  0.00  0.00    +0.000 A 
ATOM      2  C   UNL     1       8.172   6.352  18.935  0.00  0.00    +0.000 A 
ATOM      3  N   UNL     1       8.563   7.630  19.085  0.00  0.00    +0.000 NA
ATOM      4  C   UNL     1       8.200   8.485  18.108  0.00  0.00    +0.000 A 
ATOM      5  N   UNL     1       7.495   8.138  17.013  0.00  0.00    +0.000 NA
ATOM      6  C   UNL     1       7.128   6.849  16.919  0.00  0.00    +0.000 A 
ENDROOT
BRANCH   4   7
ATOM      7  C   UNL     1       8.614   9.891  18.239  0.00  0.00    +0.000 A 
ATOM      8  C   UNL     1       7.991  10.909  17.495  0.00  0.00    +0.000 A 
ATOM      9  C   UNL     1       8.380  12.247  17.624  0.00  0.00    +0.000 A 
ATOM     10  C   UNL     1       9.411  12.606  18.500  0.00  0.00    +0.000 A 
ATOM     11  C   UNL     1       9.811  13.942  18.650  0.00  0.00    +0.000 A 
ATOM     12  C   UNL     1      10.838  14.281  19.531  0.00  0.00    +0.000 A 
ATOM     13  C   UNL     1      11.477  13.291  20.273  0.00  0.00    +0.000 A 
ATOM     14  C   UNL     1      11.086  11.959  20.137  0.00  0.00    +0.000 A 
ATOM     15  C   UNL     1      10.056  11.604  19.257  0.00  0.00    +0.000 A 
ATOM     16  C   UNL     1       9.649  10.268  19.115  0.00  0.00    +0.000 A 
ENDBRANCH   4   7
BRANCH   1  17
ATOM     17  C   UNL     1       7.076   4.458  17.685  0.00  0.00    +0.000 C 
BRANCH  17  18
ATOM     18  N   UNL     1       6.054   4.023  18.637  0.00  0.00    +0.000 NA
ATOM     19  H   UNL     1       5.807   3.054  18.421  0.00  0.00    +0.000 HD
BRANCH  18  20
ATOM     20  C   UNL     1       4.815   4.800  18.461  0.00  0.00    +0.000 C 
BRANCH  20  21
ATOM     21  C   UNL     1       3.700   4.020  17.721  0.00  0.00    +0.000 C 
BRANCH  21  25
ATOM     22  C   UNL     1       1.226   3.147  21.138  0.00  0.00    +0.000 C 
ATOM     23  C   UNL     1       1.368   2.112  20.031  0.00  0.00    +0.000 C 
ATOM     24  C   UNL     1       2.573   2.410  19.141  0.00  0.00    +0.000 C 
ATOM     25  N   UNL     1       2.506   3.767  18.565  0.00  0.00    +0.000 NA
ATOM     26  C   UNL     1       2.450   4.772  19.646  0.00  0.00    +0.000 C 
ATOM     27  C   UNL     1       1.240   4.556  20.558  0.00  0.00    +0.000 C 
BRANCH  22  28
ATOM     28  O   UNL     1       2.298   3.015  22.071  0.00  0.00    +0.000 OA
ATOM     29  H   UNL     1       3.093   2.759  21.570  0.00  0.00    +0.000 HD
ENDBRANCH  22  28
ENDBRANCH  21  25
ENDBRANCH  20  21
ENDBRANCH  18  20
ENDBRANCH  17  18
ENDBRANCH   1  17
TORSDOF 7
ENDMDL
MODEL 2
REMARK VINA RESULT:      -8.2      1.072      1.792
REMARK  Name = 
REMARK  7 active torsions:
REMARK  status: ('A' for Active; 'I' for Inactive)
REMARK    1  A    between atoms: O_1  and  C_2
REMARK    2  A    between atoms: N_5  and  C_6
REMARK    3  A    between atoms: C_6  and  C_7
REMARK    4  A    between atoms: C_7  and  N_8
REMARK    5  A    between atoms: N_8  and  C_9
REMARK    6  A    between atoms: C_9  and  C_10
REMARK    7  A    between atoms: C_13  and  C_14
REMARK                            x       y       z     vdW  Elec       q    Type
REMARK                         _______ _______ _______ _____ _____    ______ ____
ROOT
ATOM      1  C   UNL     1       7.143   6.411  17.763  0.00  0.00    +0.000 A 
ATOM      2  C   UNL     1       6.926   7.596  17.095  0.00  0.00    +0.000 A 
ATOM      3  N   UNL     1       7.535   8.755  17.406  0.00  0.00    +0.000 NA
ATOM      4  C   UNL     1       8.399   8.717  18.440  0.00  0.00    +0.000 A 
ATOM      5  N   UNL     1       8.673   7.614  19.167  0.00  0.00    +0.000 NA
ATOM      6  C   UNL     1       8.039   6.486  18.806  0.00  0.00    +0.000 A 
ENDROOT
BRANCH   4   7
ATOM      7  C   UNL     1       9.080   9.968  18.811  0.00  0.00    +0.000 A 
ATOM      8  C   UNL     1       9.248  10.338  20.157  0.00  0.00    +0.000 A 
ATOM      9  C   UNL     1       9.901  11.524  20.509  0.00  0.00    +0.000 A 
ATOM     10  C   UNL     1      10.403  12.380  19.522  0.00  0.00    +0.000 A 
ATOM     11  C   UNL     1      11.067  13.569  19.854  0.00  0.00    +0.000 A 
ATOM     12  C   UNL     1      11.564  14.408  18.856  0.00  0.00    +0.000 A 
ATOM     13  C   UNL     1      11.404  14.068  17.515  0.00  0.00    +0.000 A 
ATOM     14  C   UNL     1      10.749  12.886  17.171  0.00  0.00    +0.000 A 
ATOM     15  C   UNL     1      10.246  12.034  18.162  0.00  0.00    +0.000 A 
ATOM     16  C   UNL     1       9.590  10.839  17.830  0.00  0.00    +0.000 A 
ENDBRANCH   4   7
BRANCH   1  17
ATOM     17  C   UNL     1       6.406   5.155  17.441  0.00  0.00    +0.000 C 
BRANCH  17  18
ATOM     18  N   UNL     1       5.343   5.372  16.459  0.00  0.00    +0.000 NA
ATOM     19  H   UNL     1       4.851   6.235  16.705  0.00  0.00    +0.000 HD
BRANCH  18  20
ATOM     20  C   UNL     1       4.335   4.300  16.539  0.00  0.00    +0.000 C 
BRANCH  20  21
ATOM     21  C   UNL     1       4.318   3.573  17.908  0.00  0.00    +0.000 C 
BRANCH  21  25
ATOM     22  C   UNL     1       1.436   3.622  21.110  0.00  0.00    +0.000 C 
ATOM     23  C   UNL     1       1.246   2.662  19.944  0.00  0.00    +0.000 C 
ATOM     24  C   UNL     1       2.537   2.491  19.147  0.00  0.00    +0.000 C 
ATOM     25  N   UNL     1       3.058   3.784  18.663  0.00  0.00    +0.000 NA
ATOM     26  C   UNL     1       3.317   4.683  19.805  0.00  0.00    +0.000 C 
ATOM     27  C   UNL     1       2.051   4.931  20.629  0.00  0.00    +0.000 C 
BRANCH  22  28
ATOM     28  O   UNL     1       2.291   3.036  22.091  0.00  0.00    +0.000 OA
ATOM     29  H   UNL     1       1.738   2.480  22.668  0.00  0.00    +0.000 HD
ENDBRANCH  22  28
ENDBRANCH  21  25
ENDBRANCH  20  21
ENDBRANCH  18  20
ENDBRANCH  17  18
ENDBRANCH   1  17
TORSDOF 7
ENDMDL
MODEL 3
REMARK VINA RESULT:      -8.2      5.458      7.496
REMARK  Name = 
REMARK  7 active torsions:
REMARK  status: ('A' for Active; 'I' for Inactive)
REMARK    1  A    between atoms: O_1  and  C_2
REMARK    2  A    between atoms: N_5  and  C_6
REMARK    3  A    between atoms: C_6  and  C_7
REMARK    4  A    between atoms: C_7  and  N_8
REMARK    5  A    between atoms: N_8  and  C_9
REMARK    6  A    between atoms: C_9  and  C_10
REMARK    7  A    between atoms: C_13  and  C_14
REMARK                            x       y       z     vdW  Elec       q    Type
REMARK                         _______ _______ _______ _____ _____    ______ ____
ROOT
ATOM      1  C   UNL     1       3.225   6.945  18.030  0.00  0.00    +0.000 A 
ATOM      2  C   UNL     1       2.944   6.563  19.324  0.00  0.00    +0.000 A 
ATOM      3  N   UNL     1       2.160   7.268  20.160  0.00  0.00    +0.000 NA
ATOM      4  C   UNL     1       1.638   8.410  19.670  0.00  0.00    +0.000 A 
ATOM      5  N   UNL     1       1.860   8.879  18.425  0.00  0.00    +0.000 NA
ATOM      6  C   UNL     1       2.647   8.131  17.634  0.00  0.00    +0.000 A 
ENDROOT
BRANCH   4   7
ATOM      7  C   UNL     1       0.778   9.208  20.559  0.00  0.00    +0.000 A 
ATOM      8  C   UNL     1       0.673   8.917  21.930  0.00  0.00    +0.000 A 
ATOM      9  C   UNL     1      -0.139   9.679  22.776  0.00  0.00    +0.000 A 
ATOM     10  C   UNL     1      -0.877  10.757  22.272  0.00  0.00    +0.000 A 
ATOM     11  C   UNL     1      -1.692  11.538  23.104  0.00  0.00    +0.000 A 
ATOM     12  C   UNL     1      -2.417  12.610  22.585  0.00  0.00    +0.000 A 
ATOM     13  C   UNL     1      -2.337  12.915  21.228  0.00  0.00    +0.000 A 
ATOM     14  C   UNL     1      -1.528  12.148  20.390  0.00  0.00    +0.000 A 
ATOM     15  C   UNL     1      -0.793  11.069  20.898  0.00  0.00    +0.000 A 
ATOM     16  C   UNL     1       0.030  10.294  20.067  0.00  0.00    +0.000 A 
ENDBRANCH   4   7
BRANCH   1  17
ATOM     17  C   UNL     1       4.151   6.182  17.145  0.00  0.00    +0.000 C 
BRANCH  17  18
ATOM     18  N   UNL     1       5.399   5.827  17.821  0.00  0.00    +0.000 NA
ATOM     19  H   UNL     1       6.175   6.010  17.179  0.00  0.00    +0.000 HD
BRANCH  18  20
ATOM     20  C   UNL     1       5.446   4.383  18.103  0.00  0.00    +0.000 C 
BRANCH  20  21
ATOM     21  C   UNL     1       4.340   3.578  17.375  0.00  0.00    +0.000 C 
BRANCH  21  25
ATOM     22  C   UNL     1       1.376   2.820  20.408  0.00  0.00    +0.000 C 
ATOM     23  C   UNL     1       2.838   2.507  20.693  0.00  0.00    +0.000 C 
ATOM     24  C   UNL     1       3.762   3.210  19.700  0.00  0.00    +0.000 C 
ATOM     25  N   UNL     1       3.430   2.865  18.304  0.00  0.00    +0.000 NA
ATOM     26  C   UNL     1       2.034   3.244  18.009  0.00  0.00    +0.000 C 
ATOM     27  C   UNL     1       1.046   2.544  18.946  0.00  0.00    +0.000 C 
BRANCH  22  28
ATOM     28  O   UNL     1       1.103   4.190  20.698  0.00  0.00    +0.000 OA
ATOM     29  H   UNL     1       1.335   4.709  19.908  0.00  0.00    +0.000 HD
ENDBRANCH  22  28
ENDBRANCH  21  25
ENDBRANCH  20  21
ENDBRANCH  18  20
ENDBRANCH  17  18
ENDBRANCH   1  17
TORSDOF 7
ENDMDL
MODEL 4
REMARK VINA RESULT:      -8.1      5.399      6.623
REMARK  Name = 
REMARK  7 active torsions:
REMARK  status: ('A' for Active; 'I' for Inactive)
REMARK    1  A    between atoms: O_1  and  C_2
REMARK    2  A    between atoms: N_5  and  C_6
REMARK    3  A    between atoms: C_6  and  C_7
REMARK    4  A    between atoms: C_7  and  N_8
REMARK    5  A    between atoms: N_8  and  C_9
REMARK    6  A    between atoms: C_9  and  C_10
REMARK    7  A    between atoms: C_13  and  C_14
REMARK                            x       y       z     vdW  Elec       q    Type
REMARK                         _______ _______ _______ _____ _____    ______ ____
ROOT
ATOM      1  C   UNL     1       4.521   5.858  17.573  0.00  0.00    +0.000 A 
ATOM      2  C   UNL     1       4.051   5.714  18.861  0.00  0.00    +0.000 A 
ATOM      3  N   UNL     1       3.181   6.561  19.440  0.00  0.00    +0.000 NA
ATOM      4  C   UNL     1       2.768   7.601  18.688  0.00  0.00    +0.000 A 
ATOM      5  N   UNL     1       3.175   7.839  17.425  0.00  0.00    +0.000 NA
ATOM      6  C   UNL     1       4.040   6.957  16.897  0.00  0.00    +0.000 A 
ENDROOT
BRANCH   4   7
ATOM      7  C   UNL     1       1.819   8.549  19.292  0.00  0.00    +0.000 A 
ATOM      8  C   UNL     1       1.230   9.577  18.535  0.00  0.00    +0.000 A 
ATOM      9  C   UNL     1       0.322  10.475  19.107  0.00  0.00    +0.000 A 
ATOM     10  C   UNL     1      -0.021  10.373  20.460  0.00  0.00    +0.000 A 
ATOM     11  C   UNL     1      -0.933  11.258  21.052  0.00  0.00    +0.000 A 
ATOM     12  C   UNL     1      -1.266  11.139  22.401  0.00  0.00    +0.000 A 
ATOM     13  C   UNL     1      -0.690  10.135  23.176  0.00  0.00    +0.000 A 
ATOM     14  C   UNL     1       0.217   9.246  22.599  0.00  0.00    +0.000 A 
ATOM     15  C   UNL     1       0.559   9.352  21.245  0.00  0.00    +0.000 A 
ATOM     16  C   UNL     1       1.465   8.461  20.651  0.00  0.00    +0.000 A 
ENDBRANCH   4   7
BRANCH   1  17
ATOM     17  C   UNL     1       5.537   4.943  16.977  0.00  0.00    +0.000 C 
BRANCH  17  18
ATOM     18  N   UNL     1       5.398   3.569  17.460  0.00  0.00    +0.000 NA
ATOM     19  H   UNL     1       5.956   2.959  16.857  0.00  0.00    +0.000 HD
BRANCH  18  20
ATOM     20  C   UNL     1       4.007   3.106  17.318  0.00  0.00    +0.000 C 
BRANCH  20  21
ATOM     21  C   UNL     1       3.730   1.761  18.034  0.00  0.00    +0.000 C 
BRANCH  21  25
ATOM     22  C   UNL     1       1.092   3.441  20.998  0.00  0.00    +0.000 C 
ATOM     23  C   UNL     1       2.327   2.669  21.443  0.00  0.00    +0.000 C 
ATOM     24  C   UNL     1       3.331   2.518  20.302  0.00  0.00    +0.000 C 
ATOM     25  N   UNL     1       2.725   1.874  19.120  0.00  0.00    +0.000 NA
ATOM     26  C   UNL     1       1.577   2.671  18.644  0.00  0.00    +0.000 C 
ATOM     27  C   UNL     1       0.510   2.830  19.729  0.00  0.00    +0.000 C 
BRANCH  22  28
ATOM     28  O   UNL     1       1.433   4.804  20.747  0.00  0.00    +0.000 OA
ATOM     29  H   UNL     1       0.696   5.354  21.068  0.00  0.00    +0.000 HD
ENDBRANCH  22  28
ENDBRANCH  21  25
ENDBRANCH  20  21
ENDBRANCH  18  20
ENDBRANCH  17  18
ENDBRANCH   1  17
TORSDOF 7
ENDMDL
MODEL 5
REMARK VINA RESULT:      -8.0      5.346      6.510
REMARK  Name = 
REMARK  7 active torsions:
REMARK  status: ('A' for Active; 'I' for Inactive)
REMARK    1  A    between atoms: O_1  and  C_2
REMARK    2  A    between atoms: N_5  and  C_6
REMARK    3  A    between atoms: C_6  and  C_7
REMARK    4  A    between atoms: C_7  and  N_8
REMARK    5  A    between atoms: N_8  and  C_9
REMARK    6  A    between atoms: C_9  and  C_10
REMARK    7  A    between atoms: C_13  and  C_14
REMARK                            x       y       z     vdW  Elec       q    Type
REMARK                         _______ _______ _______ _____ _____    ______ ____
ROOT
ATOM      1  C   UNL     1       4.943   5.547  17.668  0.00  0.00    +0.000 A 
ATOM      2  C   UNL     1       4.477   6.591  16.898  0.00  0.00    +0.000 A 
ATOM      3  N   UNL     1       3.562   7.482  17.319  0.00  0.00    +0.000 NA
ATOM      4  C   UNL     1       3.095   7.312  18.572  0.00  0.00    +0.000 A 
ATOM      5  N   UNL     1       3.476   6.320  19.402  0.00  0.00    +0.000 NA
ATOM      6  C   UNL     1       4.396   5.463  18.928  0.00  0.00    +0.000 A 
ENDROOT
BRANCH   4   7
ATOM      7  C   UNL     1       2.090   8.268  19.065  0.00  0.00    +0.000 A 
ATOM      8  C   UNL     1       1.433   9.154  18.193  0.00  0.00    +0.000 A 
ATOM      9  C   UNL     1       0.473  10.058  18.660  0.00  0.00    +0.000 A 
ATOM     10  C   UNL     1       0.144  10.106  20.020  0.00  0.00    +0.000 A 
ATOM     11  C   UNL     1      -0.820  10.999  20.508  0.00  0.00    +0.000 A 
ATOM     12  C   UNL     1      -1.138  11.030  21.865  0.00  0.00    +0.000 A 
ATOM     13  C   UNL     1      -0.496  10.170  22.752  0.00  0.00    +0.000 A 
ATOM     14  C   UNL     1       0.463   9.273  22.280  0.00  0.00    +0.000 A 
ATOM     15  C   UNL     1       0.791   9.230  20.919  0.00  0.00    +0.000 A 
ATOM     16  C   UNL     1       1.749   8.329  20.430  0.00  0.00    +0.000 A 
ENDBRANCH   4   7
BRANCH   1  17
ATOM     17  C   UNL     1       5.908   4.532  17.154  0.00  0.00    +0.000 C 
BRANCH  17  18
ATOM     18  N   UNL     1       5.235   3.370  16.575  0.00  0.00    +0.000 NA
ATOM     19  H   UNL     1       5.056   3.562  15.586  0.00  0.00    +0.000 HD
BRANCH  18  20
ATOM     20  C   UNL     1       3.911   3.176  17.190  0.00  0.00    +0.000 C 
BRANCH  20  21
ATOM     21  C   UNL     1       3.802   1.873  18.020  0.00  0.00    +0.000 C 
BRANCH  21  25
ATOM     22  C   UNL     1       1.247   3.470  21.099  0.00  0.00    +0.000 C 
ATOM     23  C   UNL     1       2.443   2.611  21.487  0.00  0.00    +0.000 C 
ATOM     24  C   UNL     1       3.439   2.491  20.336  0.00  0.00    +0.000 C 
ATOM     25  N   UNL     1       2.804   1.960  19.115  0.00  0.00    +0.000 NA
ATOM     26  C   UNL     1       1.696   2.842  18.697  0.00  0.00    +0.000 C 
ATOM     27  C   UNL     1       0.636   2.977  19.794  0.00  0.00    +0.000 C 
BRANCH  22  28
ATOM     28  O   UNL     1       1.653   4.830  20.942  0.00  0.00    +0.000 OA
ATOM     29  H   UNL     1       1.316   5.139  20.082  0.00  0.00    +0.000 HD
ENDBRANCH  22  28
ENDBRANCH  21  25
ENDBRANCH  20  21
ENDBRANCH  18  20
ENDBRANCH  17  18
ENDBRANCH   1  17
TORSDOF 7
ENDMDL
MODEL 6
REMARK VINA RESULT:      -8.0      0.929      1.317
REMARK  Name = 
REMARK  7 active torsions:
REMARK  status: ('A' for Active; 'I' for Inactive)
REMARK    1  A    between atoms: O_1  and  C_2
REMARK    2  A    between atoms: N_5  and  C_6
REMARK    3  A    between atoms: C_6  and  C_7
REMARK    4  A    between atoms: C_7  and  N_8
REMARK    5  A    between atoms: N_8  and  C_9
REMARK    6  A    between atoms: C_9  and  C_10
REMARK    7  A    between atoms: C_13  and  C_14
REMARK                            x       y       z     vdW  Elec       q    Type
REMARK                         _______ _______ _______ _____ _____    ______ ____
ROOT
ATOM      1  C   UNL     1       7.087   5.705  17.713  0.00  0.00    +0.000 A 
ATOM      2  C   UNL     1       6.741   6.714  16.840  0.00  0.00    +0.000 A 
ATOM      3  N   UNL     1       7.162   7.985  16.960  0.00  0.00    +0.000 NA
ATOM      4  C   UNL     1       7.966   8.253  18.008  0.00  0.00    +0.000 A 
ATOM      5  N   UNL     1       8.354   7.344  18.925  0.00  0.00    +0.000 NA
ATOM      6  C   UNL     1       7.907   6.089  18.752  0.00  0.00    +0.000 A 
ENDROOT
BRANCH   4   7
ATOM      7  C   UNL     1       8.442   9.637  18.172  0.00  0.00    +0.000 A 
ATOM      8  C   UNL     1       7.917  10.687  17.400  0.00  0.00    +0.000 A 
ATOM      9  C   UNL     1       8.365  12.003  17.560  0.00  0.00    +0.000 A 
ATOM     10  C   UNL     1       9.359  12.306  18.497  0.00  0.00    +0.000 A 
ATOM     11  C   UNL     1       9.817  13.619  18.678  0.00  0.00    +0.000 A 
ATOM     12  C   UNL     1      10.807  13.903  19.619  0.00  0.00    +0.000 A 
ATOM     13  C   UNL     1      11.350  12.879  20.391  0.00  0.00    +0.000 A 
ATOM     14  C   UNL     1      10.901  11.569  20.224  0.00  0.00    +0.000 A 
ATOM     15  C   UNL     1       9.907  11.270  19.283  0.00  0.00    +0.000 A 
ATOM     16  C   UNL     1       9.442   9.957  19.109  0.00  0.00    +0.000 A 
ENDBRANCH   4   7
BRANCH   1  17
ATOM     17  C   UNL     1       6.554   4.317  17.598  0.00  0.00    +0.000 C 
BRANCH  17  18
ATOM     18  N   UNL     1       5.471   4.219  16.619  0.00  0.00    +0.000 NA
ATOM     19  H   UNL     1       5.578   4.981  15.945  0.00  0.00    +0.000 HD
BRANCH  18  20
ATOM     20  C   UNL     1       4.166   4.437  17.265  0.00  0.00    +0.000 C 
BRANCH  20  21
ATOM     21  C   UNL     1       3.264   3.177  17.272  0.00  0.00    +0.000 C 
BRANCH  21  25
ATOM     22  C   UNL     1       1.865   3.756  21.305  0.00  0.00    +0.000 C 
ATOM     23  C   UNL     1       2.973   2.748  21.033  0.00  0.00    +0.000 C 
ATOM     24  C   UNL     1       3.609   2.976  19.663  0.00  0.00    +0.000 C 
ATOM     25  N   UNL     1       2.607   2.938  18.581  0.00  0.00    +0.000 NA
ATOM     26  C   UNL     1       1.578   3.972  18.808  0.00  0.00    +0.000 C 
ATOM     27  C   UNL     1       0.870   3.781  20.152  0.00  0.00    +0.000 C 
BRANCH  22  28
ATOM     28  O   UNL     1       2.421   5.060  21.472  0.00  0.00    +0.000 OA
ATOM     29  H   UNL     1       2.847   5.088  22.347  0.00  0.00    +0.000 HD
ENDBRANCH  22  28
ENDBRANCH  21  25
ENDBRANCH  20  21
ENDBRANCH  18  20
ENDBRANCH  17  18
ENDBRANCH   1  17
TORSDOF 7
ENDMDL
MODEL 7
REMARK VINA RESULT:      -7.9      5.354      7.368
REMARK  Name = 
REMARK  7 active torsions:
REMARK  status: ('A' for Active; 'I' for Inactive)
REMARK    1  A    between atoms: O_1  and  C_2
REMARK    2  A    between atoms: N_5  and  C_6
REMARK    3  A    between atoms: C_6  and  C_7
REMARK    4  A    between atoms: C_7  and  N_8
REMARK    5  A    between atoms: N_8  and  C_9
REMARK    6  A    between atoms: C_9  and  C_10
REMARK    7  A    between atoms: C_13  and  C_14
REMARK                            x       y       z     vdW  Elec       q    Type
REMARK                         _______ _______ _______ _____ _____    ______ ____
ROOT
ATOM      1  C   UNL     1       3.304   6.986  18.060  0.00  0.00    +0.000 A 
ATOM      2  C   UNL     1       2.632   6.829  19.253  0.00  0.00    +0.000 A 
ATOM      3  N   UNL     1       1.733   7.709  19.727  0.00  0.00    +0.000 NA
ATOM      4  C   UNL     1       1.501   8.797  18.966  0.00  0.00    +0.000 A 
ATOM      5  N   UNL     1       2.111   9.051  17.791  0.00  0.00    +0.000 NA
ATOM      6  C   UNL     1       2.996   8.135  17.365  0.00  0.00    +0.000 A 
ENDROOT
BRANCH   4   7
ATOM      7  C   UNL     1       0.524   9.782  19.457  0.00  0.00    +0.000 A 
ATOM      8  C   UNL     1      -0.246  10.555  18.570  0.00  0.00    +0.000 A 
ATOM      9  C   UNL     1      -1.178  11.487  19.036  0.00  0.00    +0.000 A 
ATOM     10  C   UNL     1      -1.367  11.678  20.410  0.00  0.00    +0.000 A 
ATOM     11  C   UNL     1      -2.302  12.601  20.899  0.00  0.00    +0.000 A 
ATOM     12  C   UNL     1      -2.478  12.775  22.272  0.00  0.00    +0.000 A 
ATOM     13  C   UNL     1      -1.722  12.028  23.172  0.00  0.00    +0.000 A 
ATOM     14  C   UNL     1      -0.791  11.103  22.700  0.00  0.00    +0.000 A 
ATOM     15  C   UNL     1      -0.605  10.917  21.324  0.00  0.00    +0.000 A 
ATOM     16  C   UNL     1       0.324   9.986  20.835  0.00  0.00    +0.000 A 
ENDBRANCH   4   7
BRANCH   1  17
ATOM     17  C   UNL     1       4.346   6.030  17.587  0.00  0.00    +0.000 C 
BRANCH  17  18
ATOM     18  N   UNL     1       5.351   5.753  18.614  0.00  0.00    +0.000 NA
ATOM     19  H   UNL     1       6.275   5.951  18.219  0.00  0.00    +0.000 HD
BRANCH  18  20
ATOM     20  C   UNL     1       5.362   4.321  18.958  0.00  0.00    +0.000 C 
BRANCH  20  21
ATOM     21  C   UNL     1       4.443   3.464  18.051  0.00  0.00    +0.000 C 
BRANCH  21  25
ATOM     22  C   UNL     1       0.845   2.881  20.348  0.00  0.00    +0.000 C 
ATOM     23  C   UNL     1       2.198   2.627  20.997  0.00  0.00    +0.000 C 
ATOM     24  C   UNL     1       3.329   3.270  20.196  0.00  0.00    +0.000 C 
ATOM     25  N   UNL     1       3.340   2.806  18.795  0.00  0.00    +0.000 NA
ATOM     26  C   UNL     1       2.054   3.127  18.147  0.00  0.00    +0.000 C 
ATOM     27  C   UNL     1       0.874   2.481  18.878  0.00  0.00    +0.000 C 
BRANCH  22  28
ATOM     28  O   UNL     1       0.505   4.264  20.449  0.00  0.00    +0.000 OA
ATOM     29  H   UNL     1       0.857   4.711  19.660  0.00  0.00    +0.000 HD
ENDBRANCH  22  28
ENDBRANCH  21  25
ENDBRANCH  20  21
ENDBRANCH  18  20
ENDBRANCH  17  18
ENDBRANCH   1  17
TORSDOF 7
ENDMDL
MODEL 8
REMARK VINA RESULT:      -7.8      1.239      1.869
REMARK  Name = 
REMARK  7 active torsions:
REMARK  status: ('A' for Active; 'I' for Inactive)
REMARK    1  A    between atoms: O_1  and  C_2
REMARK    2  A    between atoms: N_5  and  C_6
REMARK    3  A    between atoms: C_6  and  C_7
REMARK    4  A    between atoms: C_7  and  N_8
REMARK    5  A    between atoms: N_8  and  C_9
REMARK    6  A    between atoms: C_9  and  C_10
REMARK    7  A    between atoms: C_13  and  C_14
REMARK                            x       y       z     vdW  Elec       q    Type
REMARK                         _______ _______ _______ _____ _____    ______ ____
ROOT
ATOM      1  C   UNL     1       7.169   6.633  17.682  0.00  0.00    +0.000 A 
ATOM      2  C   UNL     1       8.058   6.661  18.735  0.00  0.00    +0.000 A 
ATOM      3  N   UNL     1       8.717   7.765  19.130  0.00  0.00    +0.000 NA
ATOM      4  C   UNL     1       8.471   8.891  18.431  0.00  0.00    +0.000 A 
ATOM      5  N   UNL     1       7.630   8.969  17.380  0.00  0.00    +0.000 NA
ATOM      6  C   UNL     1       6.997   7.836  17.033  0.00  0.00    +0.000 A 
ENDROOT
BRANCH   4   7
ATOM      7  C   UNL     1       9.178  10.118  18.834  0.00  0.00    +0.000 A 
ATOM      8  C   UNL     1       9.333  10.461  20.188  0.00  0.00    +0.000 A 
ATOM      9  C   UNL     1      10.011  11.623  20.571  0.00  0.00    +0.000 A 
ATOM     10  C   UNL     1      10.551  12.482  19.607  0.00  0.00    +0.000 A 
ATOM     11  C   UNL     1      11.240  13.648  19.970  0.00  0.00    +0.000 A 
ATOM     12  C   UNL     1      11.774  14.490  18.995  0.00  0.00    +0.000 A 
ATOM     13  C   UNL     1      11.627  14.178  17.646  0.00  0.00    +0.000 A 
ATOM     14  C   UNL     1      10.947  13.019  17.271  0.00  0.00    +0.000 A 
ATOM     15  C   UNL     1      10.406  12.163  18.239  0.00  0.00    +0.000 A 
ATOM     16  C   UNL     1       9.726  10.992  17.876  0.00  0.00    +0.000 A 
ENDBRANCH   4   7
BRANCH   1  17
ATOM     17  C   UNL     1       6.502   5.382  17.221  0.00  0.00    +0.000 C 
BRANCH  17  18
ATOM     18  N   UNL     1       5.050   5.430  17.398  0.00  0.00    +0.000 NA
ATOM     19  H   UNL     1       4.842   5.264  18.387  0.00  0.00    +0.000 HD
BRANCH  18  20
ATOM     20  C   UNL     1       4.400   4.331  16.663  0.00  0.00    +0.000 C 
BRANCH  20  21
ATOM     21  C   UNL     1       3.956   3.160  17.575  0.00  0.00    +0.000 C 
BRANCH  21  25
ATOM     22  C   UNL     1       1.530   3.697  21.094  0.00  0.00    +0.000 C 
ATOM     23  C   UNL     1       1.756   4.872  20.153  0.00  0.00    +0.000 C 
ATOM     24  C   UNL     1       2.269   4.404  18.792  0.00  0.00    +0.000 C 
ATOM     25  N   UNL     1       3.502   3.604  18.916  0.00  0.00    +0.000 NA
ATOM     26  C   UNL     1       3.254   2.422  19.765  0.00  0.00    +0.000 C 
ATOM     27  C   UNL     1       2.773   2.819  21.163  0.00  0.00    +0.000 C 
BRANCH  22  28
ATOM     28  O   UNL     1       0.428   2.912  20.639  0.00  0.00    +0.000 OA
ATOM     29  H   UNL     1       0.644   1.977  20.807  0.00  0.00    +0.000 HD
ENDBRANCH  22  28
ENDBRANCH  21  25
ENDBRANCH  20  21
ENDBRANCH  18  20
ENDBRANCH  17  18
ENDBRANCH   1  17
TORSDOF 7
ENDMDL
MODEL 9
REMARK VINA RESULT:      -7.8      5.508      7.572
REMARK  Name = 
REMARK  7 active torsions:
REMARK  status: ('A' for Active; 'I' for Inactive)
REMARK    1  A    between atoms: O_1  and  C_2
REMARK    2  A    between atoms: N_5  and  C_6
REMARK    3  A    between atoms: C_6  and  C_7
REMARK    4  A    between atoms: C_7  and  N_8
REMARK    5  A    between atoms: N_8  and  C_9
REMARK    6  A    between atoms: C_9  and  C_10
REMARK    7  A    between atoms: C_13  and  C_14
REMARK                            x       y       z     vdW  Elec       q    Type
REMARK                         _______ _______ _______ _____ _____    ______ ____
ROOT
ATOM      1  C   UNL     1       3.244   7.135  18.016  0.00  0.00    +0.000 A 
ATOM      2  C   UNL     1       2.618   8.308  17.651  0.00  0.00    +0.000 A 
ATOM      3  N   UNL     1       1.822   9.018  18.470  0.00  0.00    +0.000 NA
ATOM      4  C   UNL     1       1.647   8.523  19.712  0.00  0.00    +0.000 A 
ATOM      5  N   UNL     1       2.203   7.381  20.164  0.00  0.00    +0.000 NA
ATOM      6  C   UNL     1       2.992   6.716  19.303  0.00  0.00    +0.000 A 
ENDROOT
BRANCH   4   7
ATOM      7  C   UNL     1       0.779   9.273  20.634  0.00  0.00    +0.000 A 
ATOM      8  C   UNL     1       0.725   8.963  22.004  0.00  0.00    +0.000 A 
ATOM      9  C   UNL     1      -0.095   9.680  22.881  0.00  0.00    +0.000 A 
ATOM     10  C   UNL     1      -0.893  10.730  22.410  0.00  0.00    +0.000 A 
ATOM     11  C   UNL     1      -1.717  11.467  23.273  0.00  0.00    +0.000 A 
ATOM     12  C   UNL     1      -2.502  12.512  22.787  0.00  0.00    +0.000 A 
ATOM     13  C   UNL     1      -2.473  12.834  21.432  0.00  0.00    +0.000 A 
ATOM     14  C   UNL     1      -1.655  12.112  20.563  0.00  0.00    +0.000 A 
ATOM     15  C   UNL     1      -0.861  11.061  21.038  0.00  0.00    +0.000 A 
ATOM     16  C   UNL     1      -0.029  10.331  20.175  0.00  0.00    +0.000 A 
ENDBRANCH   4   7
BRANCH   1  17
ATOM     17  C   UNL     1       4.068   6.331  17.068  0.00  0.00    +0.000 C 
BRANCH  17  18
ATOM     18  N   UNL     1       4.886   5.331  17.755  0.00  0.00    +0.000 NA
ATOM     19  H   UNL     1       5.871   5.546  17.578  0.00  0.00    +0.000 HD
BRANCH  18  20
ATOM     20  C   UNL     1       4.660   3.993  17.184  0.00  0.00    +0.000 C 
BRANCH  20  21
ATOM     21  C   UNL     1       3.164   3.593  17.126  0.00  0.00    +0.000 C 
BRANCH  21  25
ATOM     22  C   UNL     1       1.998   3.241  21.258  0.00  0.00    +0.000 C 
ATOM     23  C   UNL     1       3.243   2.516  20.766  0.00  0.00    +0.000 C 
ATOM     24  C   UNL     1       3.721   3.077  19.428  0.00  0.00    +0.000 C 
ATOM     25  N   UNL     1       2.662   3.027  18.402  0.00  0.00    +0.000 NA
ATOM     26  C   UNL     1       1.487   3.800  18.851  0.00  0.00    +0.000 C 
ATOM     27  C   UNL     1       0.929   3.266  20.173  0.00  0.00    +0.000 C 
BRANCH  22  28
ATOM     28  O   UNL     1       2.325   4.582  21.622  0.00  0.00    +0.000 OA
ATOM     29  H   UNL     1       2.946   4.540  22.371  0.00  0.00    +0.000 HD
ENDBRANCH  22  28
ENDBRANCH  21  25
ENDBRANCH  20  21
ENDBRANCH  18  20
ENDBRANCH  17  18
ENDBRANCH   1  17
TORSDOF 7
ENDMDL
