MODEL 1
REMARK VINA RESULT:      -6.7      0.000      0.000
REMARK  Name = 
REMARK  10 active torsions:
REMARK  status: ('A' for Active; 'I' for Inactive)
REMARK    1  A    between atoms: C_1  and  C_2
REMARK    2  A    between atoms: C_2  and  C_3
REMARK    3  A    between atoms: C_3  and  C_4
REMARK    4  A    between atoms: C_12  and  C_13
REMARK    5  A    between atoms: C_17  and  C_18
REMARK    6  A    between atoms: C_22  and  O_23
REMARK    7  A    between atoms: C_22  and  C_24
REMARK    8  A    between atoms: C_24  and  C_25
REMARK    9  A    between atoms: C_25  and  C_26
REMARK   10  A    between atoms: C_26  and  O_28
REMARK                            x       y       z     vdW  Elec       q    Type
REMARK                         _______ _______ _______ _____ _____    ______ ____
ROOT
ATOM      1  C   UNL     1       8.773  14.624  18.076  0.00  0.00    +0.000 C 
ATOM      2  C   UNL     1       8.628  13.108  18.089  0.00  0.00    +0.000 C 
ATOM      3  C   UNL     1       9.989  12.429  18.321  0.00  0.00    +0.000 C 
ATOM      4  C   UNL     1      10.175  11.185  17.830  0.00  0.00    +0.000 C 
ATOM      5  C   UNL     1       9.243  10.329  18.640  0.00  0.00    +0.000 C 
ATOM      6  O   UNL     1       8.581   9.427  18.099  0.00  0.00    +0.000 OA
ATOM      7  C   UNL     1       9.326  10.552  20.154  0.00  0.00    +0.000 C 
ATOM      8  C   UNL     1       9.704  12.021  20.590  0.00  0.00    +0.000 C 
ATOM      9  C   UNL     1      10.689  12.830  19.644  0.00  0.00    +0.000 C 
ATOM     10  C   UNL     1      12.072  12.249  19.984  0.00  0.00    +0.000 C 
ATOM     11  C   UNL     1      10.889  14.441  19.486  0.00  0.00    +0.000 C 
ATOM     12  C   UNL     1      11.619  15.489  20.434  0.00  0.00    +0.000 C 
ATOM     13  C   UNL     1      10.695  16.603  21.309  0.00  0.00    +0.000 C 
ATOM     14  C   UNL     1       8.984  16.422  21.323  0.00  0.00    +0.000 C 
ATOM     15  C   UNL     1       8.480  17.737  20.756  0.00  0.00    +0.000 C 
ATOM     16  C   UNL     1       8.997  15.082  20.703  0.00  0.00    +0.000 C 
ATOM     17  C   UNL     1       9.712  14.454  22.223  0.00  0.00    +0.000 C 
ATOM     18  C   UNL     1       9.118  15.303  23.396  0.00  0.00    +0.000 C 
ATOM     19  C   UNL     1       7.996  15.841  22.586  0.00  0.00    +0.000 C 
ATOM     20  C   UNL     1       9.588  15.135  19.297  0.00  0.00    +0.000 C 
ENDROOT
BRANCH  19  21
ATOM     21  O   UNL     1       7.214  16.854  23.149  0.00  0.00    +0.000 OA
ATOM     22  H   UNL     1       7.616  17.015  24.047  0.00  0.00    +0.000 HD
ENDBRANCH  19  21
BRANCH   1  23
ATOM     23  C   UNL     1       7.394  15.298  17.819  0.00  0.00    +0.000 C 
BRANCH  23  25
ATOM     24  C   UNL     1       4.860  15.088  17.825  0.00  0.00    +0.000 C 
ATOM     25  C   UNL     1       6.192  14.349  17.893  0.00  0.00    +0.000 C 
ENDBRANCH  23  25
ENDBRANCH   1  23
BRANCH  19  26
ATOM     26  C   UNL     1       6.997  14.468  22.365  0.00  0.00    +0.000 C 
BRANCH  26  27
ATOM     27  C   UNL     1       5.638  14.529  21.624  0.00  0.00    +0.000 C 
BRANCH  27  28
ATOM     28  C   UNL     1       4.469  14.585  22.631  0.00  0.00    +0.000 C 
ATOM     29  O   UNL     1       3.287  14.503  22.313  0.00  0.00    +0.000 OA
BRANCH  28  30
ATOM     30  O   UNL     1       4.834  14.748  23.918  0.00  0.00    +0.000 OA
ATOM     31  H   UNL     1       4.713  13.964  24.482  0.00  0.00    +0.000 HD
ENDBRANCH  28  30
ENDBRANCH  27  28
ENDBRANCH  26  27
ENDBRANCH  19  26
TORSDOF 7
ENDMDL
MODEL 2
REMARK VINA RESULT:      -6.6      7.805     11.726
REMARK  Name = 
REMARK  10 active torsions:
REMARK  status: ('A' for Active; 'I' for Inactive)
REMARK    1  A    between atoms: C_1  and  C_2
REMARK    2  A    between atoms: C_2  and  C_3
REMARK    3  A    between atoms: C_3  and  C_4
REMARK    4  A    between atoms: C_12  and  C_13
REMARK    5  A    between atoms: C_17  and  C_18
REMARK    6  A    between atoms: C_22  and  O_23
REMARK    7  A    between atoms: C_22  and  C_24
REMARK    8  A    between atoms: C_24  and  C_25
REMARK    9  A    between atoms: C_25  and  C_26
REMARK   10  A    between atoms: C_26  and  O_28
REMARK                            x       y       z     vdW  Elec       q    Type
REMARK                         _______ _______ _______ _____ _____    ______ ____
ROOT
ATOM      1  C   UNL     1      -1.247  11.641  23.083  0.00  0.00    +0.000 C 
ATOM      2  C   UNL     1      -2.762  11.796  23.104  0.00  0.00    +0.000 C 
ATOM      3  C   UNL     1      -3.168  13.155  23.701  0.00  0.00    +0.000 C 
ATOM      4  C   UNL     1      -4.372  13.255  24.304  0.00  0.00    +0.000 C 
ATOM      5  C   UNL     1      -5.357  13.088  23.182  0.00  0.00    +0.000 C 
ATOM      6  O   UNL     1      -6.385  12.407  23.339  0.00  0.00    +0.000 OA
ATOM      7  C   UNL     1      -5.068  13.946  21.946  0.00  0.00    +0.000 C 
ATOM      8  C   UNL     1      -3.541  14.237  21.680  0.00  0.00    +0.000 C 
ATOM      9  C   UNL     1      -2.597  14.382  22.947  0.00  0.00    +0.000 C 
ATOM     10  C   UNL     1      -2.897  15.802  23.460  0.00  0.00    +0.000 C 
ATOM     11  C   UNL     1      -0.983  14.178  23.071  0.00  0.00    +0.000 C 
ATOM     12  C   UNL     1       0.216  15.111  22.600  0.00  0.00    +0.000 C 
ATOM     13  C   UNL     1       1.168  14.640  21.285  0.00  0.00    +0.000 C 
ATOM     14  C   UNL     1       0.672  13.280  20.354  0.00  0.00    +0.000 C 
ATOM     15  C   UNL     1       1.849  12.327  20.457  0.00  0.00    +0.000 C 
ATOM     16  C   UNL     1      -0.663  13.186  20.977  0.00  0.00    +0.000 C 
ATOM     17  C   UNL     1      -1.093  14.713  20.141  0.00  0.00    +0.000 C 
ATOM     18  C   UNL     1      -0.327  14.722  18.776  0.00  0.00    +0.000 C 
ATOM     19  C   UNL     1      -0.037  13.266  18.803  0.00  0.00    +0.000 C 
ATOM     20  C   UNL     1      -0.551  12.888  22.469  0.00  0.00    +0.000 C 
ENDROOT
BRANCH  19  21
ATOM     21  O   UNL     1       0.832  12.759  17.833  0.00  0.00    +0.000 OA
ATOM     22  H   UNL     1       1.693  13.239  17.986  0.00  0.00    +0.000 HD
ENDBRANCH  19  21
BRANCH   1  23
ATOM     23  C   UNL     1      -0.852  10.256  22.498  0.00  0.00    +0.000 C 
BRANCH  23  25
ATOM     24  C   UNL     1       1.272   8.927  22.060  0.00  0.00    +0.000 C 
ATOM     25  C   UNL     1       0.417   9.642  23.101  0.00  0.00    +0.000 C 
ENDBRANCH  23  25
ENDBRANCH   1  23
BRANCH  19  26
ATOM     26  C   UNL     1      -1.579  12.569  18.544  0.00  0.00    +0.000 C 
BRANCH  26  27
ATOM     27  C   UNL     1      -1.800  11.040  18.426  0.00  0.00    +0.000 C 
BRANCH  27  28
ATOM     28  C   UNL     1      -2.164  10.651  16.978  0.00  0.00    +0.000 C 
ATOM     29  O   UNL     1      -2.336   9.496  16.602  0.00  0.00    +0.000 OA
BRANCH  28  30
ATOM     30  O   UNL     1      -2.272  11.685  16.121  0.00  0.00    +0.000 OA
ATOM     31  H   UNL     1      -1.826  11.557  15.265  0.00  0.00    +0.000 HD
ENDBRANCH  28  30
ENDBRANCH  27  28
ENDBRANCH  26  27
ENDBRANCH  19  26
TORSDOF 7
ENDMDL
MODEL 3
REMARK VINA RESULT:      -6.5      1.168      1.346
REMARK  Name = 
REMARK  10 active torsions:
REMARK  status: ('A' for Active; 'I' for Inactive)
REMARK    1  A    between atoms: C_1  and  C_2
REMARK    2  A    between atoms: C_2  and  C_3
REMARK    3  A    between atoms: C_3  and  C_4
REMARK    4  A    between atoms: C_12  and  C_13
REMARK    5  A    between atoms: C_17  and  C_18
REMARK    6  A    between atoms: C_22  and  O_23
REMARK    7  A    between atoms: C_22  and  C_24
REMARK    8  A    between atoms: C_24  and  C_25
REMARK    9  A    between atoms: C_25  and  C_26
REMARK   10  A    between atoms: C_26  and  O_28
REMARK                            x       y       z     vdW  Elec       q    Type
REMARK                         _______ _______ _______ _____ _____    ______ ____
ROOT
ATOM      1  C   UNL     1       8.772  14.659  18.042  0.00  0.00    +0.000 C 
ATOM      2  C   UNL     1       8.624  13.144  18.016  0.00  0.00    +0.000 C 
ATOM      3  C   UNL     1       9.977  12.455  18.260  0.00  0.00    +0.000 C 
ATOM      4  C   UNL     1      10.171  11.222  17.744  0.00  0.00    +0.000 C 
ATOM      5  C   UNL     1       9.220  10.351  18.514  0.00  0.00    +0.000 C 
ATOM      6  O   UNL     1       8.567   9.464  17.939  0.00  0.00    +0.000 OA
ATOM      7  C   UNL     1       9.272  10.538  20.034  0.00  0.00    +0.000 C 
ATOM      8  C   UNL     1       9.645  11.995  20.512  0.00  0.00    +0.000 C 
ATOM      9  C   UNL     1      10.651  12.822  19.606  0.00  0.00    +0.000 C 
ATOM     10  C   UNL     1      12.026  12.229  19.961  0.00  0.00    +0.000 C 
ATOM     11  C   UNL     1      10.859  14.436  19.490  0.00  0.00    +0.000 C 
ATOM     12  C   UNL     1      11.572  15.460  20.478  0.00  0.00    +0.000 C 
ATOM     13  C   UNL     1      10.633  16.555  21.359  0.00  0.00    +0.000 C 
ATOM     14  C   UNL     1       8.921  16.379  21.334  0.00  0.00    +0.000 C 
ATOM     15  C   UNL     1       8.432  17.708  20.788  0.00  0.00    +0.000 C 
ATOM     16  C   UNL     1       8.944  15.054  20.683  0.00  0.00    +0.000 C 
ATOM     17  C   UNL     1       9.625  14.388  22.203  0.00  0.00    +0.000 C 
ATOM     18  C   UNL     1       9.010  15.211  23.383  0.00  0.00    +0.000 C 
ATOM     19  C   UNL     1       7.906  15.772  22.563  0.00  0.00    +0.000 C 
ATOM     20  C   UNL     1       9.563  15.138  19.291  0.00  0.00    +0.000 C 
ENDROOT
BRANCH  19  21
ATOM     21  O   UNL     1       7.115  16.774  23.133  0.00  0.00    +0.000 OA
ATOM     22  H   UNL     1       6.563  17.122  22.379  0.00  0.00    +0.000 HD
ENDBRANCH  19  21
BRANCH   1  23
ATOM     23  C   UNL     1       7.401  15.343  17.773  0.00  0.00    +0.000 C 
BRANCH  23  25
ATOM     24  C   UNL     1       5.385  15.805  19.252  0.00  0.00    +0.000 C 
ATOM     25  C   UNL     1       6.221  14.743  18.547  0.00  0.00    +0.000 C 
ENDBRANCH  23  25
ENDBRANCH   1  23
BRANCH  19  26
ATOM     26  C   UNL     1       6.908  14.407  22.289  0.00  0.00    +0.000 C 
BRANCH  26  27
ATOM     27  C   UNL     1       6.036  13.769  23.399  0.00  0.00    +0.000 C 
BRANCH  27  28
ATOM     28  C   UNL     1       6.351  12.265  23.544  0.00  0.00    +0.000 C 
ATOM     29  O   UNL     1       7.333  11.720  23.051  0.00  0.00    +0.000 OA
BRANCH  28  30
ATOM     30  O   UNL     1       5.446  11.561  24.253  0.00  0.00    +0.000 OA
ATOM     31  H   UNL     1       4.761  12.096  24.690  0.00  0.00    +0.000 HD
ENDBRANCH  28  30
ENDBRANCH  27  28
ENDBRANCH  26  27
ENDBRANCH  19  26
TORSDOF 7
ENDMDL
MODEL 4
REMARK VINA RESULT:      -6.4      8.756     12.074
REMARK  Name = 
REMARK  10 active torsions:
REMARK  status: ('A' for Active; 'I' for Inactive)
REMARK    1  A    between atoms: C_1  and  C_2
REMARK    2  A    between atoms: C_2  and  C_3
REMARK    3  A    between atoms: C_3  and  C_4
REMARK    4  A    between atoms: C_12  and  C_13
REMARK    5  A    between atoms: C_17  and  C_18
REMARK    6  A    between atoms: C_22  and  O_23
REMARK    7  A    between atoms: C_22  and  C_24
REMARK    8  A    between atoms: C_24  and  C_25
REMARK    9  A    between atoms: C_25  and  C_26
REMARK   10  A    between atoms: C_26  and  O_28
REMARK                            x       y       z     vdW  Elec       q    Type
REMARK                         _______ _______ _______ _____ _____    ______ ____
ROOT
ATOM      1  C   UNL     1      -0.691  11.070  22.763  0.00  0.00    +0.000 C 
ATOM      2  C   UNL     1      -2.115  11.351  23.225  0.00  0.00    +0.000 C 
ATOM      3  C   UNL     1      -2.369  12.864  23.330  0.00  0.00    +0.000 C 
ATOM      4  C   UNL     1      -3.301  13.297  24.207  0.00  0.00    +0.000 C 
ATOM      5  C   UNL     1      -4.597  12.789  23.642  0.00  0.00    +0.000 C 
ATOM      6  O   UNL     1      -5.471  12.316  24.389  0.00  0.00    +0.000 OA
ATOM      7  C   UNL     1      -4.794  13.067  22.149  0.00  0.00    +0.000 C 
ATOM      8  C   UNL     1      -3.467  13.097  21.296  0.00  0.00    +0.000 C 
ATOM      9  C   UNL     1      -2.158  13.644  22.008  0.00  0.00    +0.000 C 
ATOM     10  C   UNL     1      -2.347  15.172  21.983  0.00  0.00    +0.000 C 
ATOM     11  C   UNL     1      -0.590  13.366  21.658  0.00  0.00    +0.000 C 
ATOM     12  C   UNL     1       0.323  13.933  20.485  0.00  0.00    +0.000 C 
ATOM     13  C   UNL     1       0.797  12.904  19.229  0.00  0.00    +0.000 C 
ATOM     14  C   UNL     1       0.092  11.337  19.139  0.00  0.00    +0.000 C 
ATOM     15  C   UNL     1       1.286  10.402  19.213  0.00  0.00    +0.000 C 
ATOM     16  C   UNL     1      -0.944  11.610  20.154  0.00  0.00    +0.000 C 
ATOM     17  C   UNL     1      -1.718  12.719  18.976  0.00  0.00    +0.000 C 
ATOM     18  C   UNL     1      -1.464  12.127  17.550  0.00  0.00    +0.000 C 
ATOM     19  C   UNL     1      -1.100  10.778  18.054  0.00  0.00    +0.000 C 
ATOM     20  C   UNL     1      -0.316  11.912  21.511  0.00  0.00    +0.000 C 
ENDROOT
BRANCH  19  21
ATOM     21  O   UNL     1      -0.584   9.858  17.137  0.00  0.00    +0.000 OA
ATOM     22  H   UNL     1       0.167  10.339  16.690  0.00  0.00    +0.000 HD
ENDBRANCH  19  21
BRANCH   1  23
ATOM     23  C   UNL     1      -0.440   9.537  22.680  0.00  0.00    +0.000 C 
BRANCH  23  25
ATOM     24  C   UNL     1       1.125   7.982  21.416  0.00  0.00    +0.000 C 
ATOM     25  C   UNL     1       1.015   9.138  22.403  0.00  0.00    +0.000 C 
ENDBRANCH  23  25
ENDBRANCH   1  23
BRANCH  19  26
ATOM     26  C   UNL     1      -2.596  10.171  18.623  0.00  0.00    +0.000 C 
BRANCH  26  27
ATOM     27  C   UNL     1      -3.785   9.854  17.683  0.00  0.00    +0.000 C 
BRANCH  27  28
ATOM     28  C   UNL     1      -4.883  10.932  17.808  0.00  0.00    +0.000 C 
ATOM     29  O   UNL     1      -5.372  11.292  18.874  0.00  0.00    +0.000 OA
BRANCH  28  30
ATOM     30  O   UNL     1      -5.296  11.461  16.639  0.00  0.00    +0.000 OA
ATOM     31  H   UNL     1      -4.890  12.316  16.409  0.00  0.00    +0.000 HD
ENDBRANCH  28  30
ENDBRANCH  27  28
ENDBRANCH  26  27
ENDBRANCH  19  26
TORSDOF 7
ENDMDL
MODEL 5
REMARK VINA RESULT:      -6.4      2.290      4.854
REMARK  Name = 
REMARK  10 active torsions:
REMARK  status: ('A' for Active; 'I' for Inactive)
REMARK    1  A    between atoms: C_1  and  C_2
REMARK    2  A    between atoms: C_2  and  C_3
REMARK    3  A    between atoms: C_3  and  C_4
REMARK    4  A    between atoms: C_12  and  C_13
REMARK    5  A    between atoms: C_17  and  C_18
REMARK    6  A    between atoms: C_22  and  O_23
REMARK    7  A    between atoms: C_22  and  C_24
REMARK    8  A    between atoms: C_24  and  C_25
REMARK    9  A    between atoms: C_25  and  C_26
REMARK   10  A    between atoms: C_26  and  O_28
REMARK                            x       y       z     vdW  Elec       q    Type
REMARK                         _______ _______ _______ _____ _____    ______ ____
ROOT
ATOM      1  C   UNL     1       9.670  12.221  21.493  0.00  0.00    +0.000 C 
ATOM      2  C   UNL     1       8.422  11.855  22.286  0.00  0.00    +0.000 C 
ATOM      3  C   UNL     1       8.369  12.630  23.614  0.00  0.00    +0.000 C 
ATOM      4  C   UNL     1       7.706  12.076  24.652  0.00  0.00    +0.000 C 
ATOM      5  C   UNL     1       6.269  12.085  24.214  0.00  0.00    +0.000 C 
ATOM      6  O   UNL     1       5.532  11.111  24.442  0.00  0.00    +0.000 OA
ATOM      7  C   UNL     1       5.783  13.424  23.649  0.00  0.00    +0.000 C 
ATOM      8  C   UNL     1       6.886  14.274  22.909  0.00  0.00    +0.000 C 
ATOM      9  C   UNL     1       8.372  14.172  23.458  0.00  0.00    +0.000 C 
ATOM     10  C   UNL     1       8.356  15.067  24.709  0.00  0.00    +0.000 C 
ATOM     11  C   UNL     1       9.785  14.466  22.696  0.00  0.00    +0.000 C 
ATOM     12  C   UNL     1      10.477  15.842  22.298  0.00  0.00    +0.000 C 
ATOM     13  C   UNL     1      10.546  16.297  20.672  0.00  0.00    +0.000 C 
ATOM     14  C   UNL     1       9.666  15.371  19.519  0.00  0.00    +0.000 C 
ATOM     15  C   UNL     1      10.734  14.897  18.550  0.00  0.00    +0.000 C 
ATOM     16  C   UNL     1       8.914  14.600  20.529  0.00  0.00    +0.000 C 
ATOM     17  C   UNL     1       8.032  16.109  20.932  0.00  0.00    +0.000 C 
ATOM     18  C   UNL     1       7.900  16.933  19.608  0.00  0.00    +0.000 C 
ATOM     19  C   UNL     1       8.211  15.778  18.728  0.00  0.00    +0.000 C 
ATOM     20  C   UNL     1       9.854  13.761  21.389  0.00  0.00    +0.000 C 
ENDROOT
BRANCH  19  21
ATOM     21  O   UNL     1       8.406  16.031  17.368  0.00  0.00    +0.000 OA
ATOM     22  H   UNL     1       7.624  15.609  16.916  0.00  0.00    +0.000 HD
ENDBRANCH  19  21
BRANCH   1  23
ATOM     23  C   UNL     1       9.722  11.415  20.163  0.00  0.00    +0.000 C 
BRANCH  23  25
ATOM     24  C   UNL     1      10.903  11.467  17.912  0.00  0.00    +0.000 C 
ATOM     25  C   UNL     1      11.066  11.476  19.427  0.00  0.00    +0.000 C 
ENDBRANCH  23  25
ENDBRANCH   1  23
BRANCH  19  26
ATOM     26  C   UNL     1       6.816  14.797  18.885  0.00  0.00    +0.000 C 
BRANCH  26  27
ATOM     27  C   UNL     1       5.820  14.562  17.723  0.00  0.00    +0.000 C 
BRANCH  27  28
ATOM     28  C   UNL     1       4.549  15.415  17.912  0.00  0.00    +0.000 C 
ATOM     29  O   UNL     1       4.351  16.146  18.877  0.00  0.00    +0.000 OA
BRANCH  28  30
ATOM     30  O   UNL     1       3.633  15.297  16.930  0.00  0.00    +0.000 OA
ATOM     31  H   UNL     1       2.724  15.130  17.234  0.00  0.00    +0.000 HD
ENDBRANCH  28  30
ENDBRANCH  27  28
ENDBRANCH  26  27
ENDBRANCH  19  26
TORSDOF 7
ENDMDL
MODEL 6
REMARK VINA RESULT:      -6.2      2.063      5.318
REMARK  Name = 
REMARK  10 active torsions:
REMARK  status: ('A' for Active; 'I' for Inactive)
REMARK    1  A    between atoms: C_1  and  C_2
REMARK    2  A    between atoms: C_2  and  C_3
REMARK    3  A    between atoms: C_3  and  C_4
REMARK    4  A    between atoms: C_12  and  C_13
REMARK    5  A    between atoms: C_17  and  C_18
REMARK    6  A    between atoms: C_22  and  O_23
REMARK    7  A    between atoms: C_22  and  C_24
REMARK    8  A    between atoms: C_24  and  C_25
REMARK    9  A    between atoms: C_25  and  C_26
REMARK   10  A    between atoms: C_26  and  O_28
REMARK                            x       y       z     vdW  Elec       q    Type
REMARK                         _______ _______ _______ _____ _____    ______ ____
ROOT
ATOM      1  C   UNL     1      10.000  12.704  21.766  0.00  0.00    +0.000 C 
ATOM      2  C   UNL     1       8.672  12.234  22.344  0.00  0.00    +0.000 C 
ATOM      3  C   UNL     1       8.267  13.089  23.558  0.00  0.00    +0.000 C 
ATOM      4  C   UNL     1       7.482  12.528  24.502  0.00  0.00    +0.000 C 
ATOM      5  C   UNL     1       6.169  12.313  23.805  0.00  0.00    +0.000 C 
ATOM      6  O   UNL     1       5.521  11.268  23.984  0.00  0.00    +0.000 OA
ATOM      7  C   UNL     1       5.651  13.530  23.033  0.00  0.00    +0.000 C 
ATOM      8  C   UNL     1       6.772  14.465  22.433  0.00  0.00    +0.000 C 
ATOM      9  C   UNL     1       8.121  14.601  23.257  0.00  0.00    +0.000 C 
ATOM     10  C   UNL     1       7.754  15.575  24.391  0.00  0.00    +0.000 C 
ATOM     11  C   UNL     1       9.612  15.026  22.748  0.00  0.00    +0.000 C 
ATOM     12  C   UNL     1      10.204  16.449  22.355  0.00  0.00    +0.000 C 
ATOM     13  C   UNL     1      10.538  16.792  20.734  0.00  0.00    +0.000 C 
ATOM     14  C   UNL     1      10.018  15.675  19.532  0.00  0.00    +0.000 C 
ATOM     15  C   UNL     1      11.304  15.279  18.830  0.00  0.00    +0.000 C 
ATOM     16  C   UNL     1       9.177  14.887  20.454  0.00  0.00    +0.000 C 
ATOM     17  C   UNL     1       8.062  16.289  20.538  0.00  0.00    +0.000 C 
ATOM     18  C   UNL     1       8.098  16.991  19.139  0.00  0.00    +0.000 C 
ATOM     19  C   UNL     1       8.710  15.827  18.448  0.00  0.00    +0.000 C 
ATOM     20  C   UNL     1      10.020  14.244  21.550  0.00  0.00    +0.000 C 
ENDROOT
BRANCH  19  21
ATOM     21  O   UNL     1       9.139  16.006  17.130  0.00  0.00    +0.000 OA
ATOM     22  H   UNL     1       8.324  15.855  16.575  0.00  0.00    +0.000 HD
ENDBRANCH  19  21
BRANCH   1  23
ATOM     23  C   UNL     1      10.407  11.819  20.554  0.00  0.00    +0.000 C 
BRANCH  23  25
ATOM     24  C   UNL     1      12.122  11.534  18.697  0.00  0.00    +0.000 C 
ATOM     25  C   UNL     1      11.884  11.918  20.153  0.00  0.00    +0.000 C 
ENDBRANCH  23  25
ENDBRANCH   1  23
BRANCH  19  26
ATOM     26  C   UNL     1       7.436  14.683  18.436  0.00  0.00    +0.000 C 
BRANCH  26  27
ATOM     27  C   UNL     1       7.330  13.556  17.379  0.00  0.00    +0.000 C 
BRANCH  27  28
ATOM     28  C   UNL     1       8.542  12.605  17.471  0.00  0.00    +0.000 C 
ATOM     29  O   UNL     1       9.694  12.936  17.209  0.00  0.00    +0.000 OA
BRANCH  28  30
ATOM     30  O   UNL     1       8.250  11.347  17.854  0.00  0.00    +0.000 OA
ATOM     31  H   UNL     1       7.311  11.102  17.778  0.00  0.00    +0.000 HD
ENDBRANCH  28  30
ENDBRANCH  27  28
ENDBRANCH  26  27
ENDBRANCH  19  26
TORSDOF 7
ENDMDL
MODEL 7
REMARK VINA RESULT:      -6.1      8.403     12.032
REMARK  Name = 
REMARK  10 active torsions:
REMARK  status: ('A' for Active; 'I' for Inactive)
REMARK    1  A    between atoms: C_1  and  C_2
REMARK    2  A    between atoms: C_2  and  C_3
REMARK    3  A    between atoms: C_3  and  C_4
REMARK    4  A    between atoms: C_12  and  C_13
REMARK    5  A    between atoms: C_17  and  C_18
REMARK    6  A    between atoms: C_22  and  O_23
REMARK    7  A    between atoms: C_22  and  C_24
REMARK    8  A    between atoms: C_24  and  C_25
REMARK    9  A    between atoms: C_25  and  C_26
REMARK   10  A    between atoms: C_26  and  O_28
REMARK                            x       y       z     vdW  Elec       q    Type
REMARK                         _______ _______ _______ _____ _____    ______ ____
ROOT
ATOM      1  C   UNL     1      -1.141  11.491  23.126  0.00  0.00    +0.000 C 
ATOM      2  C   UNL     1      -2.589  11.909  23.349  0.00  0.00    +0.000 C 
ATOM      3  C   UNL     1      -2.705  13.437  23.482  0.00  0.00    +0.000 C 
ATOM      4  C   UNL     1      -3.728  13.941  24.206  0.00  0.00    +0.000 C 
ATOM      5  C   UNL     1      -4.949  13.592  23.403  0.00  0.00    +0.000 C 
ATOM      6  O   UNL     1      -5.983  13.194  23.965  0.00  0.00    +0.000 OA
ATOM      7  C   UNL     1      -4.852  13.934  21.913  0.00  0.00    +0.000 C 
ATOM      8  C   UNL     1      -3.399  13.847  21.304  0.00  0.00    +0.000 C 
ATOM      9  C   UNL     1      -2.188  14.229  22.255  0.00  0.00    +0.000 C 
ATOM     10  C   UNL     1      -2.214  15.768  22.272  0.00  0.00    +0.000 C 
ATOM     11  C   UNL     1      -0.617  13.795  22.166  0.00  0.00    +0.000 C 
ATOM     12  C   UNL     1       0.539  14.295  21.196  0.00  0.00    +0.000 C 
ATOM     13  C   UNL     1       1.121  13.260  19.992  0.00  0.00    +0.000 C 
ATOM     14  C   UNL     1       0.289  11.781  19.707  0.00  0.00    +0.000 C 
ATOM     15  C   UNL     1       1.351  10.721  19.940  0.00  0.00    +0.000 C 
ATOM     16  C   UNL     1      -0.877  12.133  20.541  0.00  0.00    +0.000 C 
ATOM     17  C   UNL     1      -1.316  13.354  19.302  0.00  0.00    +0.000 C 
ATOM     18  C   UNL     1      -0.876  12.780  17.914  0.00  0.00    +0.000 C 
ATOM     19  C   UNL     1      -0.743  11.386  18.408  0.00  0.00    +0.000 C 
ATOM     20  C   UNL     1      -0.470  12.325  21.998  0.00  0.00    +0.000 C 
ENDROOT
BRANCH  19  21
ATOM     21  O   UNL     1      -0.170  10.444  17.549  0.00  0.00    +0.000 OA
ATOM     22  H   UNL     1      -0.130  10.899  16.662  0.00  0.00    +0.000 HD
ENDBRANCH  19  21
BRANCH   1  23
ATOM     23  C   UNL     1      -1.035   9.943  23.013  0.00  0.00    +0.000 C 
BRANCH  23  25
ATOM     24  C   UNL     1       0.652   8.370  21.944  0.00  0.00    +0.000 C 
ATOM     25  C   UNL     1       0.396   9.393  23.044  0.00  0.00    +0.000 C 
ENDBRANCH  23  25
ENDBRANCH   1  23
BRANCH  19  26
ATOM     26  C   UNL     1      -2.370  10.926  18.682  0.00  0.00    +0.000 C 
BRANCH  26  27
ATOM     27  C   UNL     1      -3.152   9.996  17.721  0.00  0.00    +0.000 C 
BRANCH  27  28
ATOM     28  C   UNL     1      -3.657  10.781  16.492  0.00  0.00    +0.000 C 
ATOM     29  O   UNL     1      -2.960  11.056  15.521  0.00  0.00    +0.000 OA
BRANCH  28  30
ATOM     30  O   UNL     1      -4.946  11.171  16.557  0.00  0.00    +0.000 OA
ATOM     31  H   UNL     1      -5.524  10.793  15.872  0.00  0.00    +0.000 HD
ENDBRANCH  28  30
ENDBRANCH  27  28
ENDBRANCH  26  27
ENDBRANCH  19  26
TORSDOF 7
ENDMDL
MODEL 8
REMARK VINA RESULT:      -6.0      7.169     11.322
REMARK  Name = 
REMARK  10 active torsions:
REMARK  status: ('A' for Active; 'I' for Inactive)
REMARK    1  A    between atoms: C_1  and  C_2
REMARK    2  A    between atoms: C_2  and  C_3
REMARK    3  A    between atoms: C_3  and  C_4
REMARK    4  A    between atoms: C_12  and  C_13
REMARK    5  A    between atoms: C_17  and  C_18
REMARK    6  A    between atoms: C_22  and  O_23
REMARK    7  A    between atoms: C_22  and  C_24
REMARK    8  A    between atoms: C_24  and  C_25
REMARK    9  A    between atoms: C_25  and  C_26
REMARK   10  A    between atoms: C_26  and  O_28
REMARK                            x       y       z     vdW  Elec       q    Type
REMARK                         _______ _______ _______ _____ _____    ______ ____
ROOT
ATOM      1  C   UNL     1      -1.021  12.210  22.713  0.00  0.00    +0.000 C 
ATOM      2  C   UNL     1      -2.484  12.064  22.315  0.00  0.00    +0.000 C 
ATOM      3  C   UNL     1      -3.334  13.190  22.928  0.00  0.00    +0.000 C 
ATOM      4  C   UNL     1      -4.641  12.948  23.165  0.00  0.00    +0.000 C 
ATOM      5  C   UNL     1      -5.240  12.799  21.795  0.00  0.00    +0.000 C 
ATOM      6  O   UNL     1      -6.085  11.917  21.566  0.00  0.00    +0.000 OA
ATOM      7  C   UNL     1      -4.855  13.905  20.808  0.00  0.00    +0.000 C 
ATOM      8  C   UNL     1      -3.422  14.527  21.031  0.00  0.00    +0.000 C 
ATOM      9  C   UNL     1      -2.894  14.619  22.524  0.00  0.00    +0.000 C 
ATOM     10  C   UNL     1      -3.639  15.839  23.095  0.00  0.00    +0.000 C 
ATOM     11  C   UNL     1      -1.363  14.709  23.083  0.00  0.00    +0.000 C 
ATOM     12  C   UNL     1      -0.337  15.925  23.093  0.00  0.00    +0.000 C 
ATOM     13  C   UNL     1       1.002  15.890  22.061  0.00  0.00    +0.000 C 
ATOM     14  C   UNL     1       1.093  14.651  20.871  0.00  0.00    +0.000 C 
ATOM     15  C   UNL     1       2.394  13.938  21.194  0.00  0.00    +0.000 C 
ATOM     16  C   UNL     1      -0.297  14.191  21.066  0.00  0.00    +0.000 C 
ATOM     17  C   UNL     1      -0.845  15.734  20.332  0.00  0.00    +0.000 C 
ATOM     18  C   UNL     1       0.219  16.135  19.257  0.00  0.00    +0.000 C 
ATOM     19  C   UNL     1       0.826  14.781  19.191  0.00  0.00    +0.000 C 
ATOM     20  C   UNL     1      -0.503  13.657  22.480  0.00  0.00    +0.000 C 
ENDROOT
BRANCH  19  21
ATOM     21  O   UNL     1       2.008  14.633  18.459  0.00  0.00    +0.000 OA
ATOM     22  H   UNL     1       1.747  14.818  17.515  0.00  0.00    +0.000 HD
ENDBRANCH  19  21
BRANCH   1  23
ATOM     23  C   UNL     1      -0.176  11.054  22.104  0.00  0.00    +0.000 C 
BRANCH  23  25
ATOM     24  C   UNL     1      -0.409   8.530  21.906  0.00  0.00    +0.000 C 
ATOM     25  C   UNL     1      -0.281   9.719  22.851  0.00  0.00    +0.000 C 
ENDBRANCH  23  25
ENDBRANCH   1  23
BRANCH  19  26
ATOM     26  C   UNL     1      -0.391  13.859  18.416  0.00  0.00    +0.000 C 
BRANCH  26  27
ATOM     27  C   UNL     1      -0.504  12.322  18.568  0.00  0.00    +0.000 C 
BRANCH  27  28
ATOM     28  C   UNL     1      -1.860  11.818  18.032  0.00  0.00    +0.000 C 
ATOM     29  O   UNL     1      -2.806  11.506  18.746  0.00  0.00    +0.000 OA
BRANCH  28  30
ATOM     30  O   UNL     1      -1.940  11.722  16.690  0.00  0.00    +0.000 OA
ATOM     31  H   UNL     1      -2.296  10.879  16.358  0.00  0.00    +0.000 HD
ENDBRANCH  28  30
ENDBRANCH  27  28
ENDBRANCH  26  27
ENDBRANCH  19  26
TORSDOF 7
ENDMDL
MODEL 9
REMARK VINA RESULT:      -5.8      7.221     11.316
REMARK  Name = 
REMARK  10 active torsions:
REMARK  status: ('A' for Active; 'I' for Inactive)
REMARK    1  A    between atoms: C_1  and  C_2
REMARK    2  A    between atoms: C_2  and  C_3
REMARK    3  A    between atoms: C_3  and  C_4
REMARK    4  A    between atoms: C_12  and  C_13
REMARK    5  A    between atoms: C_17  and  C_18
REMARK    6  A    between atoms: C_22  and  O_23
REMARK    7  A    between atoms: C_22  and  C_24
REMARK    8  A    between atoms: C_24  and  C_25
REMARK    9  A    between atoms: C_25  and  C_26
REMARK   10  A    between atoms: C_26  and  O_28
REMARK                            x       y       z     vdW  Elec       q    Type
REMARK                         _______ _______ _______ _____ _____    ______ ____
ROOT
ATOM      1  C   UNL     1      -1.061  12.319  22.873  0.00  0.00    +0.000 C 
ATOM      2  C   UNL     1      -2.534  12.114  22.545  0.00  0.00    +0.000 C 
ATOM      3  C   UNL     1      -3.371  13.320  23.004  0.00  0.00    +0.000 C 
ATOM      4  C   UNL     1      -4.669  13.117  23.315  0.00  0.00    +0.000 C 
ATOM      5  C   UNL     1      -5.307  12.761  22.002  0.00  0.00    +0.000 C 
ATOM      6  O   UNL     1      -6.155  11.854  21.936  0.00  0.00    +0.000 OA
ATOM      7  C   UNL     1      -4.957  13.703  20.846  0.00  0.00    +0.000 C 
ATOM      8  C   UNL     1      -3.521  14.352  20.928  0.00  0.00    +0.000 C 
ATOM      9  C   UNL     1      -2.949  14.671  22.374  0.00  0.00    +0.000 C 
ATOM     10  C   UNL     1      -3.683  15.964  22.774  0.00  0.00    +0.000 C 
ATOM     11  C   UNL     1      -1.403  14.845  22.866  0.00  0.00    +0.000 C 
ATOM     12  C   UNL     1      -0.383  16.048  22.660  0.00  0.00    +0.000 C 
ATOM     13  C   UNL     1       0.925  15.856  21.606  0.00  0.00    +0.000 C 
ATOM     14  C   UNL     1       0.987  14.449  20.617  0.00  0.00    +0.000 C 
ATOM     15  C   UNL     1       2.300  13.795  21.006  0.00  0.00    +0.000 C 
ATOM     16  C   UNL     1      -0.395  14.025  20.922  0.00  0.00    +0.000 C 
ATOM     17  C   UNL     1      -0.971  15.437  19.977  0.00  0.00    +0.000 C 
ATOM     18  C   UNL     1       0.059  15.670  18.822  0.00  0.00    +0.000 C 
ATOM     19  C   UNL     1       0.670  14.322  18.946  0.00  0.00    +0.000 C 
ATOM     20  C   UNL     1      -0.556  13.713  22.406  0.00  0.00    +0.000 C 
ENDROOT
BRANCH  19  21
ATOM     21  O   UNL     1       1.830  14.063  18.210  0.00  0.00    +0.000 OA
ATOM     22  H   UNL     1       1.895  13.068  18.180  0.00  0.00    +0.000 HD
ENDBRANCH  19  21
BRANCH   1  23
ATOM     23  C   UNL     1      -0.229  11.084  22.423  0.00  0.00    +0.000 C 
BRANCH  23  25
ATOM     24  C   UNL     1      -0.443   8.581  22.025  0.00  0.00    +0.000 C 
ATOM     25  C   UNL     1      -0.722   9.741  22.974  0.00  0.00    +0.000 C 
ENDBRANCH  23  25
ENDBRANCH   1  23
BRANCH  19  26
ATOM     26  C   UNL     1      -0.565  13.292  18.358  0.00  0.00    +0.000 C 
BRANCH  26  27
ATOM     27  C   UNL     1      -0.825  11.879  18.936  0.00  0.00    +0.000 C 
BRANCH  27  28
ATOM     28  C   UNL     1       0.306  10.908  18.536  0.00  0.00    +0.000 C 
ATOM     29  O   UNL     1       1.453  10.979  18.965  0.00  0.00    +0.000 OA
BRANCH  28  30
ATOM     30  O   UNL     1      -0.048   9.958  17.648  0.00  0.00    +0.000 OA
ATOM     31  H   UNL     1       0.021  10.222  16.714  0.00  0.00    +0.000 HD
ENDBRANCH  28  30
ENDBRANCH  27  28
ENDBRANCH  26  27
ENDBRANCH  19  26
TORSDOF 7
ENDMDL
