MODEL 1
REMARK VINA RESULT:      -6.0      0.000      0.000
REMARK  Name = 
REMARK  11 active torsions:
REMARK  status: ('A' for Active; 'I' for Inactive)
REMARK    1  A    between atoms: C_1  and  O_2
REMARK    2  A    between atoms: O_2  and  C_3
REMARK    3  A    between atoms: C_3  and  C_4
REMARK    4  A    between atoms: C_4  and  O_5
REMARK    5  A    between atoms: O_5  and  C_6
REMARK    6  A    between atoms: C_6  and  C_7
REMARK    7  A    between atoms: C_7  and  O_8
REMARK    8  A    between atoms: O_8  and  C_9
REMARK    9  A    between atoms: C_9  and  C_11
REMARK   10  A    between atoms: C_12  and  C_13
REMARK   11  A    between atoms: C_17  and  O_18
REMARK                            x       y       z     vdW  Elec       q    Type
REMARK                         _______ _______ _______ _____ _____    ______ ____
ROOT
ATOM      1  C   UNL     1       4.663   6.010  17.642  0.00  0.00    +0.000 C 
ATOM      2  C   UNL     1       3.389   5.616  17.495  0.00  0.00    +0.000 C 
ENDROOT
BRANCH   2   3
ATOM      3  C   UNL     1       2.680   4.796  18.461  0.00  0.00    +0.000 A 
ATOM      4  C   UNL     1       1.793   3.857  18.093  0.00  0.00    +0.000 A 
ATOM      5  C   UNL     1       1.094   3.092  19.142  0.00  0.00    +0.000 A 
ATOM      6  O   UNL     1       0.254   2.233  18.879  0.00  0.00    +0.000 OA
ATOM      7  C   UNL     1       1.437   3.399  20.548  0.00  0.00    +0.000 A 
ATOM      8  C   UNL     1       2.353   4.345  20.775  0.00  0.00    +0.000 A 
ATOM      9  O   UNL     1       2.995   5.052  19.790  0.00  0.00    +0.000 OA
BRANCH   7  10
ATOM     10  O   UNL     1       0.795   2.723  21.565  0.00  0.00    +0.000 OA
ATOM     11  H   UNL     1      -0.025   3.233  21.733  0.00  0.00    +0.000 HD
ENDBRANCH   7  10
ENDBRANCH   2   3
BRANCH   1  12
ATOM     12  C   UNL     1       5.371   6.767  16.590  0.00  0.00    +0.000 C 
ATOM     13  O   UNL     1       4.884   7.169  15.548  0.00  0.00    +0.000 OA
BRANCH  12  14
ATOM     14  O   UNL     1       6.684   6.779  16.934  0.00  0.00    +0.000 OA
BRANCH  14  15
ATOM     15  C   UNL     1       7.216   5.496  17.270  0.00  0.00    +0.000 C 
BRANCH  15  16
ATOM     16  C   UNL     1       7.351   4.567  16.073  0.00  0.00    +0.000 C 
BRANCH  16  17
ATOM     17  O   UNL     1       7.786   5.351  14.956  0.00  0.00    +0.000 OA
BRANCH  17  18
ATOM     18  C   UNL     1       7.203   4.913  13.731  0.00  0.00    +0.000 C 
BRANCH  18  19
ATOM     19  C   UNL     1       5.908   4.154  14.013  0.00  0.00    +0.000 C 
BRANCH  19  21
ATOM     20  C   UNL     1       6.631   3.348  11.915  0.00  0.00    +0.000 C 
ATOM     21  O   UNL     1       5.678   3.214  12.961  0.00  0.00    +0.000 OA
ENDBRANCH  19  21
ENDBRANCH  18  19
ENDBRANCH  17  18
ENDBRANCH  16  17
ENDBRANCH  15  16
ENDBRANCH  14  15
ENDBRANCH  12  14
ENDBRANCH   1  12
TORSDOF 10
ENDMDL
MODEL 2
REMARK VINA RESULT:      -5.9      1.936      6.964
REMARK  Name = 
REMARK  11 active torsions:
REMARK  status: ('A' for Active; 'I' for Inactive)
REMARK    1  A    between atoms: C_1  and  O_2
REMARK    2  A    between atoms: O_2  and  C_3
REMARK    3  A    between atoms: C_3  and  C_4
REMARK    4  A    between atoms: C_4  and  O_5
REMARK    5  A    between atoms: O_5  and  C_6
REMARK    6  A    between atoms: C_6  and  C_7
REMARK    7  A    between atoms: C_7  and  O_8
REMARK    8  A    between atoms: O_8  and  C_9
REMARK    9  A    between atoms: C_9  and  C_11
REMARK   10  A    between atoms: C_12  and  C_13
REMARK   11  A    between atoms: C_17  and  O_18
REMARK                            x       y       z     vdW  Elec       q    Type
REMARK                         _______ _______ _______ _____ _____    ______ ____
ROOT
ATOM      1  C   UNL     1       2.856   3.509  17.570  0.00  0.00    +0.000 C 
ATOM      2  C   UNL     1       4.140   3.670  17.926  0.00  0.00    +0.000 C 
ENDROOT
BRANCH   2   3
ATOM      3  C   UNL     1       5.164   4.196  17.042  0.00  0.00    +0.000 A 
ATOM      4  C   UNL     1       5.934   5.244  17.377  0.00  0.00    +0.000 A 
ATOM      5  C   UNL     1       6.928   5.734  16.404  0.00  0.00    +0.000 A 
ATOM      6  O   UNL     1       7.651   6.701  16.635  0.00  0.00    +0.000 OA
ATOM      7  C   UNL     1       7.027   5.015  15.114  0.00  0.00    +0.000 A 
ATOM      8  C   UNL     1       6.214   3.973  14.917  0.00  0.00    +0.000 A 
ATOM      9  O   UNL     1       5.290   3.529  15.829  0.00  0.00    +0.000 OA
BRANCH   7  10
ATOM     10  O   UNL     1       7.929   5.448  14.165  0.00  0.00    +0.000 OA
ATOM     11  H   UNL     1       8.532   4.689  14.021  0.00  0.00    +0.000 HD
ENDBRANCH   7  10
ENDBRANCH   2   3
BRANCH   1  12
ATOM     12  C   UNL     1       1.870   2.884  18.474  0.00  0.00    +0.000 C 
ATOM     13  O   UNL     1       0.748   2.522  18.167  0.00  0.00    +0.000 OA
BRANCH  12  14
ATOM     14  O   UNL     1       2.393   2.946  19.725  0.00  0.00    +0.000 OA
BRANCH  14  15
ATOM     15  C   UNL     1       1.675   3.797  20.622  0.00  0.00    +0.000 C 
BRANCH  15  16
ATOM     16  C   UNL     1       2.358   5.135  20.860  0.00  0.00    +0.000 C 
BRANCH  16  17
ATOM     17  O   UNL     1       1.380   6.166  20.676  0.00  0.00    +0.000 OA
BRANCH  17  18
ATOM     18  C   UNL     1       1.932   7.327  20.060  0.00  0.00    +0.000 C 
BRANCH  18  19
ATOM     19  C   UNL     1       2.704   6.933  18.802  0.00  0.00    +0.000 C 
BRANCH  19  21
ATOM     20  C   UNL     1       1.776   9.001  18.144  0.00  0.00    +0.000 C 
ATOM     21  O   UNL     1       2.841   8.078  17.959  0.00  0.00    +0.000 OA
ENDBRANCH  19  21
ENDBRANCH  18  19
ENDBRANCH  17  18
ENDBRANCH  16  17
ENDBRANCH  15  16
ENDBRANCH  14  15
ENDBRANCH  12  14
ENDBRANCH   1  12
TORSDOF 10
ENDMDL
MODEL 3
REMARK VINA RESULT:      -5.9      1.848      2.512
REMARK  Name = 
REMARK  11 active torsions:
REMARK  status: ('A' for Active; 'I' for Inactive)
REMARK    1  A    between atoms: C_1  and  O_2
REMARK    2  A    between atoms: O_2  and  C_3
REMARK    3  A    between atoms: C_3  and  C_4
REMARK    4  A    between atoms: C_4  and  O_5
REMARK    5  A    between atoms: O_5  and  C_6
REMARK    6  A    between atoms: C_6  and  C_7
REMARK    7  A    between atoms: C_7  and  O_8
REMARK    8  A    between atoms: O_8  and  C_9
REMARK    9  A    between atoms: C_9  and  C_11
REMARK   10  A    between atoms: C_12  and  C_13
REMARK   11  A    between atoms: C_17  and  O_18
REMARK                            x       y       z     vdW  Elec       q    Type
REMARK                         _______ _______ _______ _____ _____    ______ ____
ROOT
ATOM      1  C   UNL     1       4.525   5.576  16.998  0.00  0.00    +0.000 C 
ATOM      2  C   UNL     1       4.479   4.313  17.450  0.00  0.00    +0.000 C 
ENDROOT
BRANCH   2   3
ATOM      3  C   UNL     1       3.615   3.871  18.530  0.00  0.00    +0.000 A 
ATOM      4  C   UNL     1       4.086   3.218  19.604  0.00  0.00    +0.000 A 
ATOM      5  C   UNL     1       3.131   2.777  20.640  0.00  0.00    +0.000 A 
ATOM      6  O   UNL     1       3.489   2.156  21.639  0.00  0.00    +0.000 OA
ATOM      7  C   UNL     1       1.704   3.107  20.432  0.00  0.00    +0.000 A 
ATOM      8  C   UNL     1       1.374   3.781  19.326  0.00  0.00    +0.000 A 
ATOM      9  O   UNL     1       2.270   4.183  18.368  0.00  0.00    +0.000 OA
BRANCH   7  10
ATOM     10  O   UNL     1       0.772   2.699  21.364  0.00  0.00    +0.000 OA
ATOM     11  H   UNL     1       0.137   2.146  20.863  0.00  0.00    +0.000 HD
ENDBRANCH   7  10
ENDBRANCH   2   3
BRANCH   1  12
ATOM     12  C   UNL     1       5.485   5.997  15.959  0.00  0.00    +0.000 C 
ATOM     13  O   UNL     1       5.365   6.960  15.222  0.00  0.00    +0.000 OA
BRANCH  12  14
ATOM     14  O   UNL     1       6.427   5.023  15.880  0.00  0.00    +0.000 OA
BRANCH  14  15
ATOM     15  C   UNL     1       6.845   4.715  14.548  0.00  0.00    +0.000 C 
BRANCH  15  16
ATOM     16  C   UNL     1       6.026   3.608  13.900  0.00  0.00    +0.000 C 
BRANCH  16  17
ATOM     17  O   UNL     1       6.509   3.431  12.563  0.00  0.00    +0.000 OA
BRANCH  17  18
ATOM     18  C   UNL     1       5.569   2.746  11.738  0.00  0.00    +0.000 C 
BRANCH  18  19
ATOM     19  C   UNL     1       4.282   3.561  11.626  0.00  0.00    +0.000 C 
BRANCH  19  21
ATOM     20  C   UNL     1       2.988   4.078   9.720  0.00  0.00    +0.000 C 
ATOM     21  O   UNL     1       3.492   3.043  10.554  0.00  0.00    +0.000 OA
ENDBRANCH  19  21
ENDBRANCH  18  19
ENDBRANCH  17  18
ENDBRANCH  16  17
ENDBRANCH  15  16
ENDBRANCH  14  15
ENDBRANCH  12  14
ENDBRANCH   1  12
TORSDOF 10
ENDMDL
MODEL 4
REMARK VINA RESULT:      -5.8      2.939      5.798
REMARK  Name = 
REMARK  11 active torsions:
REMARK  status: ('A' for Active; 'I' for Inactive)
REMARK    1  A    between atoms: C_1  and  O_2
REMARK    2  A    between atoms: O_2  and  C_3
REMARK    3  A    between atoms: C_3  and  C_4
REMARK    4  A    between atoms: C_4  and  O_5
REMARK    5  A    between atoms: O_5  and  C_6
REMARK    6  A    between atoms: C_6  and  C_7
REMARK    7  A    between atoms: C_7  and  O_8
REMARK    8  A    between atoms: O_8  and  C_9
REMARK    9  A    between atoms: C_9  and  C_11
REMARK   10  A    between atoms: C_12  and  C_13
REMARK   11  A    between atoms: C_17  and  O_18
REMARK                            x       y       z     vdW  Elec       q    Type
REMARK                         _______ _______ _______ _____ _____    ______ ____
ROOT
ATOM      1  C   UNL     1       1.326   4.514  20.543  0.00  0.00    +0.000 C 
ATOM      2  C   UNL     1       2.178   5.547  20.630  0.00  0.00    +0.000 C 
ENDROOT
BRANCH   2   3
ATOM      3  C   UNL     1       1.900   6.871  20.103  0.00  0.00    +0.000 A 
ATOM      4  C   UNL     1       2.271   7.245  18.867  0.00  0.00    +0.000 A 
ATOM      5  C   UNL     1       1.977   8.621  18.425  0.00  0.00    +0.000 A 
ATOM      6  O   UNL     1       2.306   9.038  17.316  0.00  0.00    +0.000 OA
ATOM      7  C   UNL     1       1.265   9.502  19.376  0.00  0.00    +0.000 A 
ATOM      8  C   UNL     1       0.935   8.997  20.568  0.00  0.00    +0.000 A 
ATOM      9  O   UNL     1       1.217   7.716  20.970  0.00  0.00    +0.000 OA
BRANCH   7  10
ATOM     10  O   UNL     1       0.985  10.804  19.014  0.00  0.00    +0.000 OA
ATOM     11  H   UNL     1       1.016  11.314  19.851  0.00  0.00    +0.000 HD
ENDBRANCH   7  10
ENDBRANCH   2   3
BRANCH   1  12
ATOM     12  C   UNL     1       1.689   3.163  21.013  0.00  0.00    +0.000 C 
ATOM     13  O   UNL     1       2.115   2.881  22.119  0.00  0.00    +0.000 OA
BRANCH  12  14
ATOM     14  O   UNL     1       1.612   2.341  19.935  0.00  0.00    +0.000 OA
BRANCH  14  15
ATOM     15  C   UNL     1       2.852   2.150  19.250  0.00  0.00    +0.000 C 
BRANCH  15  16
ATOM     16  C   UNL     1       2.852   2.710  17.836  0.00  0.00    +0.000 C 
BRANCH  16  17
ATOM     17  O   UNL     1       3.817   3.768  17.784  0.00  0.00    +0.000 OA
BRANCH  17  18
ATOM     18  C   UNL     1       4.768   3.682  18.842  0.00  0.00    +0.000 C 
BRANCH  18  19
ATOM     19  C   UNL     1       5.451   5.034  19.040  0.00  0.00    +0.000 C 
BRANCH  19  21
ATOM     20  C   UNL     1       6.532   6.482  17.522  0.00  0.00    +0.000 C 
ATOM     21  O   UNL     1       5.326   5.802  17.841  0.00  0.00    +0.000 OA
ENDBRANCH  19  21
ENDBRANCH  18  19
ENDBRANCH  17  18
ENDBRANCH  16  17
ENDBRANCH  15  16
ENDBRANCH  14  15
ENDBRANCH  12  14
ENDBRANCH   1  12
TORSDOF 10
ENDMDL
MODEL 5
REMARK VINA RESULT:      -5.7      3.504      5.392
REMARK  Name = 
REMARK  11 active torsions:
REMARK  status: ('A' for Active; 'I' for Inactive)
REMARK    1  A    between atoms: C_1  and  O_2
REMARK    2  A    between atoms: O_2  and  C_3
REMARK    3  A    between atoms: C_3  and  C_4
REMARK    4  A    between atoms: C_4  and  O_5
REMARK    5  A    between atoms: O_5  and  C_6
REMARK    6  A    between atoms: C_6  and  C_7
REMARK    7  A    between atoms: C_7  and  O_8
REMARK    8  A    between atoms: O_8  and  C_9
REMARK    9  A    between atoms: C_9  and  C_11
REMARK   10  A    between atoms: C_12  and  C_13
REMARK   11  A    between atoms: C_17  and  O_18
REMARK                            x       y       z     vdW  Elec       q    Type
REMARK                         _______ _______ _______ _____ _____    ______ ____
ROOT
ATOM      1  C   UNL     1       5.761   5.200  17.163  0.00  0.00    +0.000 C 
ATOM      2  C   UNL     1       5.396   4.204  17.985  0.00  0.00    +0.000 C 
ENDROOT
BRANCH   2   3
ATOM      3  C   UNL     1       4.065   4.068  18.549  0.00  0.00    +0.000 A 
ATOM      4  C   UNL     1       3.134   3.267  18.007  0.00  0.00    +0.000 A 
ATOM      5  C   UNL     1       1.796   3.215  18.627  0.00  0.00    +0.000 A 
ATOM      6  O   UNL     1       0.889   2.521  18.172  0.00  0.00    +0.000 OA
ATOM      7  C   UNL     1       1.575   4.041  19.835  0.00  0.00    +0.000 A 
ATOM      8  C   UNL     1       2.596   4.778  20.282  0.00  0.00    +0.000 A 
ATOM      9  O   UNL     1       3.835   4.821  19.694  0.00  0.00    +0.000 OA
BRANCH   7  10
ATOM     10  O   UNL     1       0.335   4.039  20.439  0.00  0.00    +0.000 OA
ATOM     11  H   UNL     1       0.383   3.333  21.117  0.00  0.00    +0.000 HD
ENDBRANCH   7  10
ENDBRANCH   2   3
BRANCH   1  12
ATOM     12  C   UNL     1       7.151   5.348  16.687  0.00  0.00    +0.000 C 
ATOM     13  O   UNL     1       7.967   4.451  16.572  0.00  0.00    +0.000 OA
BRANCH  12  14
ATOM     14  O   UNL     1       7.381   6.680  16.565  0.00  0.00    +0.000 OA
BRANCH  14  15
ATOM     15  C   UNL     1       7.787   7.321  17.777  0.00  0.00    +0.000 C 
BRANCH  15  16
ATOM     16  C   UNL     1       7.809   8.839  17.678  0.00  0.00    +0.000 C 
BRANCH  16  17
ATOM     17  O   UNL     1       8.730   9.329  18.659  0.00  0.00    +0.000 OA
BRANCH  17  18
ATOM     18  C   UNL     1       9.209  10.634  18.343  0.00  0.00    +0.000 C 
BRANCH  18  19
ATOM     19  C   UNL     1      10.021  11.189  19.511  0.00  0.00    +0.000 C 
BRANCH  19  21
ATOM     20  C   UNL     1       9.846  12.522  21.452  0.00  0.00    +0.000 C 
ATOM     21  O   UNL     1       9.137  11.827  20.435  0.00  0.00    +0.000 OA
ENDBRANCH  19  21
ENDBRANCH  18  19
ENDBRANCH  17  18
ENDBRANCH  16  17
ENDBRANCH  15  16
ENDBRANCH  14  15
ENDBRANCH  12  14
ENDBRANCH   1  12
TORSDOF 10
ENDMDL
MODEL 6
REMARK VINA RESULT:      -5.7      2.982      4.931
REMARK  Name = 
REMARK  11 active torsions:
REMARK  status: ('A' for Active; 'I' for Inactive)
REMARK    1  A    between atoms: C_1  and  O_2
REMARK    2  A    between atoms: O_2  and  C_3
REMARK    3  A    between atoms: C_3  and  C_4
REMARK    4  A    between atoms: C_4  and  O_5
REMARK    5  A    between atoms: O_5  and  C_6
REMARK    6  A    between atoms: C_6  and  C_7
REMARK    7  A    between atoms: C_7  and  O_8
REMARK    8  A    between atoms: O_8  and  C_9
REMARK    9  A    between atoms: C_9  and  C_11
REMARK   10  A    between atoms: C_12  and  C_13
REMARK   11  A    between atoms: C_17  and  O_18
REMARK                            x       y       z     vdW  Elec       q    Type
REMARK                         _______ _______ _______ _____ _____    ______ ____
ROOT
ATOM      1  C   UNL     1       5.679   4.733  17.287  0.00  0.00    +0.000 C 
ATOM      2  C   UNL     1       5.476   4.256  18.525  0.00  0.00    +0.000 C 
ENDROOT
BRANCH   2   3
ATOM      3  C   UNL     1       4.162   4.079  19.117  0.00  0.00    +0.000 A 
ATOM      4  C   UNL     1       3.474   5.098  19.657  0.00  0.00    +0.000 A 
ATOM      5  C   UNL     1       2.160   4.822  20.267  0.00  0.00    +0.000 A 
ATOM      6  O   UNL     1       1.485   5.703  20.798  0.00  0.00    +0.000 OA
ATOM      7  C   UNL     1       1.671   3.426  20.223  0.00  0.00    +0.000 A 
ATOM      8  C   UNL     1       2.448   2.511  19.637  0.00  0.00    +0.000 A 
ATOM      9  O   UNL     1       3.671   2.780  19.076  0.00  0.00    +0.000 OA
BRANCH   7  10
ATOM     10  O   UNL     1       0.456   3.116  20.798  0.00  0.00    +0.000 OA
ATOM     11  H   UNL     1       0.074   3.978  21.066  0.00  0.00    +0.000 HD
ENDBRANCH   7  10
ENDBRANCH   2   3
BRANCH   1  12
ATOM     12  C   UNL     1       7.036   4.981  16.761  0.00  0.00    +0.000 C 
ATOM     13  O   UNL     1       7.989   4.227  16.856  0.00  0.00    +0.000 OA
BRANCH  12  14
ATOM     14  O   UNL     1       7.051   6.260  16.307  0.00  0.00    +0.000 OA
BRANCH  14  15
ATOM     15  C   UNL     1       7.032   7.250  17.338  0.00  0.00    +0.000 C 
BRANCH  15  16
ATOM     16  C   UNL     1       8.022   6.973  18.459  0.00  0.00    +0.000 C 
BRANCH  16  17
ATOM     17  O   UNL     1       8.591   8.225  18.860  0.00  0.00    +0.000 OA
BRANCH  17  18
ATOM     18  C   UNL     1       8.278   9.276  17.949  0.00  0.00    +0.000 C 
BRANCH  18  19
ATOM     19  C   UNL     1       9.069  10.532  18.311  0.00  0.00    +0.000 C 
BRANCH  19  21
ATOM     20  C   UNL     1      10.321  11.532  20.043  0.00  0.00    +0.000 C 
ATOM     21  O   UNL     1       9.461  10.460  19.683  0.00  0.00    +0.000 OA
ENDBRANCH  19  21
ENDBRANCH  18  19
ENDBRANCH  17  18
ENDBRANCH  16  17
ENDBRANCH  15  16
ENDBRANCH  14  15
ENDBRANCH  12  14
ENDBRANCH   1  12
TORSDOF 10
ENDMDL
MODEL 7
REMARK VINA RESULT:      -5.7      2.686      5.512
REMARK  Name = 
REMARK  11 active torsions:
REMARK  status: ('A' for Active; 'I' for Inactive)
REMARK    1  A    between atoms: C_1  and  O_2
REMARK    2  A    between atoms: O_2  and  C_3
REMARK    3  A    between atoms: C_3  and  C_4
REMARK    4  A    between atoms: C_4  and  O_5
REMARK    5  A    between atoms: O_5  and  C_6
REMARK    6  A    between atoms: C_6  and  C_7
REMARK    7  A    between atoms: C_7  and  O_8
REMARK    8  A    between atoms: O_8  and  C_9
REMARK    9  A    between atoms: C_9  and  C_11
REMARK   10  A    between atoms: C_12  and  C_13
REMARK   11  A    between atoms: C_17  and  O_18
REMARK                            x       y       z     vdW  Elec       q    Type
REMARK                         _______ _______ _______ _____ _____    ______ ____
ROOT
ATOM      1  C   UNL     1       1.432   4.360  20.309  0.00  0.00    +0.000 C 
ATOM      2  C   UNL     1       2.202   5.428  20.567  0.00  0.00    +0.000 C 
ENDROOT
BRANCH   2   3
ATOM      3  C   UNL     1       2.093   6.693  19.862  0.00  0.00    +0.000 A 
ATOM      4  C   UNL     1       1.505   7.770  20.407  0.00  0.00    +0.000 A 
ATOM      5  C   UNL     1       1.409   9.006  19.606  0.00  0.00    +0.000 A 
ATOM      6  O   UNL     1       0.866  10.023  20.033  0.00  0.00    +0.000 OA
ATOM      7  C   UNL     1       1.993   8.981  18.247  0.00  0.00    +0.000 A 
ATOM      8  C   UNL     1       2.567   7.847  17.835  0.00  0.00    +0.000 A 
ATOM      9  O   UNL     1       2.648   6.702  18.588  0.00  0.00    +0.000 OA
BRANCH   7  10
ATOM     10  O   UNL     1       1.910  10.106  17.454  0.00  0.00    +0.000 OA
ATOM     11  H   UNL     1       2.835  10.415  17.353  0.00  0.00    +0.000 HD
ENDBRANCH   7  10
ENDBRANCH   2   3
BRANCH   1  12
ATOM     12  C   UNL     1       1.641   3.066  20.990  0.00  0.00    +0.000 C 
ATOM     13  O   UNL     1       1.966   2.915  22.154  0.00  0.00    +0.000 OA
BRANCH  12  14
ATOM     14  O   UNL     1       1.563   2.106  20.034  0.00  0.00    +0.000 OA
BRANCH  14  15
ATOM     15  C   UNL     1       1.839   2.569  18.710  0.00  0.00    +0.000 C 
BRANCH  15  16
ATOM     16  C   UNL     1       3.244   2.231  18.234  0.00  0.00    +0.000 C 
BRANCH  16  17
ATOM     17  O   UNL     1       3.996   3.449  18.185  0.00  0.00    +0.000 OA
BRANCH  17  18
ATOM     18  C   UNL     1       4.305   3.838  16.849  0.00  0.00    +0.000 C 
BRANCH  18  19
ATOM     19  C   UNL     1       5.796   4.145  16.727  0.00  0.00    +0.000 C 
BRANCH  19  21
ATOM     20  C   UNL     1       6.376   4.754  14.521  0.00  0.00    +0.000 C 
ATOM     21  O   UNL     1       5.979   5.221  15.804  0.00  0.00    +0.000 OA
ENDBRANCH  19  21
ENDBRANCH  18  19
ENDBRANCH  17  18
ENDBRANCH  16  17
ENDBRANCH  15  16
ENDBRANCH  14  15
ENDBRANCH  12  14
ENDBRANCH   1  12
TORSDOF 10
ENDMDL
MODEL 8
REMARK VINA RESULT:      -5.7      2.785      6.985
REMARK  Name = 
REMARK  11 active torsions:
REMARK  status: ('A' for Active; 'I' for Inactive)
REMARK    1  A    between atoms: C_1  and  O_2
REMARK    2  A    between atoms: O_2  and  C_3
REMARK    3  A    between atoms: C_3  and  C_4
REMARK    4  A    between atoms: C_4  and  O_5
REMARK    5  A    between atoms: O_5  and  C_6
REMARK    6  A    between atoms: C_6  and  C_7
REMARK    7  A    between atoms: C_7  and  O_8
REMARK    8  A    between atoms: O_8  and  C_9
REMARK    9  A    between atoms: C_9  and  C_11
REMARK   10  A    between atoms: C_12  and  C_13
REMARK   11  A    between atoms: C_17  and  O_18
REMARK                            x       y       z     vdW  Elec       q    Type
REMARK                         _______ _______ _______ _____ _____    ______ ____
ROOT
ATOM      1  C   UNL     1       4.057   3.386  17.838  0.00  0.00    +0.000 C 
ATOM      2  C   UNL     1       4.971   3.684  18.774  0.00  0.00    +0.000 C 
ENDROOT
BRANCH   2   3
ATOM      3  C   UNL     1       5.897   4.798  18.675  0.00  0.00    +0.000 A 
ATOM      4  C   UNL     1       5.873   5.662  17.647  0.00  0.00    +0.000 A 
ATOM      5  C   UNL     1       6.873   6.746  17.610  0.00  0.00    +0.000 A 
ATOM      6  O   UNL     1       6.923   7.560  16.689  0.00  0.00    +0.000 OA
ATOM      7  C   UNL     1       7.833   6.823  18.733  0.00  0.00    +0.000 A 
ATOM      8  C   UNL     1       7.732   5.911  19.704  0.00  0.00    +0.000 A 
ATOM      9  O   UNL     1       6.800   4.904  19.726  0.00  0.00    +0.000 OA
BRANCH   7  10
ATOM     10  O   UNL     1       8.798   7.809  18.732  0.00  0.00    +0.000 OA
ATOM     11  H   UNL     1       9.651   7.330  18.682  0.00  0.00    +0.000 HD
ENDBRANCH   7  10
ENDBRANCH   2   3
BRANCH   1  12
ATOM     12  C   UNL     1       3.199   2.188  17.941  0.00  0.00    +0.000 C 
ATOM     13  O   UNL     1       3.585   1.034  17.986  0.00  0.00    +0.000 OA
BRANCH  12  14
ATOM     14  O   UNL     1       1.917   2.615  17.809  0.00  0.00    +0.000 OA
BRANCH  14  15
ATOM     15  C   UNL     1       1.046   2.195  18.862  0.00  0.00    +0.000 C 
BRANCH  15  16
ATOM     16  C   UNL     1       0.580   3.338  19.751  0.00  0.00    +0.000 C 
BRANCH  16  17
ATOM     17  O   UNL     1       1.268   3.229  21.003  0.00  0.00    +0.000 OA
BRANCH  17  18
ATOM     18  C   UNL     1       2.271   4.229  21.156  0.00  0.00    +0.000 C 
BRANCH  18  19
ATOM     19  C   UNL     1       1.779   5.554  20.575  0.00  0.00    +0.000 C 
BRANCH  19  21
ATOM     20  C   UNL     1       2.427   7.383  19.231  0.00  0.00    +0.000 C 
ATOM     21  O   UNL     1       2.821   6.137  19.790  0.00  0.00    +0.000 OA
ENDBRANCH  19  21
ENDBRANCH  18  19
ENDBRANCH  17  18
ENDBRANCH  16  17
ENDBRANCH  15  16
ENDBRANCH  14  15
ENDBRANCH  12  14
ENDBRANCH   1  12
TORSDOF 10
ENDMDL
MODEL 9
REMARK VINA RESULT:      -5.6      4.948      8.707
REMARK  Name = 
REMARK  11 active torsions:
REMARK  status: ('A' for Active; 'I' for Inactive)
REMARK    1  A    between atoms: C_1  and  O_2
REMARK    2  A    between atoms: O_2  and  C_3
REMARK    3  A    between atoms: C_3  and  C_4
REMARK    4  A    between atoms: C_4  and  O_5
REMARK    5  A    between atoms: O_5  and  C_6
REMARK    6  A    between atoms: C_6  and  C_7
REMARK    7  A    between atoms: C_7  and  O_8
REMARK    8  A    between atoms: O_8  and  C_9
REMARK    9  A    between atoms: C_9  and  C_11
REMARK   10  A    between atoms: C_12  and  C_13
REMARK   11  A    between atoms: C_17  and  O_18
REMARK                            x       y       z     vdW  Elec       q    Type
REMARK                         _______ _______ _______ _____ _____    ______ ____
ROOT
ATOM      1  C   UNL     1       7.962   8.699  17.695  0.00  0.00    +0.000 C 
ATOM      2  C   UNL     1       8.760   9.397  18.518  0.00  0.00    +0.000 C 
ENDROOT
BRANCH   2   3
ATOM      3  C   UNL     1       9.122  10.787  18.308  0.00  0.00    +0.000 A 
ATOM      4  C   UNL     1      10.299  11.292  18.710  0.00  0.00    +0.000 A 
ATOM      5  C   UNL     1      10.570  12.725  18.485  0.00  0.00    +0.000 A 
ATOM      6  O   UNL     1      11.617  13.259  18.845  0.00  0.00    +0.000 OA
ATOM      7  C   UNL     1       9.521  13.515  17.803  0.00  0.00    +0.000 A 
ATOM      8  C   UNL     1       8.402  12.882  17.437  0.00  0.00    +0.000 A 
ATOM      9  O   UNL     1       8.160  11.549  17.655  0.00  0.00    +0.000 OA
BRANCH   7  10
ATOM     10  O   UNL     1       9.721  14.863  17.587  0.00  0.00    +0.000 OA
ATOM     11  H   UNL     1       8.994  15.309  18.071  0.00  0.00    +0.000 HD
ENDBRANCH   7  10
ENDBRANCH   2   3
BRANCH   1  12
ATOM     12  C   UNL     1       7.696   7.262  17.901  0.00  0.00    +0.000 C 
ATOM     13  O   UNL     1       8.085   6.590  18.840  0.00  0.00    +0.000 OA
BRANCH  12  14
ATOM     14  O   UNL     1       7.086   6.813  16.775  0.00  0.00    +0.000 OA
BRANCH  14  15
ATOM     15  C   UNL     1       5.712   6.460  16.950  0.00  0.00    +0.000 C 
BRANCH  15  16
ATOM     16  C   UNL     1       5.422   4.998  16.648  0.00  0.00    +0.000 C 
BRANCH  16  17
ATOM     17  O   UNL     1       5.378   4.293  17.894  0.00  0.00    +0.000 OA
BRANCH  17  18
ATOM     18  C   UNL     1       4.045   3.973  18.285  0.00  0.00    +0.000 C 
BRANCH  18  19
ATOM     19  C   UNL     1       3.293   3.348  17.112  0.00  0.00    +0.000 C 
BRANCH  19  21
ATOM     20  C   UNL     1       1.613   4.358  18.428  0.00  0.00    +0.000 C 
ATOM     21  O   UNL     1       1.889   3.529  17.306  0.00  0.00    +0.000 OA
ENDBRANCH  19  21
ENDBRANCH  18  19
ENDBRANCH  17  18
ENDBRANCH  16  17
ENDBRANCH  15  16
ENDBRANCH  14  15
ENDBRANCH  12  14
ENDBRANCH   1  12
TORSDOF 10
ENDMDL
