MODEL 1
REMARK VINA RESULT:      -6.9      0.000      0.000
REMARK  Name = 
REMARK  4 active torsions:
REMARK  status: ('A' for Active; 'I' for Inactive)
REMARK    1  A    between atoms: C_1  and  N_2
REMARK    2  A    between atoms: N_9  and  C_10
REMARK    3  A    between atoms: N_16  and  C_17
REMARK    4  A    between atoms: C_19  and  C_20
REMARK                            x       y       z     vdW  Elec       q    Type
REMARK                         _______ _______ _______ _____ _____    ______ ____
ROOT
ATOM      1  C   UNL     1       2.229   7.656  18.895  0.00  0.00    +0.000 C 
ATOM      2  N   UNL     1       1.443   8.638  19.602  0.00  0.00    +0.000 N 
ATOM      3  C   UNL     1       0.709   9.651  19.032  0.00  0.00    +0.000 A 
ATOM      4  C   UNL     1       0.153  10.308  20.091  0.00  0.00    +0.000 A 
ATOM      5  C   UNL     1       0.583   9.645  21.236  0.00  0.00    +0.000 A 
ATOM      6  N   UNL     1       1.379   8.612  20.964  0.00  0.00    +0.000 NA
ATOM      7  C   UNL     1       0.036  10.273  22.429  0.00  0.00    +0.000 C 
ATOM      8  O   UNL     1       0.251   9.969  23.592  0.00  0.00    +0.000 OA
ATOM      9  N   UNL     1      -0.816  11.304  21.925  0.00  0.00    +0.000 N 
ATOM     10  C   UNL     1      -0.721  11.441  20.438  0.00  0.00    +0.000 C 
ENDROOT
BRANCH   9  11
ATOM     11  C   UNL     1      -1.537  12.214  22.689  0.00  0.00    +0.000 A 
ATOM     12  C   UNL     1      -0.889  13.460  23.058  0.00  0.00    +0.000 A 
ATOM     13  C   UNL     1      -1.495  14.348  23.847  0.00  0.00    +0.000 A 
ATOM     14  F   UNL     1      -0.911  15.524  24.155  0.00  0.00    +0.000 F 
ATOM     15  C   UNL     1      -2.841  14.092  24.415  0.00  0.00    +0.000 A 
ATOM     16  O   UNL     1      -3.361  14.900  25.177  0.00  0.00    +0.000 OA
ATOM     17  N   UNL     1      -3.423  12.882  24.016  0.00  0.00    +0.000 N 
ATOM     18  C   UNL     1      -4.707  12.509  24.590  0.00  0.00    +0.000 C 
ATOM     19  C   UNL     1      -2.782  11.991  23.156  0.00  0.00    +0.000 A 
ENDBRANCH   9  11
BRANCH  10  20
ATOM     20  C   UNL     1       0.041  12.682  19.997  0.00  0.00    +0.000 A 
ATOM     21  C   UNL     1       1.392  12.882  20.347  0.00  0.00    +0.000 A 
ATOM     22  C   UNL     1       2.093  14.008  19.919  0.00  0.00    +0.000 A 
ATOM     23  C   UNL     1       1.454  14.953  19.126  0.00  0.00    +0.000 A 
ATOM     24 CL   UNL     1       2.324  16.330  18.580  0.00  0.00    +0.000 Cl
ATOM     25  C   UNL     1       0.118  14.782  18.766  0.00  0.00    +0.000 A 
ATOM     26  C   UNL     1      -0.588  13.653  19.198  0.00  0.00    +0.000 A 
ENDBRANCH  10  20
TORSDOF 2
ENDMDL
MODEL 2
REMARK VINA RESULT:      -6.8      7.771     10.708
REMARK  Name = 
REMARK  4 active torsions:
REMARK  status: ('A' for Active; 'I' for Inactive)
REMARK    1  A    between atoms: C_1  and  N_2
REMARK    2  A    between atoms: N_9  and  C_10
REMARK    3  A    between atoms: N_16  and  C_17
REMARK    4  A    between atoms: C_19  and  C_20
REMARK                            x       y       z     vdW  Elec       q    Type
REMARK                         _______ _______ _______ _____ _____    ______ ____
ROOT
ATOM      1  C   UNL     1       0.822   2.340  22.467  0.00  0.00    +0.000 C 
ATOM      2  N   UNL     1       1.747   2.813  21.466  0.00  0.00    +0.000 N 
ATOM      3  C   UNL     1       2.436   4.002  21.497  0.00  0.00    +0.000 A 
ATOM      4  C   UNL     1       3.171   4.002  20.347  0.00  0.00    +0.000 A 
ATOM      5  C   UNL     1       2.883   2.806  19.696  0.00  0.00    +0.000 A 
ATOM      6  N   UNL     1       2.009   2.053  20.364  0.00  0.00    +0.000 NA
ATOM      7  C   UNL     1       3.628   2.707  18.450  0.00  0.00    +0.000 C 
ATOM      8  O   UNL     1       3.572   1.812  17.622  0.00  0.00    +0.000 OA
ATOM      9  N   UNL     1       4.443   3.882  18.433  0.00  0.00    +0.000 N 
ATOM     10  C   UNL     1       4.137   4.799  19.574  0.00  0.00    +0.000 C 
ENDROOT
BRANCH   9  11
ATOM     11  C   UNL     1       5.309   4.259  17.414  0.00  0.00    +0.000 A 
ATOM     12  C   UNL     1       6.296   5.284  17.703  0.00  0.00    +0.000 A 
ATOM     13  C   UNL     1       7.114   5.744  16.755  0.00  0.00    +0.000 A 
ATOM     14  F   UNL     1       8.058   6.666  17.032  0.00  0.00    +0.000 F 
ATOM     15  C   UNL     1       7.031   5.261  15.355  0.00  0.00    +0.000 A 
ATOM     16  O   UNL     1       7.759   5.731  14.488  0.00  0.00    +0.000 OA
ATOM     17  N   UNL     1       6.070   4.265  15.138  0.00  0.00    +0.000 N 
ATOM     18  C   UNL     1       5.861   3.791  13.778  0.00  0.00    +0.000 C 
ATOM     19  C   UNL     1       5.257   3.773  16.158  0.00  0.00    +0.000 A 
ENDBRANCH   9  11
BRANCH  10  20
ATOM     20  C   UNL     1       3.377   6.048  19.153  0.00  0.00    +0.000 A 
ATOM     21  C   UNL     1       2.511   6.720  20.041  0.00  0.00    +0.000 A 
ATOM     22  C   UNL     1       1.837   7.878  19.660  0.00  0.00    +0.000 A 
ATOM     23  C   UNL     1       2.021   8.389  18.381  0.00  0.00    +0.000 A 
ATOM     24 CL   UNL     1       1.206   9.829  17.917  0.00  0.00    +0.000 Cl
ATOM     25  C   UNL     1       2.868   7.744  17.480  0.00  0.00    +0.000 A 
ATOM     26  C   UNL     1       3.544   6.579  17.862  0.00  0.00    +0.000 A 
ENDBRANCH  10  20
TORSDOF 2
ENDMDL
MODEL 3
REMARK VINA RESULT:      -6.7      1.177      1.676
REMARK  Name = 
REMARK  4 active torsions:
REMARK  status: ('A' for Active; 'I' for Inactive)
REMARK    1  A    between atoms: C_1  and  N_2
REMARK    2  A    between atoms: N_9  and  C_10
REMARK    3  A    between atoms: N_16  and  C_17
REMARK    4  A    between atoms: C_19  and  C_20
REMARK                            x       y       z     vdW  Elec       q    Type
REMARK                         _______ _______ _______ _____ _____    ______ ____
ROOT
ATOM      1  C   UNL     1       2.206   7.839  18.383  0.00  0.00    +0.000 C 
ATOM      2  N   UNL     1       1.478   8.793  19.185  0.00  0.00    +0.000 N 
ATOM      3  C   UNL     1       0.762   9.867  18.714  0.00  0.00    +0.000 A 
ATOM      4  C   UNL     1       0.264  10.464  19.836  0.00  0.00    +0.000 A 
ATOM      5  C   UNL     1       0.708   9.706  20.915  0.00  0.00    +0.000 A 
ATOM      6  N   UNL     1       1.458   8.670  20.543  0.00  0.00    +0.000 NA
ATOM      7  C   UNL     1       0.222  10.264  22.168  0.00  0.00    +0.000 C 
ATOM      8  O   UNL     1       0.464   9.870  23.298  0.00  0.00    +0.000 OA
ATOM      9  N   UNL     1      -0.609  11.357  21.769  0.00  0.00    +0.000 N 
ATOM     10  C   UNL     1      -0.557  11.596  20.293  0.00  0.00    +0.000 C 
ENDROOT
BRANCH   9  11
ATOM     11  C   UNL     1      -1.272  12.232  22.620  0.00  0.00    +0.000 A 
ATOM     12  C   UNL     1      -2.583  11.845  23.110  0.00  0.00    +0.000 A 
ATOM     13  C   UNL     1      -3.306  12.665  23.875  0.00  0.00    +0.000 A 
ATOM     14  F   UNL     1      -4.505  12.289  24.364  0.00  0.00    +0.000 F 
ATOM     15  C   UNL     1      -2.825  14.022  24.231  0.00  0.00    +0.000 A 
ATOM     16  O   UNL     1      -3.524  14.778  24.896  0.00  0.00    +0.000 OA
ATOM     17  N   UNL     1      -1.549  14.335  23.743  0.00  0.00    +0.000 N 
ATOM     18  C   UNL     1      -1.032  15.676  23.972  0.00  0.00    +0.000 C 
ATOM     19  C   UNL     1      -0.799  13.442  22.980  0.00  0.00    +0.000 A 
ENDBRANCH   9  11
BRANCH  10  20
ATOM     20  C   UNL     1       0.232  12.841  19.914  0.00  0.00    +0.000 A 
ATOM     21  C   UNL     1       1.606  12.961  20.211  0.00  0.00    +0.000 A 
ATOM     22  C   UNL     1       2.332  14.092  19.840  0.00  0.00    +0.000 A 
ATOM     23  C   UNL     1       1.695  15.121  19.158  0.00  0.00    +0.000 A 
ATOM     24 CL   UNL     1       2.594  16.506  18.681  0.00  0.00    +0.000 Cl
ATOM     25  C   UNL     1       0.337  15.031  18.853  0.00  0.00    +0.000 A 
ATOM     26  C   UNL     1      -0.393  13.896  19.229  0.00  0.00    +0.000 A 
ENDBRANCH  10  20
TORSDOF 2
ENDMDL
MODEL 4
REMARK VINA RESULT:      -6.5      1.229      1.919
REMARK  Name = 
REMARK  4 active torsions:
REMARK  status: ('A' for Active; 'I' for Inactive)
REMARK    1  A    between atoms: C_1  and  N_2
REMARK    2  A    between atoms: N_9  and  C_10
REMARK    3  A    between atoms: N_16  and  C_17
REMARK    4  A    between atoms: C_19  and  C_20
REMARK                            x       y       z     vdW  Elec       q    Type
REMARK                         _______ _______ _______ _____ _____    ______ ____
ROOT
ATOM      1  C   UNL     1       2.280   7.583  19.186  0.00  0.00    +0.000 C 
ATOM      2  N   UNL     1       1.465   8.600  19.808  0.00  0.00    +0.000 N 
ATOM      3  C   UNL     1       0.810   9.620  19.161  0.00  0.00    +0.000 A 
ATOM      4  C   UNL     1       0.187  10.313  20.159  0.00  0.00    +0.000 A 
ATOM      5  C   UNL     1       0.501   9.660  21.347  0.00  0.00    +0.000 A 
ATOM      6  N   UNL     1       1.287   8.600  21.161  0.00  0.00    +0.000 NA
ATOM      7  C   UNL     1      -0.126  10.324  22.480  0.00  0.00    +0.000 C 
ATOM      8  O   UNL     1      -0.018  10.036  23.661  0.00  0.00    +0.000 OA
ATOM      9  N   UNL     1      -0.903  11.368  21.889  0.00  0.00    +0.000 N 
ATOM     10  C   UNL     1      -0.680  11.474  20.414  0.00  0.00    +0.000 C 
ENDROOT
BRANCH   9  11
ATOM     11  C   UNL     1      -1.659  12.311  22.575  0.00  0.00    +0.000 A 
ATOM     12  C   UNL     1      -3.104  12.257  22.439  0.00  0.00    +0.000 A 
ATOM     13  C   UNL     1      -3.888  13.172  23.013  0.00  0.00    +0.000 A 
ATOM     14  F   UNL     1      -5.231  13.098  22.921  0.00  0.00    +0.000 F 
ATOM     15  C   UNL     1      -3.323  14.306  23.785  0.00  0.00    +0.000 A 
ATOM     16  O   UNL     1      -4.058  15.161  24.264  0.00  0.00    +0.000 OA
ATOM     17  N   UNL     1      -1.926  14.299  23.894  0.00  0.00    +0.000 N 
ATOM     18  C   UNL     1      -1.280  15.418  24.562  0.00  0.00    +0.000 C 
ATOM     19  C   UNL     1      -1.135  13.307  23.318  0.00  0.00    +0.000 A 
ENDBRANCH   9  11
BRANCH  10  20
ATOM     20  C   UNL     1       0.150  12.686  20.017  0.00  0.00    +0.000 A 
ATOM     21  C   UNL     1      -0.355  13.674  19.148  0.00  0.00    +0.000 A 
ATOM     22  C   UNL     1       0.399  14.796  18.808  0.00  0.00    +0.000 A 
ATOM     23  C   UNL     1       1.674  14.951  19.337  0.00  0.00    +0.000 A 
ATOM     24 CL   UNL     1       2.596  16.344  18.935  0.00  0.00    +0.000 Cl
ATOM     25  C   UNL     1       2.201  13.988  20.197  0.00  0.00    +0.000 A 
ATOM     26  C   UNL     1       1.445  12.860  20.537  0.00  0.00    +0.000 A 
ENDBRANCH  10  20
TORSDOF 2
ENDMDL
MODEL 5
REMARK VINA RESULT:      -6.3      1.211      1.288
REMARK  Name = 
REMARK  4 active torsions:
REMARK  status: ('A' for Active; 'I' for Inactive)
REMARK    1  A    between atoms: C_1  and  N_2
REMARK    2  A    between atoms: N_9  and  C_10
REMARK    3  A    between atoms: N_16  and  C_17
REMARK    4  A    between atoms: C_19  and  C_20
REMARK                            x       y       z     vdW  Elec       q    Type
REMARK                         _______ _______ _______ _____ _____    ______ ____
ROOT
ATOM      1  C   UNL     1       2.734   7.878  17.970  0.00  0.00    +0.000 C 
ATOM      2  N   UNL     1       1.878   8.821  18.650  0.00  0.00    +0.000 N 
ATOM      3  C   UNL     1       1.421  10.013  18.139  0.00  0.00    +0.000 A 
ATOM      4  C   UNL     1       0.661  10.544  19.141  0.00  0.00    +0.000 A 
ATOM      5  C   UNL     1       0.703   9.634  20.193  0.00  0.00    +0.000 A 
ATOM      6  N   UNL     1       1.446   8.562  19.917  0.00  0.00    +0.000 NA
ATOM      7  C   UNL     1      -0.087  10.111  21.317  0.00  0.00    +0.000 C 
ATOM      8  O   UNL     1      -0.223   9.578  22.407  0.00  0.00    +0.000 OA
ATOM      9  N   UNL     1      -0.674  11.326  20.845  0.00  0.00    +0.000 N 
ATOM     10  C   UNL     1      -0.167  11.709  19.491  0.00  0.00    +0.000 C 
ENDROOT
BRANCH   9  11
ATOM     11  C   UNL     1      -1.489  12.178  21.580  0.00  0.00    +0.000 A 
ATOM     12  C   UNL     1      -0.895  12.901  22.690  0.00  0.00    +0.000 A 
ATOM     13  C   UNL     1      -1.632  13.684  23.480  0.00  0.00    +0.000 A 
ATOM     14  F   UNL     1      -1.074  14.387  24.485  0.00  0.00    +0.000 F 
ATOM     15  C   UNL     1      -3.096  13.823  23.288  0.00  0.00    +0.000 A 
ATOM     16  O   UNL     1      -3.764  14.509  24.055  0.00  0.00    +0.000 OA
ATOM     17  N   UNL     1      -3.612  13.114  22.195  0.00  0.00    +0.000 N 
ATOM     18  C   UNL     1      -5.051  13.125  21.981  0.00  0.00    +0.000 C 
ATOM     19  C   UNL     1      -2.810  12.337  21.361  0.00  0.00    +0.000 A 
ENDBRANCH   9  11
BRANCH  10  20
ATOM     20  C   UNL     1       0.794  12.888  19.520  0.00  0.00    +0.000 A 
ATOM     21  C   UNL     1       1.950  12.877  20.329  0.00  0.00    +0.000 A 
ATOM     22  C   UNL     1       2.842  13.948  20.334  0.00  0.00    +0.000 A 
ATOM     23  C   UNL     1       2.595  15.049  19.523  0.00  0.00    +0.000 A 
ATOM     24 CL   UNL     1       3.706  16.360  19.513  0.00  0.00    +0.000 Cl
ATOM     25  C   UNL     1       1.459  15.089  18.716  0.00  0.00    +0.000 A 
ATOM     26  C   UNL     1       0.561  14.014  18.712  0.00  0.00    +0.000 A 
ENDBRANCH  10  20
TORSDOF 2
ENDMDL
MODEL 6
REMARK VINA RESULT:      -6.2      7.783     10.617
REMARK  Name = 
REMARK  4 active torsions:
REMARK  status: ('A' for Active; 'I' for Inactive)
REMARK    1  A    between atoms: C_1  and  N_2
REMARK    2  A    between atoms: N_9  and  C_10
REMARK    3  A    between atoms: N_16  and  C_17
REMARK    4  A    between atoms: C_19  and  C_20
REMARK                            x       y       z     vdW  Elec       q    Type
REMARK                         _______ _______ _______ _____ _____    ______ ____
ROOT
ATOM      1  C   UNL     1       0.707   2.191  22.467  0.00  0.00    +0.000 C 
ATOM      2  N   UNL     1       1.612   2.762  21.498  0.00  0.00    +0.000 N 
ATOM      3  C   UNL     1       2.237   3.982  21.594  0.00  0.00    +0.000 A 
ATOM      4  C   UNL     1       2.976   4.079  20.451  0.00  0.00    +0.000 A 
ATOM      5  C   UNL     1       2.755   2.904  19.738  0.00  0.00    +0.000 A 
ATOM      6  N   UNL     1       1.918   2.074  20.360  0.00  0.00    +0.000 NA
ATOM      7  C   UNL     1       3.510   2.908  18.495  0.00  0.00    +0.000 C 
ATOM      8  O   UNL     1       3.505   2.055  17.622  0.00  0.00    +0.000 OA
ATOM      9  N   UNL     1       4.262   4.123  18.543  0.00  0.00    +0.000 N 
ATOM     10  C   UNL     1       3.903   4.964  19.727  0.00  0.00    +0.000 C 
ENDROOT
BRANCH   9  11
ATOM     11  C   UNL     1       5.112   4.596  17.551  0.00  0.00    +0.000 A 
ATOM     12  C   UNL     1       5.208   3.839  16.316  0.00  0.00    +0.000 A 
ATOM     13  C   UNL     1       6.055   4.197  15.349  0.00  0.00    +0.000 A 
ATOM     14  F   UNL     1       6.115   3.518  14.186  0.00  0.00    +0.000 F 
ATOM     15  C   UNL     1       6.963   5.359  15.502  0.00  0.00    +0.000 A 
ATOM     16  O   UNL     1       7.767   5.643  14.621  0.00  0.00    +0.000 OA
ATOM     17  N   UNL     1       6.818   6.059  16.707  0.00  0.00    +0.000 N 
ATOM     18  C   UNL     1       7.725   7.164  16.978  0.00  0.00    +0.000 C 
ATOM     19  C   UNL     1       5.895   5.687  17.682  0.00  0.00    +0.000 A 
ENDBRANCH   9  11
BRANCH  10  20
ATOM     20  C   UNL     1       3.080   6.191  19.364  0.00  0.00    +0.000 A 
ATOM     21  C   UNL     1       2.402   6.942  20.347  0.00  0.00    +0.000 A 
ATOM     22  C   UNL     1       1.671   8.080  20.013  0.00  0.00    +0.000 A 
ATOM     23  C   UNL     1       1.610   8.492  18.688  0.00  0.00    +0.000 A 
ATOM     24 CL   UNL     1       0.727   9.908  18.279  0.00  0.00    +0.000 Cl
ATOM     25  C   UNL     1       2.269   7.768  17.694  0.00  0.00    +0.000 A 
ATOM     26  C   UNL     1       3.001   6.622  18.029  0.00  0.00    +0.000 A 
ENDBRANCH  10  20
TORSDOF 2
ENDMDL
MODEL 7
REMARK VINA RESULT:      -6.2      1.659      1.906
REMARK  Name = 
REMARK  4 active torsions:
REMARK  status: ('A' for Active; 'I' for Inactive)
REMARK    1  A    between atoms: C_1  and  N_2
REMARK    2  A    between atoms: N_9  and  C_10
REMARK    3  A    between atoms: N_16  and  C_17
REMARK    4  A    between atoms: C_19  and  C_20
REMARK                            x       y       z     vdW  Elec       q    Type
REMARK                         _______ _______ _______ _____ _____    ______ ____
ROOT
ATOM      1  C   UNL     1       2.455   7.008  19.616  0.00  0.00    +0.000 C 
ATOM      2  N   UNL     1       1.669   8.147  20.026  0.00  0.00    +0.000 N 
ATOM      3  C   UNL     1       1.271   9.187  19.221  0.00  0.00    +0.000 A 
ATOM      4  C   UNL     1       0.564  10.010  20.050  0.00  0.00    +0.000 A 
ATOM      5  C   UNL     1       0.577   9.409  21.305  0.00  0.00    +0.000 A 
ATOM      6  N   UNL     1       1.250   8.259  21.319  0.00  0.00    +0.000 NA
ATOM      7  C   UNL     1      -0.161  10.213  22.267  0.00  0.00    +0.000 C 
ATOM      8  O   UNL     1      -0.304   9.997  23.460  0.00  0.00    +0.000 OA
ATOM      9  N   UNL     1      -0.686  11.294  21.493  0.00  0.00    +0.000 N 
ATOM     10  C   UNL     1      -0.188  11.274  20.083  0.00  0.00    +0.000 C 
ENDROOT
BRANCH   9  11
ATOM     11  C   UNL     1      -1.435  12.359  21.980  0.00  0.00    +0.000 A 
ATOM     12  C   UNL     1      -2.642  12.729  21.263  0.00  0.00    +0.000 A 
ATOM     13  C   UNL     1      -3.372  13.782  21.634  0.00  0.00    +0.000 A 
ATOM     14  F   UNL     1      -4.515  14.101  20.993  0.00  0.00    +0.000 F 
ATOM     15  C   UNL     1      -2.968  14.647  22.769  0.00  0.00    +0.000 A 
ATOM     16  O   UNL     1      -3.627  15.638  23.063  0.00  0.00    +0.000 OA
ATOM     17  N   UNL     1      -1.804  14.235  23.431  0.00  0.00    +0.000 N 
ATOM     18  C   UNL     1      -1.287  15.071  24.504  0.00  0.00    +0.000 C 
ATOM     19  C   UNL     1      -1.084  13.106  23.047  0.00  0.00    +0.000 A 
ENDBRANCH   9  11
BRANCH  10  20
ATOM     20  C   UNL     1       0.840  12.358  19.794  0.00  0.00    +0.000 A 
ATOM     21  C   UNL     1       1.804  12.735  20.752  0.00  0.00    +0.000 A 
ATOM     22  C   UNL     1       2.761  13.709  20.475  0.00  0.00    +0.000 A 
ATOM     23  C   UNL     1       2.773  14.322  19.228  0.00  0.00    +0.000 A 
ATOM     24 CL   UNL     1       3.966  15.509  18.877  0.00  0.00    +0.000 Cl
ATOM     25  C   UNL     1       1.830  13.972  18.261  0.00  0.00    +0.000 A 
ATOM     26  C   UNL     1       0.867  12.994  18.541  0.00  0.00    +0.000 A 
ENDBRANCH  10  20
TORSDOF 2
ENDMDL
MODEL 8
REMARK VINA RESULT:      -6.1      3.524      6.660
REMARK  Name = 
REMARK  4 active torsions:
REMARK  status: ('A' for Active; 'I' for Inactive)
REMARK    1  A    between atoms: C_1  and  N_2
REMARK    2  A    between atoms: N_9  and  C_10
REMARK    3  A    between atoms: N_16  and  C_17
REMARK    4  A    between atoms: C_19  and  C_20
REMARK                            x       y       z     vdW  Elec       q    Type
REMARK                         _______ _______ _______ _____ _____    ______ ____
ROOT
ATOM      1  C   UNL     1      -2.323  13.996  23.679  0.00  0.00    +0.000 C 
ATOM      2  N   UNL     1      -1.600  12.999  22.927  0.00  0.00    +0.000 N 
ATOM      3  C   UNL     1      -1.050  13.169  21.679  0.00  0.00    +0.000 A 
ATOM      4  C   UNL     1      -0.483  11.961  21.389  0.00  0.00    +0.000 A 
ATOM      5  C   UNL     1      -0.722  11.140  22.486  0.00  0.00    +0.000 A 
ATOM      6  N   UNL     1      -1.408  11.754  23.450  0.00  0.00    +0.000 NA
ATOM      7  C   UNL     1      -0.147   9.821  22.275  0.00  0.00    +0.000 C 
ATOM      8  O   UNL     1      -0.215   8.854  23.018  0.00  0.00    +0.000 OA
ATOM      9  N   UNL     1       0.523   9.926  21.017  0.00  0.00    +0.000 N 
ATOM     10  C   UNL     1       0.275  11.242  20.352  0.00  0.00    +0.000 C 
ENDROOT
BRANCH   9  11
ATOM     11  C   UNL     1       1.196   8.901  20.362  0.00  0.00    +0.000 A 
ATOM     12  C   UNL     1       1.673   9.151  19.013  0.00  0.00    +0.000 A 
ATOM     13  C   UNL     1       2.265   8.192  18.300  0.00  0.00    +0.000 A 
ATOM     14  F   UNL     1       2.746   8.435  17.064  0.00  0.00    +0.000 F 
ATOM     15  C   UNL     1       2.432   6.817  18.832  0.00  0.00    +0.000 A 
ATOM     16  O   UNL     1       2.936   5.937  18.143  0.00  0.00    +0.000 OA
ATOM     17  N   UNL     1       1.965   6.638  20.141  0.00  0.00    +0.000 N 
ATOM     18  C   UNL     1       2.011   5.301  20.714  0.00  0.00    +0.000 C 
ATOM     19  C   UNL     1       1.387   7.670  20.878  0.00  0.00    +0.000 A 
ENDBRANCH   9  11
BRANCH  10  20
ATOM     20  C   UNL     1      -0.669  11.146  19.163  0.00  0.00    +0.000 A 
ATOM     21  C   UNL     1      -1.554  10.059  19.009  0.00  0.00    +0.000 A 
ATOM     22  C   UNL     1      -2.435   9.987  17.932  0.00  0.00    +0.000 A 
ATOM     23  C   UNL     1      -2.451  11.008  16.990  0.00  0.00    +0.000 A 
ATOM     24 CL   UNL     1      -3.552  10.931  15.673  0.00  0.00    +0.000 Cl
ATOM     25  C   UNL     1      -1.585  12.095  17.114  0.00  0.00    +0.000 A 
ATOM     26  C   UNL     1      -0.697  12.166  18.195  0.00  0.00    +0.000 A 
ENDBRANCH  10  20
TORSDOF 2
ENDMDL
MODEL 9
REMARK VINA RESULT:      -6.1      4.140      5.595
REMARK  Name = 
REMARK  4 active torsions:
REMARK  status: ('A' for Active; 'I' for Inactive)
REMARK    1  A    between atoms: C_1  and  N_2
REMARK    2  A    between atoms: N_9  and  C_10
REMARK    3  A    between atoms: N_16  and  C_17
REMARK    4  A    between atoms: C_19  and  C_20
REMARK                            x       y       z     vdW  Elec       q    Type
REMARK                         _______ _______ _______ _____ _____    ______ ____
ROOT
ATOM      1  C   UNL     1       4.720  15.320  20.440  0.00  0.00    +0.000 C 
ATOM      2  N   UNL     1       3.418  14.715  20.294  0.00  0.00    +0.000 N 
ATOM      3  C   UNL     1       2.989  13.560  20.903  0.00  0.00    +0.000 A 
ATOM      4  C   UNL     1       1.709  13.394  20.459  0.00  0.00    +0.000 A 
ATOM      5  C   UNL     1       1.444  14.466  19.613  0.00  0.00    +0.000 A 
ATOM      6  N   UNL     1       2.480  15.296  19.492  0.00  0.00    +0.000 NA
ATOM      7  C   UNL     1       0.090  14.383  19.086  0.00  0.00    +0.000 C 
ATOM      8  O   UNL     1      -0.442  15.135  18.285  0.00  0.00    +0.000 OA
ATOM      9  N   UNL     1      -0.470  13.238  19.735  0.00  0.00    +0.000 N 
ATOM     10  C   UNL     1       0.540  12.506  20.560  0.00  0.00    +0.000 C 
ENDROOT
BRANCH   9  11
ATOM     11  C   UNL     1      -1.743  12.723  19.525  0.00  0.00    +0.000 A 
ATOM     12  C   UNL     1      -1.988  11.987  18.297  0.00  0.00    +0.000 A 
ATOM     13  C   UNL     1      -3.203  11.524  17.999  0.00  0.00    +0.000 A 
ATOM     14  F   UNL     1      -3.421  10.805  16.879  0.00  0.00    +0.000 F 
ATOM     15  C   UNL     1      -4.367  11.769  18.884  0.00  0.00    +0.000 A 
ATOM     16  O   UNL     1      -5.485  11.376  18.568  0.00  0.00    +0.000 OA
ATOM     17  N   UNL     1      -4.070  12.471  20.059  0.00  0.00    +0.000 N 
ATOM     18  C   UNL     1      -5.166  12.830  20.946  0.00  0.00    +0.000 C 
ATOM     19  C   UNL     1      -2.782  12.908  20.365  0.00  0.00    +0.000 A 
ENDBRANCH   9  11
BRANCH  10  20
ATOM     20  C   UNL     1       0.984  11.190  19.938  0.00  0.00    +0.000 A 
ATOM     21  C   UNL     1       0.845   9.966  20.624  0.00  0.00    +0.000 A 
ATOM     22  C   UNL     1       1.230   8.760  20.041  0.00  0.00    +0.000 A 
ATOM     23  C   UNL     1       1.756   8.758  18.755  0.00  0.00    +0.000 A 
ATOM     24 CL   UNL     1       2.210   7.269  18.027  0.00  0.00    +0.000 Cl
ATOM     25  C   UNL     1       1.908   9.954  18.054  0.00  0.00    +0.000 A 
ATOM     26  C   UNL     1       1.524  11.166  18.641  0.00  0.00    +0.000 A 
ENDBRANCH  10  20
TORSDOF 2
ENDMDL
