MODEL 1
REMARK VINA RESULT:      -8.0      0.000      0.000
REMARK  Name = 
REMARK  6 active torsions:
REMARK  status: ('A' for Active; 'I' for Inactive)
REMARK    1  A    between atoms: C_1  and  C_2
REMARK    2  A    between atoms: C_4  and  C_5
REMARK    3  A    between atoms: N_7  and  C_8
REMARK    4  A    between atoms: C_15  and  C_16
REMARK    5  A    between atoms: C_16  and  C_17
REMARK    6  A    between atoms: C_20  and  C_21
REMARK                            x       y       z     vdW  Elec       q    Type
REMARK                         _______ _______ _______ _____ _____    ______ ____
ROOT
ATOM      1  C   UNL     1       0.676   8.993  21.646  0.00  0.00    +0.000 C 
ATOM      2  C   UNL     1       1.358   8.606  20.382  0.00  0.00    +0.000 A 
ATOM      3  N   UNL     1       1.886   7.344  20.240  0.00  0.00    +0.000 N 
ATOM      4  C   UNL     1       2.406   7.165  18.979  0.00  0.00    +0.000 A 
ATOM      5  C   UNL     1       2.248   8.378  18.328  0.00  0.00    +0.000 A 
ATOM      6  C   UNL     1       1.591   9.300  19.202  0.00  0.00    +0.000 A 
ATOM      7  H   UNL     1       1.866   6.610  20.938  0.00  0.00    +0.000 HD
ENDROOT
BRANCH   4   8
ATOM      8  C   UNL     1       2.991   5.904  18.568  0.00  0.00    +0.000 C 
ATOM      9  O   UNL     1       2.456   4.821  18.792  0.00  0.00    +0.000 OA
ATOM     10  N   UNL     1       4.206   6.011  17.926  0.00  0.00    +0.000 N 
ATOM     11  H   UNL     1       4.555   6.938  17.738  0.00  0.00    +0.000 HD
BRANCH  10  12
ATOM     12  C   UNL     1       5.078   4.875  17.630  0.00  0.00    +0.000 C 
ATOM     13  C   UNL     1       6.513   5.198  18.063  0.00  0.00    +0.000 C 
ATOM     14  C   UNL     1       7.203   6.133  17.074  0.00  0.00    +0.000 C 
ATOM     15  N   UNL     1       7.241   5.544  15.738  0.00  0.00    +0.000 NA
ATOM     16  C   UNL     1       5.887   5.314  15.232  0.00  0.00    +0.000 C 
ATOM     17  C   UNL     1       5.038   4.440  16.158  0.00  0.00    +0.000 C 
ATOM     18  H   UNL     1       7.747   4.657  15.775  0.00  0.00    +0.000 HD
ENDBRANCH  10  12
ENDBRANCH   4   8
BRANCH   6  19
ATOM     19  C   UNL     1       1.151  10.682  18.824  0.00  0.00    +0.000 C 
BRANCH  19  20
ATOM     20  C   UNL     1      -0.339  10.680  18.601  0.00  0.00    +0.000 A 
ATOM     21  C   UNL     1      -0.924   9.920  17.586  0.00  0.00    +0.000 A 
ATOM     22  C   UNL     1      -2.289  10.040  17.316  0.00  0.00    +0.000 A 
ATOM     23  C   UNL     1      -3.063  10.918  18.076  0.00  0.00    +0.000 A 
ATOM     24  N   UNL     1      -2.515  11.650  19.089  0.00  0.00    +0.000 NA
ATOM     25  C   UNL     1      -1.186  11.512  19.325  0.00  0.00    +0.000 A 
BRANCH  23  26
ATOM     26  C   UNL     1      -4.546  11.093  17.754  0.00  0.00    +0.000 C 
ATOM     27  F   UNL     1      -4.835  10.905  16.430  0.00  0.00    +0.000 F 
ATOM     28  F   UNL     1      -5.351  10.220  18.424  0.00  0.00    +0.000 F 
ATOM     29  F   UNL     1      -5.015  12.341  18.046  0.00  0.00    +0.000 F 
ENDBRANCH  23  26
ENDBRANCH  19  20
ENDBRANCH   6  19
TORSDOF 5
ENDMDL
MODEL 2
REMARK VINA RESULT:      -7.8      1.046      1.327
REMARK  Name = 
REMARK  6 active torsions:
REMARK  status: ('A' for Active; 'I' for Inactive)
REMARK    1  A    between atoms: C_1  and  C_2
REMARK    2  A    between atoms: C_4  and  C_5
REMARK    3  A    between atoms: N_7  and  C_8
REMARK    4  A    between atoms: C_15  and  C_16
REMARK    5  A    between atoms: C_16  and  C_17
REMARK    6  A    between atoms: C_20  and  C_21
REMARK                            x       y       z     vdW  Elec       q    Type
REMARK                         _______ _______ _______ _____ _____    ______ ____
ROOT
ATOM      1  C   UNL     1       0.454   9.730  21.792  0.00  0.00    +0.000 C 
ATOM      2  C   UNL     1       1.118   8.915  20.739  0.00  0.00    +0.000 A 
ATOM      3  N   UNL     1       1.508   7.623  21.008  0.00  0.00    +0.000 N 
ATOM      4  C   UNL     1       2.033   7.023  19.887  0.00  0.00    +0.000 A 
ATOM      5  C   UNL     1       2.023   7.991  18.897  0.00  0.00    +0.000 A 
ATOM      6  C   UNL     1       1.451   9.194  19.420  0.00  0.00    +0.000 A 
ATOM      7  H   UNL     1       1.393   7.140  21.891  0.00  0.00    +0.000 HD
ENDROOT
BRANCH   4   8
ATOM      8  C   UNL     1       2.487   5.646  19.903  0.00  0.00    +0.000 C 
ATOM      9  O   UNL     1       2.315   4.902  20.866  0.00  0.00    +0.000 OA
ATOM     10  N   UNL     1       3.148   5.241  18.763  0.00  0.00    +0.000 N 
ATOM     11  H   UNL     1       3.206   5.895  17.999  0.00  0.00    +0.000 HD
BRANCH  10  12
ATOM     12  C   UNL     1       3.884   3.983  18.648  0.00  0.00    +0.000 C 
ATOM     13  C   UNL     1       5.303   4.162  19.202  0.00  0.00    +0.000 C 
ATOM     14  C   UNL     1       6.201   4.910  18.220  0.00  0.00    +0.000 C 
ATOM     15  N   UNL     1       6.284   4.202  16.945  0.00  0.00    +0.000 NA
ATOM     16  C   UNL     1       4.964   4.099  16.320  0.00  0.00    +0.000 C 
ATOM     17  C   UNL     1       3.924   3.425  17.218  0.00  0.00    +0.000 C 
ATOM     18  H   UNL     1       6.661   3.266  17.102  0.00  0.00    +0.000 HD
ENDBRANCH  10  12
ENDBRANCH   4   8
BRANCH   6  19
ATOM     19  C   UNL     1       1.172  10.433  18.624  0.00  0.00    +0.000 C 
BRANCH  19  20
ATOM     20  C   UNL     1      -0.318  10.606  18.489  0.00  0.00    +0.000 A 
ATOM     21  C   UNL     1      -1.076   9.782  17.654  0.00  0.00    +0.000 A 
ATOM     22  C   UNL     1      -2.431  10.051  17.446  0.00  0.00    +0.000 A 
ATOM     23  C   UNL     1      -3.021  11.141  18.086  0.00  0.00    +0.000 A 
ATOM     24  N   UNL     1      -2.304  11.941  18.927  0.00  0.00    +0.000 NA
ATOM     25  C   UNL     1      -0.989  11.656  19.107  0.00  0.00    +0.000 A 
BRANCH  23  26
ATOM     26  C   UNL     1      -4.489  11.470  17.824  0.00  0.00    +0.000 C 
ATOM     27  F   UNL     1      -5.326  10.410  18.046  0.00  0.00    +0.000 F 
ATOM     28  F   UNL     1      -4.967  12.475  18.612  0.00  0.00    +0.000 F 
ATOM     29  F   UNL     1      -4.732  11.850  16.536  0.00  0.00    +0.000 F 
ENDBRANCH  23  26
ENDBRANCH  19  20
ENDBRANCH   6  19
TORSDOF 5
ENDMDL
MODEL 3
REMARK VINA RESULT:      -7.6      1.986      2.746
REMARK  Name = 
REMARK  6 active torsions:
REMARK  status: ('A' for Active; 'I' for Inactive)
REMARK    1  A    between atoms: C_1  and  C_2
REMARK    2  A    between atoms: C_4  and  C_5
REMARK    3  A    between atoms: N_7  and  C_8
REMARK    4  A    between atoms: C_15  and  C_16
REMARK    5  A    between atoms: C_16  and  C_17
REMARK    6  A    between atoms: C_20  and  C_21
REMARK                            x       y       z     vdW  Elec       q    Type
REMARK                         _______ _______ _______ _____ _____    ______ ____
ROOT
ATOM      1  C   UNL     1       0.331   8.792  21.725  0.00  0.00    +0.000 C 
ATOM      2  C   UNL     1       1.091   8.765  20.446  0.00  0.00    +0.000 A 
ATOM      3  N   UNL     1       1.750   7.622  20.058  0.00  0.00    +0.000 N 
ATOM      4  C   UNL     1       2.327   7.780  18.819  0.00  0.00    +0.000 A 
ATOM      5  C   UNL     1       2.067   9.088  18.444  0.00  0.00    +0.000 A 
ATOM      6  C   UNL     1       1.290   9.725  19.463  0.00  0.00    +0.000 A 
ATOM      7  H   UNL     1       1.783   6.751  20.575  0.00  0.00    +0.000 HD
ENDROOT
BRANCH   4   8
ATOM      8  C   UNL     1       3.053   6.704  18.173  0.00  0.00    +0.000 C 
ATOM      9  O   UNL     1       3.855   6.900  17.262  0.00  0.00    +0.000 OA
ATOM     10  N   UNL     1       2.756   5.442  18.640  0.00  0.00    +0.000 N 
ATOM     11  H   UNL     1       2.123   5.370  19.421  0.00  0.00    +0.000 HD
BRANCH  10  12
ATOM     12  C   UNL     1       3.190   4.206  17.990  0.00  0.00    +0.000 C 
ATOM     13  C   UNL     1       1.973   3.471  17.416  0.00  0.00    +0.000 C 
ATOM     14  C   UNL     1       1.180   2.755  18.505  0.00  0.00    +0.000 C 
ATOM     15  N   UNL     1       2.017   1.789  19.212  0.00  0.00    +0.000 NA
ATOM     16  C   UNL     1       3.140   2.459  19.872  0.00  0.00    +0.000 C 
ATOM     17  C   UNL     1       4.000   3.282  18.911  0.00  0.00    +0.000 C 
ATOM     18  H   UNL     1       2.374   1.102  18.546  0.00  0.00    +0.000 HD
ENDBRANCH  10  12
ENDBRANCH   4   8
BRANCH   6  19
ATOM     19  C   UNL     1       0.722  11.109  19.375  0.00  0.00    +0.000 C 
BRANCH  19  20
ATOM     20  C   UNL     1      -0.702  11.028  18.892  0.00  0.00    +0.000 A 
ATOM     21  C   UNL     1      -1.061  10.218  17.813  0.00  0.00    +0.000 A 
ATOM     22  C   UNL     1      -2.362  10.264  17.303  0.00  0.00    +0.000 A 
ATOM     23  C   UNL     1      -3.298  11.117  17.888  0.00  0.00    +0.000 A 
ATOM     24  N   UNL     1      -2.973  11.895  18.961  0.00  0.00    +0.000 NA
ATOM     25  C   UNL     1      -1.702  11.830  19.431  0.00  0.00    +0.000 A 
BRANCH  23  26
ATOM     26  C   UNL     1      -4.706  11.210  17.305  0.00  0.00    +0.000 C 
ATOM     27  F   UNL     1      -4.778  10.795  16.003  0.00  0.00    +0.000 F 
ATOM     28  F   UNL     1      -5.620  10.450  17.974  0.00  0.00    +0.000 F 
ATOM     29  F   UNL     1      -5.203  12.481  17.300  0.00  0.00    +0.000 F 
ENDBRANCH  23  26
ENDBRANCH  19  20
ENDBRANCH   6  19
TORSDOF 5
ENDMDL
MODEL 4
REMARK VINA RESULT:      -7.6      5.982      8.549
REMARK  Name = 
REMARK  6 active torsions:
REMARK  status: ('A' for Active; 'I' for Inactive)
REMARK    1  A    between atoms: C_1  and  C_2
REMARK    2  A    between atoms: C_4  and  C_5
REMARK    3  A    between atoms: N_7  and  C_8
REMARK    4  A    between atoms: C_15  and  C_16
REMARK    5  A    between atoms: C_16  and  C_17
REMARK    6  A    between atoms: C_20  and  C_21
REMARK                            x       y       z     vdW  Elec       q    Type
REMARK                         _______ _______ _______ _____ _____    ______ ____
ROOT
ATOM      1  C   UNL     1       7.887   5.331  18.752  0.00  0.00    +0.000 C 
ATOM      2  C   UNL     1       7.940   6.777  18.406  0.00  0.00    +0.000 A 
ATOM      3  N   UNL     1       8.600   7.661  19.228  0.00  0.00    +0.000 N 
ATOM      4  C   UNL     1       8.593   8.929  18.696  0.00  0.00    +0.000 A 
ATOM      5  C   UNL     1       7.856   8.846  17.526  0.00  0.00    +0.000 A 
ATOM      6  C   UNL     1       7.432   7.494  17.331  0.00  0.00    +0.000 A 
ATOM      7  H   UNL     1       9.075   7.427  20.092  0.00  0.00    +0.000 HD
ENDROOT
BRANCH   4   8
ATOM      8  C   UNL     1       9.255  10.037  19.358  0.00  0.00    +0.000 C 
ATOM      9  O   UNL     1       9.095  10.287  20.551  0.00  0.00    +0.000 OA
ATOM     10  N   UNL     1      10.057  10.804  18.542  0.00  0.00    +0.000 N 
ATOM     11  H   UNL     1      10.173  10.506  17.586  0.00  0.00    +0.000 HD
BRANCH  10  12
ATOM     12  C   UNL     1      10.633  12.089  18.935  0.00  0.00    +0.000 C 
ATOM     13  C   UNL     1       9.523  13.142  19.042  0.00  0.00    +0.000 C 
ATOM     14  C   UNL     1       9.077  13.632  17.667  0.00  0.00    +0.000 C 
ATOM     15  N   UNL     1      10.198  14.210  16.930  0.00  0.00    +0.000 NA
ATOM     16  C   UNL     1      11.244  13.210  16.706  0.00  0.00    +0.000 C 
ATOM     17  C   UNL     1      11.752  12.571  18.000  0.00  0.00    +0.000 C 
ATOM     18  H   UNL     1      10.583  14.994  17.460  0.00  0.00    +0.000 HD
ENDBRANCH  10  12
ENDBRANCH   4   8
BRANCH   6  19
ATOM     19  C   UNL     1       6.702   6.985  16.125  0.00  0.00    +0.000 C 
BRANCH  19  20
ATOM     20  C   UNL     1       5.485   6.220  16.573  0.00  0.00    +0.000 A 
ATOM     21  C   UNL     1       4.513   6.806  17.386  0.00  0.00    +0.000 A 
ATOM     22  C   UNL     1       3.465   6.035  17.895  0.00  0.00    +0.000 A 
ATOM     23  C   UNL     1       3.393   4.679  17.575  0.00  0.00    +0.000 A 
ATOM     24  N   UNL     1       4.318   4.094  16.760  0.00  0.00    +0.000 NA
ATOM     25  C   UNL     1       5.325   4.869  16.283  0.00  0.00    +0.000 A 
BRANCH  23  26
ATOM     26  C   UNL     1       2.279   3.818  18.168  0.00  0.00    +0.000 C 
ATOM     27  F   UNL     1       1.026   4.293  17.888  0.00  0.00    +0.000 F 
ATOM     28  F   UNL     1       2.286   2.534  17.710  0.00  0.00    +0.000 F 
ATOM     29  F   UNL     1       2.332   3.735  19.529  0.00  0.00    +0.000 F 
ENDBRANCH  23  26
ENDBRANCH  19  20
ENDBRANCH   6  19
TORSDOF 5
ENDMDL
MODEL 5
REMARK VINA RESULT:      -7.5      5.748      8.281
REMARK  Name = 
REMARK  6 active torsions:
REMARK  status: ('A' for Active; 'I' for Inactive)
REMARK    1  A    between atoms: C_1  and  C_2
REMARK    2  A    between atoms: C_4  and  C_5
REMARK    3  A    between atoms: N_7  and  C_8
REMARK    4  A    between atoms: C_15  and  C_16
REMARK    5  A    between atoms: C_16  and  C_17
REMARK    6  A    between atoms: C_20  and  C_21
REMARK                            x       y       z     vdW  Elec       q    Type
REMARK                         _______ _______ _______ _____ _____    ______ ____
ROOT
ATOM      1  C   UNL     1       8.131   5.479  19.222  0.00  0.00    +0.000 C 
ATOM      2  C   UNL     1       7.955   6.828  18.621  0.00  0.00    +0.000 A 
ATOM      3  N   UNL     1       8.728   7.882  19.049  0.00  0.00    +0.000 N 
ATOM      4  C   UNL     1       8.461   9.018  18.320  0.00  0.00    +0.000 A 
ATOM      5  C   UNL     1       7.445   8.676  17.443  0.00  0.00    +0.000 A 
ATOM      6  C   UNL     1       7.111   7.297  17.623  0.00  0.00    +0.000 A 
ATOM      7  H   UNL     1       9.439   7.843  19.770  0.00  0.00    +0.000 HD
ENDROOT
BRANCH   4   8
ATOM      8  C   UNL     1       9.172  10.260  18.556  0.00  0.00    +0.000 C 
ATOM      9  O   UNL     1       9.831  10.822  17.684  0.00  0.00    +0.000 OA
ATOM     10  N   UNL     1       9.073  10.749  19.840  0.00  0.00    +0.000 N 
ATOM     11  H   UNL     1       8.475  10.255  20.484  0.00  0.00    +0.000 HD
BRANCH  10  12
ATOM     12  C   UNL     1       9.882  11.850  20.361  0.00  0.00    +0.000 C 
ATOM     13  C   UNL     1       9.529  12.099  21.833  0.00  0.00    +0.000 C 
ATOM     14  C   UNL     1       8.209  12.851  21.976  0.00  0.00    +0.000 C 
ATOM     15  N   UNL     1       8.262  14.137  21.285  0.00  0.00    +0.000 NA
ATOM     16  C   UNL     1       8.491  13.948  19.851  0.00  0.00    +0.000 C 
ATOM     17  C   UNL     1       9.756  13.143  19.544  0.00  0.00    +0.000 C 
ATOM     18  H   UNL     1       9.017  14.701  21.679  0.00  0.00    +0.000 HD
ENDBRANCH  10  12
ENDBRANCH   4   8
BRANCH   6  19
ATOM     19  C   UNL     1       6.132   6.531  16.786  0.00  0.00    +0.000 C 
BRANCH  19  20
ATOM     20  C   UNL     1       4.946   6.156  17.635  0.00  0.00    +0.000 A 
ATOM     21  C   UNL     1       3.902   7.054  17.868  0.00  0.00    +0.000 A 
ATOM     22  C   UNL     1       2.882   6.728  18.765  0.00  0.00    +0.000 A 
ATOM     23  C   UNL     1       2.911   5.495  19.418  0.00  0.00    +0.000 A 
ATOM     24  N   UNL     1       3.908   4.593  19.183  0.00  0.00    +0.000 NA
ATOM     25  C   UNL     1       4.885   4.940  18.308  0.00  0.00    +0.000 A 
BRANCH  23  26
ATOM     26  C   UNL     1       1.828   5.152  20.438  0.00  0.00    +0.000 C 
ATOM     27  F   UNL     1       1.095   6.239  20.830  0.00  0.00    +0.000 F 
ATOM     28  F   UNL     1       0.913   4.252  19.974  0.00  0.00    +0.000 F 
ATOM     29  F   UNL     1       2.325   4.624  21.593  0.00  0.00    +0.000 F 
ENDBRANCH  23  26
ENDBRANCH  19  20
ENDBRANCH   6  19
TORSDOF 5
ENDMDL
MODEL 6
REMARK VINA RESULT:      -7.2      0.815      1.291
REMARK  Name = 
REMARK  6 active torsions:
REMARK  status: ('A' for Active; 'I' for Inactive)
REMARK    1  A    between atoms: C_1  and  C_2
REMARK    2  A    between atoms: C_4  and  C_5
REMARK    3  A    between atoms: N_7  and  C_8
REMARK    4  A    between atoms: C_15  and  C_16
REMARK    5  A    between atoms: C_16  and  C_17
REMARK    6  A    between atoms: C_20  and  C_21
REMARK                            x       y       z     vdW  Elec       q    Type
REMARK                         _______ _______ _______ _____ _____    ______ ____
ROOT
ATOM      1  C   UNL     1       0.922   8.827  21.510  0.00  0.00    +0.000 C 
ATOM      2  C   UNL     1       1.479   8.470  20.178  0.00  0.00    +0.000 A 
ATOM      3  N   UNL     1       1.856   7.175  19.911  0.00  0.00    +0.000 N 
ATOM      4  C   UNL     1       2.277   7.042  18.608  0.00  0.00    +0.000 A 
ATOM      5  C   UNL     1       2.212   8.311  18.057  0.00  0.00    +0.000 A 
ATOM      6  C   UNL     1       1.715   9.227  19.037  0.00  0.00    +0.000 A 
ATOM      7  H   UNL     1       1.799   6.395  20.555  0.00  0.00    +0.000 HD
ENDROOT
BRANCH   4   8
ATOM      8  C   UNL     1       2.695   5.763  18.069  0.00  0.00    +0.000 C 
ATOM      9  O   UNL     1       1.954   4.781  18.041  0.00  0.00    +0.000 OA
ATOM     10  N   UNL     1       3.994   5.722  17.612  0.00  0.00    +0.000 N 
ATOM     11  H   UNL     1       4.521   6.582  17.626  0.00  0.00    +0.000 HD
BRANCH  10  12
ATOM     12  C   UNL     1       4.694   4.493  17.242  0.00  0.00    +0.000 C 
ATOM     13  C   UNL     1       5.766   4.174  18.292  0.00  0.00    +0.000 C 
ATOM     14  C   UNL     1       6.997   5.060  18.128  0.00  0.00    +0.000 C 
ATOM     15  N   UNL     1       7.583   4.900  16.799  0.00  0.00    +0.000 NA
ATOM     16  C   UNL     1       6.631   5.297  15.760  0.00  0.00    +0.000 C 
ATOM     17  C   UNL     1       5.306   4.536  15.835  0.00  0.00    +0.000 C 
ATOM     18  H   UNL     1       7.849   3.923  16.664  0.00  0.00    +0.000 HD
ENDBRANCH  10  12
ENDBRANCH   4   8
BRANCH   6  19
ATOM     19  C   UNL     1       1.406  10.671  18.789  0.00  0.00    +0.000 C 
BRANCH  19  20
ATOM     20  C   UNL     1      -0.066  10.819  18.506  0.00  0.00    +0.000 A 
ATOM     21  C   UNL     1      -0.841  11.783  19.155  0.00  0.00    +0.000 A 
ATOM     22  C   UNL     1      -2.226  11.809  18.973  0.00  0.00    +0.000 A 
ATOM     23  C   UNL     1      -2.825  10.872  18.130  0.00  0.00    +0.000 A 
ATOM     24  N   UNL     1      -2.081   9.940  17.466  0.00  0.00    +0.000 NA
ATOM     25  C   UNL     1      -0.739   9.939  17.665  0.00  0.00    +0.000 A 
BRANCH  23  26
ATOM     26  C   UNL     1      -4.343  10.863  17.965  0.00  0.00    +0.000 C 
ATOM     27  F   UNL     1      -4.908   9.651  18.258  0.00  0.00    +0.000 F 
ATOM     28  F   UNL     1      -4.980  11.759  18.771  0.00  0.00    +0.000 F 
ATOM     29  F   UNL     1      -4.747  11.145  16.693  0.00  0.00    +0.000 F 
ENDBRANCH  23  26
ENDBRANCH  19  20
ENDBRANCH   6  19
TORSDOF 5
ENDMDL
MODEL 7
REMARK VINA RESULT:      -7.2      3.678      4.462
REMARK  Name = 
REMARK  6 active torsions:
REMARK  status: ('A' for Active; 'I' for Inactive)
REMARK    1  A    between atoms: C_1  and  C_2
REMARK    2  A    between atoms: C_4  and  C_5
REMARK    3  A    between atoms: N_7  and  C_8
REMARK    4  A    between atoms: C_15  and  C_16
REMARK    5  A    between atoms: C_16  and  C_17
REMARK    6  A    between atoms: C_20  and  C_21
REMARK                            x       y       z     vdW  Elec       q    Type
REMARK                         _______ _______ _______ _____ _____    ______ ____
ROOT
ATOM      1  C   UNL     1       0.796   8.824  21.655  0.00  0.00    +0.000 C 
ATOM      2  C   UNL     1       1.460   8.302  20.431  0.00  0.00    +0.000 A 
ATOM      3  N   UNL     1       2.241   7.172  20.496  0.00  0.00    +0.000 N 
ATOM      4  C   UNL     1       2.702   6.818  19.250  0.00  0.00    +0.000 A 
ATOM      5  C   UNL     1       2.238   7.792  18.382  0.00  0.00    +0.000 A 
ATOM      6  C   UNL     1       1.455   8.741  19.113  0.00  0.00    +0.000 A 
ATOM      7  H   UNL     1       2.430   6.628  21.330  0.00  0.00    +0.000 HD
ENDROOT
BRANCH   4   8
ATOM      8  C   UNL     1       3.521   5.638  19.047  0.00  0.00    +0.000 C 
ATOM      9  O   UNL     1       3.609   4.741  19.883  0.00  0.00    +0.000 OA
ATOM     10  N   UNL     1       4.213   5.611  17.856  0.00  0.00    +0.000 N 
ATOM     11  H   UNL     1       4.050   6.362  17.203  0.00  0.00    +0.000 HD
BRANCH  10  12
ATOM     12  C   UNL     1       5.264   4.644  17.542  0.00  0.00    +0.000 C 
ATOM     13  C   UNL     1       6.620   5.184  18.011  0.00  0.00    +0.000 C 
ATOM     14  C   UNL     1       7.160   6.251  17.063  0.00  0.00    +0.000 C 
ATOM     15  N   UNL     1       7.313   5.720  15.711  0.00  0.00    +0.000 NA
ATOM     16  C   UNL     1       6.021   5.288  15.174  0.00  0.00    +0.000 C 
ATOM     17  C   UNL     1       5.316   4.256  16.057  0.00  0.00    +0.000 C 
ATOM     18  H   UNL     1       7.957   4.927  15.730  0.00  0.00    +0.000 HD
ENDBRANCH  10  12
ENDBRANCH   4   8
BRANCH   6  19
ATOM     19  C   UNL     1       0.698   9.882  18.507  0.00  0.00    +0.000 C 
BRANCH  19  20
ATOM     20  C   UNL     1       1.410  11.171  18.826  0.00  0.00    +0.000 A 
ATOM     21  C   UNL     1       1.064  11.938  19.940  0.00  0.00    +0.000 A 
ATOM     22  C   UNL     1       1.649  13.192  20.137  0.00  0.00    +0.000 A 
ATOM     23  C   UNL     1       2.586  13.664  19.218  0.00  0.00    +0.000 A 
ATOM     24  N   UNL     1       2.957  12.917  18.137  0.00  0.00    +0.000 NA
ATOM     25  C   UNL     1       2.370  11.705  17.973  0.00  0.00    +0.000 A 
BRANCH  23  26
ATOM     26  C   UNL     1       3.191  15.054  19.399  0.00  0.00    +0.000 C 
ATOM     27  F   UNL     1       4.002  15.149  20.498  0.00  0.00    +0.000 F 
ATOM     28  F   UNL     1       3.966  15.449  18.348  0.00  0.00    +0.000 F 
ATOM     29  F   UNL     1       2.253  16.031  19.565  0.00  0.00    +0.000 F 
ENDBRANCH  23  26
ENDBRANCH  19  20
ENDBRANCH   6  19
TORSDOF 5
ENDMDL
MODEL 8
REMARK VINA RESULT:      -7.2      1.308      1.676
REMARK  Name = 
REMARK  6 active torsions:
REMARK  status: ('A' for Active; 'I' for Inactive)
REMARK    1  A    between atoms: C_1  and  C_2
REMARK    2  A    between atoms: C_4  and  C_5
REMARK    3  A    between atoms: N_7  and  C_8
REMARK    4  A    between atoms: C_15  and  C_16
REMARK    5  A    between atoms: C_16  and  C_17
REMARK    6  A    between atoms: C_20  and  C_21
REMARK                            x       y       z     vdW  Elec       q    Type
REMARK                         _______ _______ _______ _____ _____    ______ ____
ROOT
ATOM      1  C   UNL     1       0.058   9.991  21.891  0.00  0.00    +0.000 C 
ATOM      2  C   UNL     1       0.826   9.214  20.883  0.00  0.00    +0.000 A 
ATOM      3  N   UNL     1       1.204   7.918  21.149  0.00  0.00    +0.000 N 
ATOM      4  C   UNL     1       1.839   7.357  20.066  0.00  0.00    +0.000 A 
ATOM      5  C   UNL     1       1.910   8.354  19.107  0.00  0.00    +0.000 A 
ATOM      6  C   UNL     1       1.278   9.536  19.609  0.00  0.00    +0.000 A 
ATOM      7  H   UNL     1       1.013   7.408  22.003  0.00  0.00    +0.000 HD
ENDROOT
BRANCH   4   8
ATOM      8  C   UNL     1       2.305   5.984  20.083  0.00  0.00    +0.000 C 
ATOM      9  O   UNL     1       1.740   5.100  20.725  0.00  0.00    +0.000 OA
ATOM     10  N   UNL     1       3.444   5.748  19.344  0.00  0.00    +0.000 N 
ATOM     11  H   UNL     1       3.820   6.515  18.808  0.00  0.00    +0.000 HD
BRANCH  10  12
ATOM     12  C   UNL     1       4.214   4.507  19.400  0.00  0.00    +0.000 C 
ATOM     13  C   UNL     1       5.694   4.804  19.131  0.00  0.00    +0.000 C 
ATOM     14  C   UNL     1       5.962   5.038  17.647  0.00  0.00    +0.000 C 
ATOM     15  N   UNL     1       5.569   3.875  16.855  0.00  0.00    +0.000 NA
ATOM     16  C   UNL     1       4.135   3.613  16.993  0.00  0.00    +0.000 C 
ATOM     17  C   UNL     1       3.695   3.421  18.446  0.00  0.00    +0.000 C 
ATOM     18  H   UNL     1       6.096   3.059  17.170  0.00  0.00    +0.000 HD
ENDBRANCH  10  12
ENDBRANCH   4   8
BRANCH   6  19
ATOM     19  C   UNL     1       1.061  10.795  18.827  0.00  0.00    +0.000 C 
BRANCH  19  20
ATOM     20  C   UNL     1      -0.409  10.944  18.532  0.00  0.00    +0.000 A 
ATOM     21  C   UNL     1      -1.171  11.957  19.118  0.00  0.00    +0.000 A 
ATOM     22  C   UNL     1      -2.556  11.991  18.931  0.00  0.00    +0.000 A 
ATOM     23  C   UNL     1      -3.166  11.011  18.147  0.00  0.00    +0.000 A 
ATOM     24  N   UNL     1      -2.434  10.029  17.545  0.00  0.00    +0.000 NA
ATOM     25  C   UNL     1      -1.093  10.023  17.747  0.00  0.00    +0.000 A 
BRANCH  23  26
ATOM     26  C   UNL     1      -4.684  11.012  17.980  0.00  0.00    +0.000 C 
ATOM     27  F   UNL     1      -5.081  11.087  16.673  0.00  0.00    +0.000 F 
ATOM     28  F   UNL     1      -5.283   9.890  18.472  0.00  0.00    +0.000 F 
ATOM     29  F   UNL     1      -5.292  12.066  18.597  0.00  0.00    +0.000 F 
ENDBRANCH  23  26
ENDBRANCH  19  20
ENDBRANCH   6  19
TORSDOF 5
ENDMDL
MODEL 9
REMARK VINA RESULT:      -7.2      4.580      9.331
REMARK  Name = 
REMARK  6 active torsions:
REMARK  status: ('A' for Active; 'I' for Inactive)
REMARK    1  A    between atoms: C_1  and  C_2
REMARK    2  A    between atoms: C_4  and  C_5
REMARK    3  A    between atoms: N_7  and  C_8
REMARK    4  A    between atoms: C_15  and  C_16
REMARK    5  A    between atoms: C_16  and  C_17
REMARK    6  A    between atoms: C_20  and  C_21
REMARK                            x       y       z     vdW  Elec       q    Type
REMARK                         _______ _______ _______ _____ _____    ______ ____
ROOT
ATOM      1  C   UNL     1       0.019  11.635  20.717  0.00  0.00    +0.000 C 
ATOM      2  C   UNL     1      -0.515  10.995  19.486  0.00  0.00    +0.000 A 
ATOM      3  N   UNL     1      -1.858  11.066  19.196  0.00  0.00    +0.000 N 
ATOM      4  C   UNL     1      -2.133  10.476  17.984  0.00  0.00    +0.000 A 
ATOM      5  C   UNL     1      -0.929   9.969  17.526  0.00  0.00    +0.000 A 
ATOM      6  C   UNL     1       0.104  10.284  18.465  0.00  0.00    +0.000 A 
ATOM      7  H   UNL     1      -2.563  11.525  19.759  0.00  0.00    +0.000 HD
ENDROOT
BRANCH   4   8
ATOM      8  C   UNL     1      -3.476  10.451  17.437  0.00  0.00    +0.000 C 
ATOM      9  O   UNL     1      -3.734   9.966  16.336  0.00  0.00    +0.000 OA
ATOM     10  N   UNL     1      -4.438  11.033  18.233  0.00  0.00    +0.000 N 
ATOM     11  H   UNL     1      -4.154  11.364  19.142  0.00  0.00    +0.000 HD
BRANCH  10  12
ATOM     12  C   UNL     1      -5.801  11.323  17.790  0.00  0.00    +0.000 C 
ATOM     13  C   UNL     1      -6.041  12.837  17.815  0.00  0.00    +0.000 C 
ATOM     14  C   UNL     1      -6.270  13.348  19.235  0.00  0.00    +0.000 C 
ATOM     15  N   UNL     1      -7.417  12.684  19.850  0.00  0.00    +0.000 NA
ATOM     16  C   UNL     1      -7.191  11.241  19.949  0.00  0.00    +0.000 C 
ATOM     17  C   UNL     1      -6.877  10.587  18.601  0.00  0.00    +0.000 C 
ATOM     18  H   UNL     1      -8.251  12.862  19.287  0.00  0.00    +0.000 HD
ENDBRANCH  10  12
ENDBRANCH   4   8
BRANCH   6  19
ATOM     19  C   UNL     1       1.561   9.997  18.272  0.00  0.00    +0.000 C 
BRANCH  19  20
ATOM     20  C   UNL     1       1.871   8.629  18.823  0.00  0.00    +0.000 A 
ATOM     21  C   UNL     1       2.385   7.615  18.012  0.00  0.00    +0.000 A 
ATOM     22  C   UNL     1       2.536   6.322  18.517  0.00  0.00    +0.000 A 
ATOM     23  C   UNL     1       2.180   6.055  19.839  0.00  0.00    +0.000 A 
ATOM     24  N   UNL     1       1.702   7.039  20.655  0.00  0.00    +0.000 NA
ATOM     25  C   UNL     1       1.564   8.285  20.135  0.00  0.00    +0.000 A 
BRANCH  23  26
ATOM     26  C   UNL     1       2.295   4.633  20.383  0.00  0.00    +0.000 C 
ATOM     27  F   UNL     1       3.380   3.957  19.895  0.00  0.00    +0.000 F 
ATOM     28  F   UNL     1       2.422   4.581  21.740  0.00  0.00    +0.000 F 
ATOM     29  F   UNL     1       1.221   3.851  20.074  0.00  0.00    +0.000 F 
ENDBRANCH  23  26
ENDBRANCH  19  20
ENDBRANCH   6  19
TORSDOF 5
ENDMDL
