MODEL 1
REMARK VINA RESULT:      -8.1      0.000      0.000
REMARK  Name = 
REMARK  5 active torsions:
REMARK  status: ('A' for Active; 'I' for Inactive)
REMARK    1  A    between atoms: C_1  and  C_2
REMARK    2  A    between atoms: C_2  and  C_3
REMARK    3  A    between atoms: C_2  and  C_4
REMARK    4  A    between atoms: C_4  and  N_5
REMARK    5  A    between atoms: C_8  and  C_9
REMARK                            x       y       z     vdW  Elec       q    Type
REMARK                         _______ _______ _______ _____ _____    ______ ____
ROOT
ATOM      1  C   UNL     1       6.207   4.462  18.095  0.00  0.00    +0.000 C 
ATOM      2  O   UNL     1       6.760   4.915  19.092  0.00  0.00    +0.000 OA
ATOM      3  N   UNL     1       4.887   4.095  18.177  0.00  0.00    +0.000 N 
ATOM      4  C   UNL     1       4.171   4.236  19.349  0.00  0.00    +0.000 C 
ATOM      5  C   UNL     1       3.644   2.802  19.460  0.00  0.00    +0.000 C 
ATOM      6  C   UNL     1       2.772   2.636  20.637  0.00  0.00    +0.000 C 
ATOM      7  C   UNL     1       1.635   3.231  21.398  0.00  0.00    +0.000 C 
ATOM      8  C   UNL     1       0.752   3.337  20.378  0.00  0.00    +0.000 C 
ATOM      9  C   UNL     1       1.234   3.351  18.713  0.00  0.00    +0.000 C 
ATOM     10  C   UNL     1       2.793   2.734  18.197  0.00  0.00    +0.000 C 
ATOM     11  C   UNL     1       3.961   3.384  17.241  0.00  0.00    +0.000 C 
ENDROOT
BRANCH   1  15
ATOM     12  N   UNL     1       5.602   4.334  14.600  0.00  0.00    +0.000 NA
ATOM     13  C   UNL     1       5.611   5.706  15.100  0.00  0.00    +0.000 C 
ATOM     14  C   UNL     1       6.932   5.758  15.823  0.00  0.00    +0.000 C 
ATOM     15  C   UNL     1       6.897   4.491  16.678  0.00  0.00    +0.000 C 
ATOM     16  C   UNL     1       6.190   3.518  15.702  0.00  0.00    +0.000 C 
BRANCH  12  17
ATOM     17  C   UNL     1       6.370   4.233  13.346  0.00  0.00    +0.000 C 
BRANCH  17  19
ATOM     18  C   UNL     1       4.584   3.460  11.778  0.00  0.00    +0.000 C 
ATOM     19  C   UNL     1       5.858   3.049  12.515  0.00  0.00    +0.000 C 
ATOM     20  C   UNL     1       6.912   2.567  11.521  0.00  0.00    +0.000 C 
ENDBRANCH  17  19
ENDBRANCH  12  17
ENDBRANCH   1  15
TORSDOF 3
ENDMDL
MODEL 2
REMARK VINA RESULT:      -7.3      5.079      6.230
REMARK  Name = 
REMARK  5 active torsions:
REMARK  status: ('A' for Active; 'I' for Inactive)
REMARK    1  A    between atoms: C_1  and  C_2
REMARK    2  A    between atoms: C_2  and  C_3
REMARK    3  A    between atoms: C_2  and  C_4
REMARK    4  A    between atoms: C_4  and  N_5
REMARK    5  A    between atoms: C_8  and  C_9
REMARK                            x       y       z     vdW  Elec       q    Type
REMARK                         _______ _______ _______ _____ _____    ______ ____
ROOT
ATOM      1  C   UNL     1       2.006   6.847  19.415  0.00  0.00    +0.000 C 
ATOM      2  O   UNL     1       1.882   6.306  20.509  0.00  0.00    +0.000 OA
ATOM      3  N   UNL     1       1.783   8.198  19.311  0.00  0.00    +0.000 N 
ATOM      4  C   UNL     1       1.434   8.956  20.411  0.00  0.00    +0.000 C 
ATOM      5  C   UNL     1       0.177   9.616  19.835  0.00  0.00    +0.000 C 
ATOM      6  C   UNL     1      -0.428  10.558  20.795  0.00  0.00    +0.000 C 
ATOM      7  C   UNL     1      -0.143  11.673  21.743  0.00  0.00    +0.000 C 
ATOM      8  C   UNL     1       0.518  12.490  20.890  0.00  0.00    +0.000 C 
ATOM      9  C   UNL     1       1.257  11.925  19.427  0.00  0.00    +0.000 C 
ATOM     10  C   UNL     1       0.794  10.404  18.686  0.00  0.00    +0.000 C 
ATOM     11  C   UNL     1       1.690   9.135  18.149  0.00  0.00    +0.000 C 
ENDROOT
BRANCH   1  15
ATOM     12  N   UNL     1       4.315   4.331  18.446  0.00  0.00    +0.000 NA
ATOM     13  C   UNL     1       2.973   3.789  18.647  0.00  0.00    +0.000 C 
ATOM     14  C   UNL     1       2.146   4.693  17.770  0.00  0.00    +0.000 C 
ATOM     15  C   UNL     1       2.622   6.087  18.179  0.00  0.00    +0.000 C 
ATOM     16  C   UNL     1       4.130   5.811  18.398  0.00  0.00    +0.000 C 
BRANCH  12  17
ATOM     17  C   UNL     1       4.913   3.793  17.210  0.00  0.00    +0.000 C 
BRANCH  17  19
ATOM     18  C   UNL     1       7.261   4.586  16.895  0.00  0.00    +0.000 C 
ATOM     19  C   UNL     1       5.797   4.859  16.552  0.00  0.00    +0.000 C 
ATOM     20  C   UNL     1       5.605   4.889  15.038  0.00  0.00    +0.000 C 
ENDBRANCH  17  19
ENDBRANCH  12  17
ENDBRANCH   1  15
TORSDOF 3
ENDMDL
MODEL 3
REMARK VINA RESULT:      -7.3      1.319      1.421
REMARK  Name = 
REMARK  5 active torsions:
REMARK  status: ('A' for Active; 'I' for Inactive)
REMARK    1  A    between atoms: C_1  and  C_2
REMARK    2  A    between atoms: C_2  and  C_3
REMARK    3  A    between atoms: C_2  and  C_4
REMARK    4  A    between atoms: C_4  and  N_5
REMARK    5  A    between atoms: C_8  and  C_9
REMARK                            x       y       z     vdW  Elec       q    Type
REMARK                         _______ _______ _______ _____ _____    ______ ____
ROOT
ATOM      1  C   UNL     1       5.430   4.771  16.748  0.00  0.00    +0.000 C 
ATOM      2  O   UNL     1       5.633   5.968  16.925  0.00  0.00    +0.000 OA
ATOM      3  N   UNL     1       4.377   4.172  17.394  0.00  0.00    +0.000 N 
ATOM      4  C   UNL     1       3.540   4.889  18.225  0.00  0.00    +0.000 C 
ATOM      5  C   UNL     1       3.640   3.995  19.464  0.00  0.00    +0.000 C 
ATOM      6  C   UNL     1       2.786   4.491  20.559  0.00  0.00    +0.000 C 
ATOM      7  C   UNL     1       1.427   5.003  20.902  0.00  0.00    +0.000 C 
ATOM      8  C   UNL     1       0.701   3.985  20.387  0.00  0.00    +0.000 C 
ATOM      9  C   UNL     1       1.317   2.900  19.184  0.00  0.00    +0.000 C 
ATOM     10  C   UNL     1       3.040   2.708  18.911  0.00  0.00    +0.000 C 
ATOM     11  C   UNL     1       3.937   2.749  17.535  0.00  0.00    +0.000 C 
ENDROOT
BRANCH   1  15
ATOM     12  N   UNL     1       5.900   4.402  13.248  0.00  0.00    +0.000 NA
ATOM     13  C   UNL     1       6.862   5.334  13.831  0.00  0.00    +0.000 C 
ATOM     14  C   UNL     1       7.446   4.510  14.949  0.00  0.00    +0.000 C 
ATOM     15  C   UNL     1       6.202   3.954  15.643  0.00  0.00    +0.000 C 
ATOM     16  C   UNL     1       5.293   3.696  14.415  0.00  0.00    +0.000 C 
BRANCH  12  17
ATOM     17  C   UNL     1       6.570   3.481  12.312  0.00  0.00    +0.000 C 
BRANCH  17  19
ATOM     18  C   UNL     1       4.426   2.995  11.124  0.00  0.00    +0.000 C 
ATOM     19  C   UNL     1       5.597   2.375  11.885  0.00  0.00    +0.000 C 
ATOM     20  C   UNL     1       6.290   1.324  11.022  0.00  0.00    +0.000 C 
ENDBRANCH  17  19
ENDBRANCH  12  17
ENDBRANCH   1  15
TORSDOF 3
ENDMDL
MODEL 4
REMARK VINA RESULT:      -7.3      5.527      7.454
REMARK  Name = 
REMARK  5 active torsions:
REMARK  status: ('A' for Active; 'I' for Inactive)
REMARK    1  A    between atoms: C_1  and  C_2
REMARK    2  A    between atoms: C_2  and  C_3
REMARK    3  A    between atoms: C_2  and  C_4
REMARK    4  A    between atoms: C_4  and  N_5
REMARK    5  A    between atoms: C_8  and  C_9
REMARK                            x       y       z     vdW  Elec       q    Type
REMARK                         _______ _______ _______ _____ _____    ______ ____
ROOT
ATOM      1  C   UNL     1       2.515   8.005  18.303  0.00  0.00    +0.000 C 
ATOM      2  O   UNL     1       2.672   8.163  17.097  0.00  0.00    +0.000 OA
ATOM      3  N   UNL     1       1.615   8.802  18.967  0.00  0.00    +0.000 N 
ATOM      4  C   UNL     1       0.879   9.764  18.304  0.00  0.00    +0.000 C 
ATOM      5  C   UNL     1       1.227  10.960  19.195  0.00  0.00    +0.000 C 
ATOM      6  C   UNL     1       0.530  12.183  18.754  0.00  0.00    +0.000 C 
ATOM      7  C   UNL     1      -0.784  12.743  18.326  0.00  0.00    +0.000 C 
ATOM      8  C   UNL     1      -1.523  12.336  19.384  0.00  0.00    +0.000 C 
ATOM      9  C   UNL     1      -1.042  11.037  20.426  0.00  0.00    +0.000 C 
ATOM     10  C   UNL     1       0.624  10.493  20.514  0.00  0.00    +0.000 C 
ATOM     11  C   UNL     1       1.287   8.993  20.414  0.00  0.00    +0.000 C 
ENDROOT
BRANCH   1  15
ATOM     12  N   UNL     1       2.424   4.474  18.652  0.00  0.00    +0.000 NA
ATOM     13  C   UNL     1       3.403   4.896  17.654  0.00  0.00    +0.000 C 
ATOM     14  C   UNL     1       4.219   5.896  18.431  0.00  0.00    +0.000 C 
ATOM     15  C   UNL     1       3.148   6.781  19.069  0.00  0.00    +0.000 C 
ATOM     16  C   UNL     1       2.069   5.718  19.394  0.00  0.00    +0.000 C 
BRANCH  12  17
ATOM     17  C   UNL     1       2.992   3.432  19.528  0.00  0.00    +0.000 C 
BRANCH  17  19
ATOM     18  C   UNL     1       1.346   2.736  21.274  0.00  0.00    +0.000 C 
ATOM     19  C   UNL     1       1.908   2.410  19.891  0.00  0.00    +0.000 C 
ATOM     20  C   UNL     1       0.787   2.392  18.855  0.00  0.00    +0.000 C 
ENDBRANCH  17  19
ENDBRANCH  12  17
ENDBRANCH   1  15
TORSDOF 3
ENDMDL
MODEL 5
REMARK VINA RESULT:      -7.3      4.552      5.838
REMARK  Name = 
REMARK  5 active torsions:
REMARK  status: ('A' for Active; 'I' for Inactive)
REMARK    1  A    between atoms: C_1  and  C_2
REMARK    2  A    between atoms: C_2  and  C_3
REMARK    3  A    between atoms: C_2  and  C_4
REMARK    4  A    between atoms: C_4  and  N_5
REMARK    5  A    between atoms: C_8  and  C_9
REMARK                            x       y       z     vdW  Elec       q    Type
REMARK                         _______ _______ _______ _____ _____    ______ ____
ROOT
ATOM      1  C   UNL     1       2.276   6.299  19.836  0.00  0.00    +0.000 C 
ATOM      2  O   UNL     1       2.305   5.556  20.812  0.00  0.00    +0.000 OA
ATOM      3  N   UNL     1       1.824   7.586  19.993  0.00  0.00    +0.000 N 
ATOM      4  C   UNL     1       1.416   8.060  21.224  0.00  0.00    +0.000 C 
ATOM      5  C   UNL     1       0.036   8.584  20.812  0.00  0.00    +0.000 C 
ATOM      6  C   UNL     1      -0.663   9.216  21.946  0.00  0.00    +0.000 C 
ATOM      7  C   UNL     1      -0.515  10.174  23.080  0.00  0.00    +0.000 C 
ATOM      8  C   UNL     1      -0.049  11.234  22.380  0.00  0.00    +0.000 C 
ATOM      9  C   UNL     1       0.692  11.082  20.820  0.00  0.00    +0.000 C 
ATOM     10  C   UNL     1       0.448   9.662  19.818  0.00  0.00    +0.000 C 
ATOM     11  C   UNL     1       1.512   8.688  19.031  0.00  0.00    +0.000 C 
ENDROOT
BRANCH   1  15
ATOM     12  N   UNL     1       4.685   4.175  18.324  0.00  0.00    +0.000 NA
ATOM     13  C   UNL     1       3.359   3.564  18.345  0.00  0.00    +0.000 C 
ATOM     14  C   UNL     1       2.518   4.637  17.704  0.00  0.00    +0.000 C 
ATOM     15  C   UNL     1       2.939   5.894  18.465  0.00  0.00    +0.000 C 
ATOM     16  C   UNL     1       4.452   5.613  18.647  0.00  0.00    +0.000 C 
BRANCH  12  17
ATOM     17  C   UNL     1       5.323   3.985  17.009  0.00  0.00    +0.000 C 
BRANCH  17  19
ATOM     18  C   UNL     1       7.663   4.559  17.670  0.00  0.00    +0.000 C 
ATOM     19  C   UNL     1       6.463   4.996  16.832  0.00  0.00    +0.000 C 
ATOM     20  C   UNL     1       6.864   5.135  15.366  0.00  0.00    +0.000 C 
ENDBRANCH  17  19
ENDBRANCH  12  17
ENDBRANCH   1  15
TORSDOF 3
ENDMDL
MODEL 6
REMARK VINA RESULT:      -7.2      5.632      7.708
REMARK  Name = 
REMARK  5 active torsions:
REMARK  status: ('A' for Active; 'I' for Inactive)
REMARK    1  A    between atoms: C_1  and  C_2
REMARK    2  A    between atoms: C_2  and  C_3
REMARK    3  A    between atoms: C_2  and  C_4
REMARK    4  A    between atoms: C_4  and  N_5
REMARK    5  A    between atoms: C_8  and  C_9
REMARK                            x       y       z     vdW  Elec       q    Type
REMARK                         _______ _______ _______ _____ _____    ______ ____
ROOT
ATOM      1  C   UNL     1       1.844   8.291  19.281  0.00  0.00    +0.000 C 
ATOM      2  O   UNL     1       1.592   8.717  18.158  0.00  0.00    +0.000 OA
ATOM      3  N   UNL     1       1.176   8.817  20.358  0.00  0.00    +0.000 N 
ATOM      4  C   UNL     1       0.221   9.802  20.202  0.00  0.00    +0.000 C 
ATOM      5  C   UNL     1       0.786  10.817  21.200  0.00  0.00    +0.000 C 
ATOM      6  C   UNL     1      -0.071  12.013  21.299  0.00  0.00    +0.000 C 
ATOM      7  C   UNL     1      -1.477  12.489  21.442  0.00  0.00    +0.000 C 
ATOM      8  C   UNL     1      -1.810  11.784  22.547  0.00  0.00    +0.000 C 
ATOM      9  C   UNL     1      -0.957  10.361  23.051  0.00  0.00    +0.000 C 
ATOM     10  C   UNL     1       0.669  10.014  22.490  0.00  0.00    +0.000 C 
ATOM     11  C   UNL     1       1.331   8.658  21.838  0.00  0.00    +0.000 C 
ENDROOT
BRANCH   1  15
ATOM     12  N   UNL     1       1.896   4.744  19.146  0.00  0.00    +0.000 NA
ATOM     13  C   UNL     1       2.313   5.342  17.881  0.00  0.00    +0.000 C 
ATOM     14  C   UNL     1       3.402   6.281  18.331  0.00  0.00    +0.000 C 
ATOM     15  C   UNL     1       2.748   7.018  19.500  0.00  0.00    +0.000 C 
ATOM     16  C   UNL     1       1.929   5.864  20.131  0.00  0.00    +0.000 C 
BRANCH  12  17
ATOM     17  C   UNL     1       2.793   3.635  19.517  0.00  0.00    +0.000 C 
BRANCH  17  19
ATOM     18  C   UNL     1       1.618   2.536  21.430  0.00  0.00    +0.000 C 
ATOM     19  C   UNL     1       1.965   2.417  19.946  0.00  0.00    +0.000 C 
ATOM     20  C   UNL     1       0.691   2.286  19.115  0.00  0.00    +0.000 C 
ENDBRANCH  17  19
ENDBRANCH  12  17
ENDBRANCH   1  15
TORSDOF 3
ENDMDL
MODEL 7
REMARK VINA RESULT:      -7.2      0.981      1.236
REMARK  Name = 
REMARK  5 active torsions:
REMARK  status: ('A' for Active; 'I' for Inactive)
REMARK    1  A    between atoms: C_1  and  C_2
REMARK    2  A    between atoms: C_2  and  C_3
REMARK    3  A    between atoms: C_2  and  C_4
REMARK    4  A    between atoms: C_4  and  N_5
REMARK    5  A    between atoms: C_8  and  C_9
REMARK                            x       y       z     vdW  Elec       q    Type
REMARK                         _______ _______ _______ _____ _____    ______ ____
ROOT
ATOM      1  C   UNL     1       5.630   4.680  17.287  0.00  0.00    +0.000 C 
ATOM      2  O   UNL     1       5.779   5.813  17.733  0.00  0.00    +0.000 OA
ATOM      3  N   UNL     1       4.538   3.948  17.683  0.00  0.00    +0.000 N 
ATOM      4  C   UNL     1       3.604   4.464  18.559  0.00  0.00    +0.000 C 
ATOM      5  C   UNL     1       3.611   3.327  19.585  0.00  0.00    +0.000 C 
ATOM      6  C   UNL     1       2.642   3.571  20.670  0.00  0.00    +0.000 C 
ATOM      7  C   UNL     1       1.243   3.986  20.975  0.00  0.00    +0.000 C 
ATOM      8  C   UNL     1       0.598   3.096  20.186  0.00  0.00    +0.000 C 
ATOM      9  C   UNL     1       1.359   2.298  18.849  0.00  0.00    +0.000 C 
ATOM     10  C   UNL     1       3.105   2.182  18.715  0.00  0.00    +0.000 C 
ATOM     11  C   UNL     1       4.128   2.524  17.475  0.00  0.00    +0.000 C 
ENDROOT
BRANCH   1  15
ATOM     12  N   UNL     1       5.749   4.086  13.789  0.00  0.00    +0.000 NA
ATOM     13  C   UNL     1       6.277   5.402  14.135  0.00  0.00    +0.000 C 
ATOM     14  C   UNL     1       7.303   5.054  15.183  0.00  0.00    +0.000 C 
ATOM     15  C   UNL     1       6.527   4.124  16.117  0.00  0.00    +0.000 C 
ATOM     16  C   UNL     1       5.669   3.350  15.085  0.00  0.00    +0.000 C 
BRANCH  12  17
ATOM     17  C   UNL     1       6.623   3.416  12.809  0.00  0.00    +0.000 C 
BRANCH  17  19
ATOM     18  C   UNL     1       5.951   1.492  11.364  0.00  0.00    +0.000 C 
ATOM     19  C   UNL     1       5.804   2.997  11.582  0.00  0.00    +0.000 C 
ATOM     20  C   UNL     1       4.331   3.367  11.740  0.00  0.00    +0.000 C 
ENDBRANCH  17  19
ENDBRANCH  12  17
ENDBRANCH   1  15
TORSDOF 3
ENDMDL
MODEL 8
REMARK VINA RESULT:      -7.2      4.833      5.943
REMARK  Name = 
REMARK  5 active torsions:
REMARK  status: ('A' for Active; 'I' for Inactive)
REMARK    1  A    between atoms: C_1  and  C_2
REMARK    2  A    between atoms: C_2  and  C_3
REMARK    3  A    between atoms: C_2  and  C_4
REMARK    4  A    between atoms: C_4  and  N_5
REMARK    5  A    between atoms: C_8  and  C_9
REMARK                            x       y       z     vdW  Elec       q    Type
REMARK                         _______ _______ _______ _____ _____    ______ ____
ROOT
ATOM      1  C   UNL     1       2.181   6.503  19.176  0.00  0.00    +0.000 C 
ATOM      2  O   UNL     1       2.129   6.046  20.313  0.00  0.00    +0.000 OA
ATOM      3  N   UNL     1       1.993   7.851  18.991  0.00  0.00    +0.000 N 
ATOM      4  C   UNL     1       1.758   8.697  20.056  0.00  0.00    +0.000 C 
ATOM      5  C   UNL     1       0.481   9.361  19.533  0.00  0.00    +0.000 C 
ATOM      6  C   UNL     1      -0.014  10.391  20.466  0.00  0.00    +0.000 C 
ATOM      7  C   UNL     1       0.382  11.559  21.304  0.00  0.00    +0.000 C 
ATOM      8  C   UNL     1       0.997  12.288  20.344  0.00  0.00    +0.000 C 
ATOM      9  C   UNL     1       1.598  11.594  18.874  0.00  0.00    +0.000 C 
ATOM     10  C   UNL     1       1.028  10.043  18.285  0.00  0.00    +0.000 C 
ATOM     11  C   UNL     1       1.837   8.707  17.774  0.00  0.00    +0.000 C 
ENDROOT
BRANCH   1  15
ATOM     12  N   UNL     1       4.921   4.660  17.873  0.00  0.00    +0.000 NA
ATOM     13  C   UNL     1       4.021   3.816  18.654  0.00  0.00    +0.000 C 
ATOM     14  C   UNL     1       2.692   4.107  18.008  0.00  0.00    +0.000 C 
ATOM     15  C   UNL     1       2.670   5.635  17.955  0.00  0.00    +0.000 C 
ATOM     16  C   UNL     1       4.159   5.921  17.637  0.00  0.00    +0.000 C 
BRANCH  12  17
ATOM     17  C   UNL     1       5.307   3.986  16.619  0.00  0.00    +0.000 C 
BRANCH  17  19
ATOM     18  C   UNL     1       6.946   5.280  15.247  0.00  0.00    +0.000 C 
ATOM     19  C   UNL     1       6.796   4.221  16.339  0.00  0.00    +0.000 C 
ATOM     20  C   UNL     1       7.541   4.653  17.600  0.00  0.00    +0.000 C 
ENDBRANCH  17  19
ENDBRANCH  12  17
ENDBRANCH   1  15
TORSDOF 3
ENDMDL
MODEL 9
REMARK VINA RESULT:      -7.1      6.603      8.727
REMARK  Name = 
REMARK  5 active torsions:
REMARK  status: ('A' for Active; 'I' for Inactive)
REMARK    1  A    between atoms: C_1  and  C_2
REMARK    2  A    between atoms: C_2  and  C_3
REMARK    3  A    between atoms: C_2  and  C_4
REMARK    4  A    between atoms: C_4  and  N_5
REMARK    5  A    between atoms: C_8  and  C_9
REMARK                            x       y       z     vdW  Elec       q    Type
REMARK                         _______ _______ _______ _____ _____    ______ ____
ROOT
ATOM      1  C   UNL     1       1.769   8.974  18.410  0.00  0.00    +0.000 C 
ATOM      2  O   UNL     1       2.006   9.296  17.250  0.00  0.00    +0.000 OA
ATOM      3  N   UNL     1       2.249   7.775  18.878  0.00  0.00    +0.000 N 
ATOM      4  C   UNL     1       2.997   6.937  18.077  0.00  0.00    +0.000 C 
ATOM      5  C   UNL     1       2.178   5.657  18.269  0.00  0.00    +0.000 C 
ATOM      6  C   UNL     1       2.773   4.520  17.543  0.00  0.00    +0.000 C 
ATOM      7  C   UNL     1       4.045   3.794  17.258  0.00  0.00    +0.000 C 
ATOM      8  C   UNL     1       4.437   3.580  18.535  0.00  0.00    +0.000 C 
ATOM      9  C   UNL     1       3.851   4.515  19.871  0.00  0.00    +0.000 C 
ATOM     10  C   UNL     1       2.367   5.445  19.766  0.00  0.00    +0.000 C 
ATOM     11  C   UNL     1       2.031   7.009  20.144  0.00  0.00    +0.000 C 
ENDROOT
BRANCH   1  15
ATOM     12  N   UNL     1      -0.379  11.783  18.715  0.00  0.00    +0.000 NA
ATOM     13  C   UNL     1      -1.108  10.524  18.847  0.00  0.00    +0.000 C 
ATOM     14  C   UNL     1      -0.317   9.825  19.922  0.00  0.00    +0.000 C 
ATOM     15  C   UNL     1       1.124   9.981  19.435  0.00  0.00    +0.000 C 
ATOM     16  C   UNL     1       1.060  11.409  18.838  0.00  0.00    +0.000 C 
BRANCH  12  17
ATOM     17  C   UNL     1      -0.807  12.742  19.749  0.00  0.00    +0.000 C 
BRANCH  17  19
ATOM     18  C   UNL     1      -0.001  15.056  19.259  0.00  0.00    +0.000 C 
ATOM     19  C   UNL     1       0.310  13.761  20.009  0.00  0.00    +0.000 C 
ATOM     20  C   UNL     1       0.475  14.041  21.500  0.00  0.00    +0.000 C 
ENDBRANCH  17  19
ENDBRANCH  12  17
ENDBRANCH   1  15
TORSDOF 3
ENDMDL
