MODEL 1
REMARK VINA RESULT:      -9.0      0.000      0.000
REMARK  Name = 
REMARK  10 active torsions:
REMARK  status: ('A' for Active; 'I' for Inactive)
REMARK    1  A    between atoms: C_1  and  C_2
REMARK    2  A    between atoms: C_2  and  C_3
REMARK    3  A    between atoms: C_3  and  C_4
REMARK    4  A    between atoms: N_6  and  C_7
REMARK    5  A    between atoms: C_10  and  C_11
REMARK    6  A    between atoms: C_14  and  N_15
REMARK    7  A    between atoms: N_18  and  C_19
REMARK    8  A    between atoms: C_22  and  N_23
REMARK    9  A    between atoms: N_23  and  C_24
REMARK   10  A    between atoms: C_30  and  N_31
REMARK                            x       y       z     vdW  Elec       q    Type
REMARK                         _______ _______ _______ _____ _____    ______ ____
ROOT
ATOM      1  C   UNL     1       1.485   8.604  19.910  0.00  0.00    +0.000 A 
ATOM      2  C   UNL     1       1.292   8.524  21.287  0.00  0.00    +0.000 A 
ATOM      3  C   UNL     1       0.527   9.487  21.959  0.00  0.00    +0.000 A 
ATOM      4  C   UNL     1      -0.144  10.534  21.293  0.00  0.00    +0.000 A 
ATOM      5  C   UNL     1      -0.048  10.548  19.880  0.00  0.00    +0.000 A 
ATOM      6  C   UNL     1       0.851   9.668  19.250  0.00  0.00    +0.000 A 
ENDROOT
BRANCH   4   7
ATOM      7  N   UNL     1      -0.800  11.489  22.060  0.00  0.00    +0.000 N 
ATOM      8  C   UNL     1      -1.658  11.135  23.193  0.00  0.00    +0.000 C 
ATOM      9  C   UNL     1      -2.854  12.109  23.275  0.00  0.00    +0.000 C 
ATOM     10  N   UNL     1      -2.440  13.527  23.342  0.00  0.00    +0.000 NA
ATOM     11  C   UNL     1      -3.618  14.386  23.361  0.00  0.00    +0.000 C 
ATOM     12  C   UNL     1      -1.578  13.832  22.174  0.00  0.00    +0.000 C 
ATOM     13  C   UNL     1      -0.350  12.892  22.076  0.00  0.00    +0.000 C 
ENDBRANCH   4   7
BRANCH   1  17
ATOM     14  C   UNL     1       3.806   5.757  17.634  0.00  0.00    +0.000 A 
ATOM     15  C   UNL     1       3.651   7.069  17.203  0.00  0.00    +0.000 A 
ATOM     16  C   UNL     1       2.882   7.968  17.939  0.00  0.00    +0.000 A 
ATOM     17  C   UNL     1       2.258   7.603  19.144  0.00  0.00    +0.000 A 
ATOM     18  C   UNL     1       2.402   6.270  19.557  0.00  0.00    +0.000 A 
ATOM     19  C   UNL     1       3.153   5.353  18.803  0.00  0.00    +0.000 A 
BRANCH  14  22
ATOM     20  C   UNL     1       5.491   5.094  15.930  0.00  0.00    +0.000 C 
ATOM     21  O   UNL     1       5.877   6.208  15.588  0.00  0.00    +0.000 OA
ATOM     22  N   UNL     1       4.577   4.811  16.930  0.00  0.00    +0.000 N 
ATOM     23  H   UNL     1       4.512   3.851  17.242  0.00  0.00    +0.000 HD
BRANCH  20  24
ATOM     24  C   UNL     1       6.037   3.863  15.239  0.00  0.00    +0.000 C 
BRANCH  24  26
ATOM     25  C   UNL     1       5.581   3.515  12.761  0.00  0.00    +0.000 C 
ATOM     26  C   UNL     1       6.496   4.135  13.810  0.00  0.00    +0.000 C 
ENDBRANCH  24  26
ENDBRANCH  20  24
ENDBRANCH  14  22
ENDBRANCH   1  17
BRANCH   5  27
ATOM     27  N   UNL     1      -0.814  11.453  19.083  0.00  0.00    +0.000 N 
ATOM     28  H   UNL     1      -0.182  12.064  18.571  0.00  0.00    +0.000 HD
BRANCH  27  29
ATOM     29  C   UNL     1      -1.862  11.101  18.172  0.00  0.00    +0.000 A 
ATOM     30  N   UNL     1      -1.643  10.222  17.173  0.00  0.00    +0.000 NA
ATOM     31  C   UNL     1      -2.658   9.950  16.344  0.00  0.00    +0.000 A 
ATOM     32  N   UNL     1      -3.890  10.444  16.433  0.00  0.00    +0.000 NA
ATOM     33  C   UNL     1      -4.078  11.287  17.462  0.00  0.00    +0.000 A 
ATOM     34 CL   UNL     1      -5.703  11.857  17.575  0.00  0.00    +0.000 Cl
ATOM     35  C   UNL     1      -3.126  11.649  18.409  0.00  0.00    +0.000 A 
BRANCH  35  36
ATOM     36  N   UNL     1      -3.334  12.644  19.398  0.00  0.00    +0.000 N 
ATOM     37  H   UNL     1      -2.753  12.481  20.221  0.00  0.00    +0.000 HD
ATOM     38  H   UNL     1      -3.184  13.574  19.010  0.00  0.00    +0.000 HD
ENDBRANCH  35  36
ENDBRANCH  27  29
ENDBRANCH   5  27
TORSDOF 8
ENDMDL
MODEL 2
REMARK VINA RESULT:      -8.8      2.074      2.907
REMARK  Name = 
REMARK  10 active torsions:
REMARK  status: ('A' for Active; 'I' for Inactive)
REMARK    1  A    between atoms: C_1  and  C_2
REMARK    2  A    between atoms: C_2  and  C_3
REMARK    3  A    between atoms: C_3  and  C_4
REMARK    4  A    between atoms: N_6  and  C_7
REMARK    5  A    between atoms: C_10  and  C_11
REMARK    6  A    between atoms: C_14  and  N_15
REMARK    7  A    between atoms: N_18  and  C_19
REMARK    8  A    between atoms: C_22  and  N_23
REMARK    9  A    between atoms: N_23  and  C_24
REMARK   10  A    between atoms: C_30  and  N_31
REMARK                            x       y       z     vdW  Elec       q    Type
REMARK                         _______ _______ _______ _____ _____    ______ ____
ROOT
ATOM      1  C   UNL     1       0.312   9.513  21.091  0.00  0.00    +0.000 A 
ATOM      2  C   UNL     1       0.040   9.488  22.457  0.00  0.00    +0.000 A 
ATOM      3  C   UNL     1      -0.730  10.497  23.052  0.00  0.00    +0.000 A 
ATOM      4  C   UNL     1      -1.328  11.540  22.313  0.00  0.00    +0.000 A 
ATOM      5  C   UNL     1      -1.153  11.500  20.908  0.00  0.00    +0.000 A 
ATOM      6  C   UNL     1      -0.250  10.571  20.360  0.00  0.00    +0.000 A 
ENDROOT
BRANCH   4   7
ATOM      7  N   UNL     1      -1.994  12.541  23.009  0.00  0.00    +0.000 N 
ATOM      8  C   UNL     1      -3.250  12.302  23.723  0.00  0.00    +0.000 C 
ATOM      9  C   UNL     1      -4.162  13.543  23.618  0.00  0.00    +0.000 C 
ATOM     10  N   UNL     1      -3.508  14.783  24.089  0.00  0.00    +0.000 NA
ATOM     11  C   UNL     1      -4.408  15.916  23.908  0.00  0.00    +0.000 C 
ATOM     12  C   UNL     1      -2.247  14.978  23.334  0.00  0.00    +0.000 C 
ATOM     13  C   UNL     1      -1.292  13.763  23.441  0.00  0.00    +0.000 C 
ENDBRANCH   4   7
BRANCH   1  17
ATOM     14  C   UNL     1       2.533   6.366  19.132  0.00  0.00    +0.000 A 
ATOM     15  C   UNL     1       1.962   6.173  20.384  0.00  0.00    +0.000 A 
ATOM     16  C   UNL     1       1.268   7.206  21.010  0.00  0.00    +0.000 A 
ATOM     17  C   UNL     1       1.092   8.462  20.404  0.00  0.00    +0.000 A 
ATOM     18  C   UNL     1       1.692   8.652  19.150  0.00  0.00    +0.000 A 
ATOM     19  C   UNL     1       2.418   7.622  18.528  0.00  0.00    +0.000 A 
BRANCH  14  22
ATOM     20  C   UNL     1       2.677   4.305  17.749  0.00  0.00    +0.000 C 
ATOM     21  O   UNL     1       1.487   4.159  17.485  0.00  0.00    +0.000 OA
ATOM     22  N   UNL     1       3.241   5.354  18.454  0.00  0.00    +0.000 N 
ATOM     23  H   UNL     1       4.246   5.452  18.416  0.00  0.00    +0.000 HD
BRANCH  20  24
ATOM     24  C   UNL     1       3.685   3.278  17.276  0.00  0.00    +0.000 C 
BRANCH  24  26
ATOM     25  C   UNL     1       4.015   2.107  19.509  0.00  0.00    +0.000 C 
ATOM     26  C   UNL     1       3.606   1.965  18.048  0.00  0.00    +0.000 C 
ENDBRANCH  24  26
ENDBRANCH  20  24
ENDBRANCH  14  22
ENDBRANCH   1  17
BRANCH   5  27
ATOM     27  N   UNL     1      -1.844  12.399  20.039  0.00  0.00    +0.000 N 
ATOM     28  H   UNL     1      -1.165  12.923  19.492  0.00  0.00    +0.000 HD
BRANCH  27  29
ATOM     29  C   UNL     1      -2.909  12.060  19.143  0.00  0.00    +0.000 A 
ATOM     30  N   UNL     1      -4.195  12.107  19.548  0.00  0.00    +0.000 NA
ATOM     31  C   UNL     1      -5.143  11.760  18.669  0.00  0.00    +0.000 A 
ATOM     32  N   UNL     1      -4.938  11.401  17.405  0.00  0.00    +0.000 NA
ATOM     33  C   UNL     1      -3.648  11.401  17.028  0.00  0.00    +0.000 A 
ATOM     34 CL   UNL     1      -3.433  10.989  15.366  0.00  0.00    +0.000 Cl
ATOM     35  C   UNL     1      -2.562  11.753  17.824  0.00  0.00    +0.000 A 
BRANCH  35  36
ATOM     36  N   UNL     1      -1.210  11.610  17.422  0.00  0.00    +0.000 N 
ATOM     37  H   UNL     1      -0.687  11.018  18.068  0.00  0.00    +0.000 HD
ATOM     38  H   UNL     1      -1.153  11.265  16.466  0.00  0.00    +0.000 HD
ENDBRANCH  35  36
ENDBRANCH  27  29
ENDBRANCH   5  27
TORSDOF 8
ENDMDL
MODEL 3
REMARK VINA RESULT:      -8.8      1.563      2.260
REMARK  Name = 
REMARK  10 active torsions:
REMARK  status: ('A' for Active; 'I' for Inactive)
REMARK    1  A    between atoms: C_1  and  C_2
REMARK    2  A    between atoms: C_2  and  C_3
REMARK    3  A    between atoms: C_3  and  C_4
REMARK    4  A    between atoms: N_6  and  C_7
REMARK    5  A    between atoms: C_10  and  C_11
REMARK    6  A    between atoms: C_14  and  N_15
REMARK    7  A    between atoms: N_18  and  C_19
REMARK    8  A    between atoms: C_22  and  N_23
REMARK    9  A    between atoms: N_23  and  C_24
REMARK   10  A    between atoms: C_30  and  N_31
REMARK                            x       y       z     vdW  Elec       q    Type
REMARK                         _______ _______ _______ _____ _____    ______ ____
ROOT
ATOM      1  C   UNL     1       0.312   9.680  20.908  0.00  0.00    +0.000 A 
ATOM      2  C   UNL     1       0.130   9.640  22.288  0.00  0.00    +0.000 A 
ATOM      3  C   UNL     1      -0.664  10.598  22.933  0.00  0.00    +0.000 A 
ATOM      4  C   UNL     1      -1.374  11.599  22.236  0.00  0.00    +0.000 A 
ATOM      5  C   UNL     1      -1.287  11.569  20.823  0.00  0.00    +0.000 A 
ATOM      6  C   UNL     1      -0.361  10.700  20.217  0.00  0.00    +0.000 A 
ENDROOT
BRANCH   4   7
ATOM      7  N   UNL     1      -2.058  12.556  22.975  0.00  0.00    +0.000 N 
ATOM      8  C   UNL     1      -3.291  12.254  23.707  0.00  0.00    +0.000 C 
ATOM      9  C   UNL     1      -4.245  13.466  23.657  0.00  0.00    +0.000 C 
ATOM     10  N   UNL     1      -3.623  14.712  24.154  0.00  0.00    +0.000 NA
ATOM     11  C   UNL     1      -4.562  15.820  24.026  0.00  0.00    +0.000 C 
ATOM     12  C   UNL     1      -2.384  14.972  23.381  0.00  0.00    +0.000 C 
ATOM     13  C   UNL     1      -1.388  13.786  23.432  0.00  0.00    +0.000 C 
ENDBRANCH   4   7
BRANCH   1  17
ATOM     14  C   UNL     1       2.608   6.682  18.807  0.00  0.00    +0.000 A 
ATOM     15  C   UNL     1       2.186   6.481  20.116  0.00  0.00    +0.000 A 
ATOM     16  C   UNL     1       1.465   7.468  20.785  0.00  0.00    +0.000 A 
ATOM     17  C   UNL     1       1.114   8.681  20.170  0.00  0.00    +0.000 A 
ATOM     18  C   UNL     1       1.565   8.882  18.856  0.00  0.00    +0.000 A 
ATOM     19  C   UNL     1       2.318   7.902  18.188  0.00  0.00    +0.000 A 
BRANCH  14  22
ATOM     20  C   UNL     1       2.821   4.546  17.551  0.00  0.00    +0.000 C 
ATOM     21  O   UNL     1       1.636   4.228  17.500  0.00  0.00    +0.000 OA
ATOM     22  N   UNL     1       3.335   5.715  18.085  0.00  0.00    +0.000 N 
ATOM     23  H   UNL     1       4.299   5.938  17.873  0.00  0.00    +0.000 HD
BRANCH  20  24
ATOM     24  C   UNL     1       3.875   3.621  16.981  0.00  0.00    +0.000 C 
BRANCH  24  26
ATOM     25  C   UNL     1       5.497   4.301  15.145  0.00  0.00    +0.000 C 
ATOM     26  C   UNL     1       5.175   4.340  16.633  0.00  0.00    +0.000 C 
ENDBRANCH  24  26
ENDBRANCH  20  24
ENDBRANCH  14  22
ENDBRANCH   1  17
BRANCH   5  27
ATOM     27  N   UNL     1      -2.087  12.420  20.002  0.00  0.00    +0.000 N 
ATOM     28  H   UNL     1      -1.518  13.192  19.665  0.00  0.00    +0.000 HD
BRANCH  27  29
ATOM     29  C   UNL     1      -2.903  12.009  18.898  0.00  0.00    +0.000 A 
ATOM     30  N   UNL     1      -2.344  11.617  17.734  0.00  0.00    +0.000 NA
ATOM     31  C   UNL     1      -3.161  11.264  16.734  0.00  0.00    +0.000 A 
ATOM     32  N   UNL     1      -4.490  11.229  16.790  0.00  0.00    +0.000 NA
ATOM     33  C   UNL     1      -5.007  11.591  17.976  0.00  0.00    +0.000 A 
ATOM     34 CL   UNL     1      -6.728  11.472  18.023  0.00  0.00    +0.000 Cl
ATOM     35  C   UNL     1      -4.284  11.965  19.105  0.00  0.00    +0.000 A 
BRANCH  35  36
ATOM     36  N   UNL     1      -4.877  12.465  20.292  0.00  0.00    +0.000 N 
ATOM     37  H   UNL     1      -4.856  11.774  21.042  0.00  0.00    +0.000 HD
ATOM     38  H   UNL     1      -4.435  13.339  20.573  0.00  0.00    +0.000 HD
ENDBRANCH  35  36
ENDBRANCH  27  29
ENDBRANCH   5  27
TORSDOF 8
ENDMDL
MODEL 4
REMARK VINA RESULT:      -8.8      1.578      2.391
REMARK  Name = 
REMARK  10 active torsions:
REMARK  status: ('A' for Active; 'I' for Inactive)
REMARK    1  A    between atoms: C_1  and  C_2
REMARK    2  A    between atoms: C_2  and  C_3
REMARK    3  A    between atoms: C_3  and  C_4
REMARK    4  A    between atoms: N_6  and  C_7
REMARK    5  A    between atoms: C_10  and  C_11
REMARK    6  A    between atoms: C_14  and  N_15
REMARK    7  A    between atoms: N_18  and  C_19
REMARK    8  A    between atoms: C_22  and  N_23
REMARK    9  A    between atoms: N_23  and  C_24
REMARK   10  A    between atoms: C_30  and  N_31
REMARK                            x       y       z     vdW  Elec       q    Type
REMARK                         _______ _______ _______ _____ _____    ______ ____
ROOT
ATOM      1  C   UNL     1       0.484   9.604  20.767  0.00  0.00    +0.000 A 
ATOM      2  C   UNL     1       0.243   9.547  22.137  0.00  0.00    +0.000 A 
ATOM      3  C   UNL     1      -0.566  10.506  22.762  0.00  0.00    +0.000 A 
ATOM      4  C   UNL     1      -1.233  11.526  22.051  0.00  0.00    +0.000 A 
ATOM      5  C   UNL     1      -1.086  11.514  20.642  0.00  0.00    +0.000 A 
ATOM      6  C   UNL     1      -0.147  10.642  20.063  0.00  0.00    +0.000 A 
ENDROOT
BRANCH   4   7
ATOM      7  N   UNL     1      -1.936  12.482  22.774  0.00  0.00    +0.000 N 
ATOM      8  C   UNL     1      -3.164  12.169  23.507  0.00  0.00    +0.000 C 
ATOM      9  C   UNL     1      -4.140  13.363  23.438  0.00  0.00    +0.000 C 
ATOM     10  N   UNL     1      -3.541  14.627  23.917  0.00  0.00    +0.000 NA
ATOM     11  C   UNL     1      -4.500  15.716  23.770  0.00  0.00    +0.000 C 
ATOM     12  C   UNL     1      -2.306  14.897  23.142  0.00  0.00    +0.000 C 
ATOM     13  C   UNL     1      -1.289  13.731  23.213  0.00  0.00    +0.000 C 
ENDBRANCH   4   7
BRANCH   1  17
ATOM     14  C   UNL     1       2.835   6.606  18.728  0.00  0.00    +0.000 A 
ATOM     15  C   UNL     1       2.419   6.425  20.041  0.00  0.00    +0.000 A 
ATOM     16  C   UNL     1       1.680   7.412  20.690  0.00  0.00    +0.000 A 
ATOM     17  C   UNL     1       1.304   8.605  20.049  0.00  0.00    +0.000 A 
ATOM     18  C   UNL     1       1.749   8.786  18.731  0.00  0.00    +0.000 A 
ATOM     19  C   UNL     1       2.520   7.806  18.083  0.00  0.00    +0.000 A 
BRANCH  14  22
ATOM     20  C   UNL     1       3.089   4.443  17.528  0.00  0.00    +0.000 C 
ATOM     21  O   UNL     1       1.912   4.094  17.497  0.00  0.00    +0.000 OA
ATOM     22  N   UNL     1       3.579   5.637  18.025  0.00  0.00    +0.000 N 
ATOM     23  H   UNL     1       4.535   5.878  17.799  0.00  0.00    +0.000 HD
BRANCH  20  24
ATOM     24  C   UNL     1       4.161   3.528  16.973  0.00  0.00    +0.000 C 
BRANCH  24  26
ATOM     25  C   UNL     1       5.808   4.055  15.109  0.00  0.00    +0.000 C 
ATOM     26  C   UNL     1       5.429   4.273  16.568  0.00  0.00    +0.000 C 
ENDBRANCH  24  26
ENDBRANCH  20  24
ENDBRANCH  14  22
ENDBRANCH   1  17
BRANCH   5  27
ATOM     27  N   UNL     1      -1.840  12.387  19.800  0.00  0.00    +0.000 N 
ATOM     28  H   UNL     1      -1.212  12.847  19.146  0.00  0.00    +0.000 HD
BRANCH  27  29
ATOM     29  C   UNL     1      -3.014  12.040  19.055  0.00  0.00    +0.000 A 
ATOM     30  N   UNL     1      -4.241  12.164  19.600  0.00  0.00    +0.000 NA
ATOM     31  C   UNL     1      -5.296  11.806  18.859  0.00  0.00    +0.000 A 
ATOM     32  N   UNL     1      -5.252  11.363  17.605  0.00  0.00    +0.000 NA
ATOM     33  C   UNL     1      -4.016  11.287  17.085  0.00  0.00    +0.000 A 
ATOM     34 CL   UNL     1      -4.010  10.768  15.439  0.00  0.00    +0.000 Cl
ATOM     35  C   UNL     1      -2.833  11.640  17.728  0.00  0.00    +0.000 A 
BRANCH  35  36
ATOM     36  N   UNL     1      -1.543  11.418  17.184  0.00  0.00    +0.000 N 
ATOM     37  H   UNL     1      -1.521  10.582  16.600  0.00  0.00    +0.000 HD
ATOM     38  H   UNL     1      -1.220  12.240  16.677  0.00  0.00    +0.000 HD
ENDBRANCH  35  36
ENDBRANCH  27  29
ENDBRANCH   5  27
TORSDOF 8
ENDMDL
MODEL 5
REMARK VINA RESULT:      -8.8      1.429      2.026
REMARK  Name = 
REMARK  10 active torsions:
REMARK  status: ('A' for Active; 'I' for Inactive)
REMARK    1  A    between atoms: C_1  and  C_2
REMARK    2  A    between atoms: C_2  and  C_3
REMARK    3  A    between atoms: C_3  and  C_4
REMARK    4  A    between atoms: N_6  and  C_7
REMARK    5  A    between atoms: C_10  and  C_11
REMARK    6  A    between atoms: C_14  and  N_15
REMARK    7  A    between atoms: N_18  and  C_19
REMARK    8  A    between atoms: C_22  and  N_23
REMARK    9  A    between atoms: N_23  and  C_24
REMARK   10  A    between atoms: C_30  and  N_31
REMARK                            x       y       z     vdW  Elec       q    Type
REMARK                         _______ _______ _______ _____ _____    ______ ____
ROOT
ATOM      1  C   UNL     1       0.637   9.402  20.742  0.00  0.00    +0.000 A 
ATOM      2  C   UNL     1       0.355   9.306  22.103  0.00  0.00    +0.000 A 
ATOM      3  C   UNL     1      -0.437  10.272  22.739  0.00  0.00    +0.000 A 
ATOM      4  C   UNL     1      -1.047  11.339  22.046  0.00  0.00    +0.000 A 
ATOM      5  C   UNL     1      -0.860  11.371  20.643  0.00  0.00    +0.000 A 
ATOM      6  C   UNL     1       0.064  10.485  20.059  0.00  0.00    +0.000 A 
ENDROOT
BRANCH   4   7
ATOM      7  N   UNL     1      -1.736  12.294  22.783  0.00  0.00    +0.000 N 
ATOM      8  C   UNL     1      -2.972  11.989  23.508  0.00  0.00    +0.000 C 
ATOM      9  C   UNL     1      -3.928  13.200  23.456  0.00  0.00    +0.000 C 
ATOM     10  N   UNL     1      -3.309  14.446  23.958  0.00  0.00    +0.000 NA
ATOM     11  C   UNL     1      -4.250  15.553  23.827  0.00  0.00    +0.000 C 
ATOM     12  C   UNL     1      -2.068  14.709  23.191  0.00  0.00    +0.000 C 
ATOM     13  C   UNL     1      -1.070  13.525  23.245  0.00  0.00    +0.000 C 
ENDBRANCH   4   7
BRANCH   1  17
ATOM     14  C   UNL     1       3.041   6.550  18.561  0.00  0.00    +0.000 A 
ATOM     15  C   UNL     1       2.738   7.796  18.025  0.00  0.00    +0.000 A 
ATOM     16  C   UNL     1       1.943   8.694  18.734  0.00  0.00    +0.000 A 
ATOM     17  C   UNL     1       1.442   8.399  20.012  0.00  0.00    +0.000 A 
ATOM     18  C   UNL     1       1.736   7.129  20.533  0.00  0.00    +0.000 A 
ATOM     19  C   UNL     1       2.512   6.208  19.809  0.00  0.00    +0.000 A 
BRANCH  14  22
ATOM     20  C   UNL     1       5.110   5.201  18.270  0.00  0.00    +0.000 C 
ATOM     21  O   UNL     1       5.683   5.488  19.318  0.00  0.00    +0.000 OA
ATOM     22  N   UNL     1       3.844   5.607  17.887  0.00  0.00    +0.000 N 
ATOM     23  H   UNL     1       3.420   5.131  17.102  0.00  0.00    +0.000 HD
BRANCH  20  24
ATOM     24  C   UNL     1       5.796   4.309  17.256  0.00  0.00    +0.000 C 
BRANCH  24  26
ATOM     25  C   UNL     1       5.838   4.244  14.715  0.00  0.00    +0.000 C 
ATOM     26  C   UNL     1       4.988   4.133  15.974  0.00  0.00    +0.000 C 
ENDBRANCH  24  26
ENDBRANCH  20  24
ENDBRANCH  14  22
ENDBRANCH   1  17
BRANCH   5  27
ATOM     27  N   UNL     1      -1.558  12.299  19.812  0.00  0.00    +0.000 N 
ATOM     28  H   UNL     1      -0.916  12.678  19.120  0.00  0.00    +0.000 HD
BRANCH  27  29
ATOM     29  C   UNL     1      -2.794  12.060  19.127  0.00  0.00    +0.000 A 
ATOM     30  N   UNL     1      -3.975  12.333  19.717  0.00  0.00    +0.000 NA
ATOM     31  C   UNL     1      -5.094  12.070  19.031  0.00  0.00    +0.000 A 
ATOM     32  N   UNL     1      -5.153  11.589  17.793  0.00  0.00    +0.000 NA
ATOM     33  C   UNL     1      -3.956  11.364  17.225  0.00  0.00    +0.000 A 
ATOM     34 CL   UNL     1      -4.078  10.799  15.600  0.00  0.00    +0.000 Cl
ATOM     35  C   UNL     1      -2.716  11.604  17.808  0.00  0.00    +0.000 A 
BRANCH  35  36
ATOM     36  N   UNL     1      -1.481  11.227  17.221  0.00  0.00    +0.000 N 
ATOM     37  H   UNL     1      -0.726  11.853  17.502  0.00  0.00    +0.000 HD
ATOM     38  H   UNL     1      -1.264  10.255  17.434  0.00  0.00    +0.000 HD
ENDBRANCH  35  36
ENDBRANCH  27  29
ENDBRANCH   5  27
TORSDOF 8
ENDMDL
MODEL 6
REMARK VINA RESULT:      -8.7      2.113      2.993
REMARK  Name = 
REMARK  10 active torsions:
REMARK  status: ('A' for Active; 'I' for Inactive)
REMARK    1  A    between atoms: C_1  and  C_2
REMARK    2  A    between atoms: C_2  and  C_3
REMARK    3  A    between atoms: C_3  and  C_4
REMARK    4  A    between atoms: N_6  and  C_7
REMARK    5  A    between atoms: C_10  and  C_11
REMARK    6  A    between atoms: C_14  and  N_15
REMARK    7  A    between atoms: N_18  and  C_19
REMARK    8  A    between atoms: C_22  and  N_23
REMARK    9  A    between atoms: N_23  and  C_24
REMARK   10  A    between atoms: C_30  and  N_31
REMARK                            x       y       z     vdW  Elec       q    Type
REMARK                         _______ _______ _______ _____ _____    ______ ____
ROOT
ATOM      1  C   UNL     1       0.553   9.253  20.936  0.00  0.00    +0.000 A 
ATOM      2  C   UNL     1       0.262   9.331  22.296  0.00  0.00    +0.000 A 
ATOM      3  C   UNL     1      -0.458  10.418  22.811  0.00  0.00    +0.000 A 
ATOM      4  C   UNL     1      -0.987  11.443  21.997  0.00  0.00    +0.000 A 
ATOM      5  C   UNL     1      -0.795  11.303  20.601  0.00  0.00    +0.000 A 
ATOM      6  C   UNL     1       0.063  10.292  20.130  0.00  0.00    +0.000 A 
ENDROOT
BRANCH   4   7
ATOM      7  N   UNL     1      -1.605  12.522  22.616  0.00  0.00    +0.000 N 
ATOM      8  C   UNL     1      -1.004  13.857  22.657  0.00  0.00    +0.000 C 
ATOM      9  C   UNL     1      -1.334  14.545  23.999  0.00  0.00    +0.000 C 
ATOM     10  N   UNL     1      -2.785  14.605  24.275  0.00  0.00    +0.000 NA
ATOM     11  C   UNL     1      -3.015  15.216  25.580  0.00  0.00    +0.000 C 
ATOM     12  C   UNL     1      -3.342  13.232  24.225  0.00  0.00    +0.000 C 
ATOM     13  C   UNL     1      -3.055  12.520  22.879  0.00  0.00    +0.000 C 
ENDBRANCH   4   7
BRANCH   1  17
ATOM     14  C   UNL     1       2.618   5.869  19.217  0.00  0.00    +0.000 A 
ATOM     15  C   UNL     1       1.974   5.773  20.444  0.00  0.00    +0.000 A 
ATOM     16  C   UNL     1       1.332   6.880  20.994  0.00  0.00    +0.000 A 
ATOM     17  C   UNL     1       1.283   8.118  20.331  0.00  0.00    +0.000 A 
ATOM     18  C   UNL     1       1.956   8.210  19.103  0.00  0.00    +0.000 A 
ATOM     19  C   UNL     1       2.630   7.103  18.560  0.00  0.00    +0.000 A 
BRANCH  14  22
ATOM     20  C   UNL     1       2.692   3.828  17.797  0.00  0.00    +0.000 C 
ATOM     21  O   UNL     1       1.547   3.853  17.354  0.00  0.00    +0.000 OA
ATOM     22  N   UNL     1       3.277   4.778  18.616  0.00  0.00    +0.000 N 
ATOM     23  H   UNL     1       4.281   4.736  18.732  0.00  0.00    +0.000 HD
BRANCH  20  24
ATOM     24  C   UNL     1       3.612   2.679  17.443  0.00  0.00    +0.000 C 
BRANCH  24  26
ATOM     25  C   UNL     1       4.311   1.867  19.749  0.00  0.00    +0.000 C 
ATOM     26  C   UNL     1       3.566   1.543  18.460  0.00  0.00    +0.000 C 
ENDBRANCH  24  26
ENDBRANCH  20  24
ENDBRANCH  14  22
ENDBRANCH   1  17
BRANCH   5  27
ATOM     27  N   UNL     1      -1.421  12.180  19.665  0.00  0.00    +0.000 N 
ATOM     28  H   UNL     1      -0.746  12.448  18.953  0.00  0.00    +0.000 HD
BRANCH  27  29
ATOM     29  C   UNL     1      -2.657  11.945  18.979  0.00  0.00    +0.000 A 
ATOM     30  N   UNL     1      -3.835  12.279  19.543  0.00  0.00    +0.000 NA
ATOM     31  C   UNL     1      -4.956  12.016  18.859  0.00  0.00    +0.000 A 
ATOM     32  N   UNL     1      -5.017  11.480  17.644  0.00  0.00    +0.000 NA
ATOM     33  C   UNL     1      -3.822  11.194  17.100  0.00  0.00    +0.000 A 
ATOM     34 CL   UNL     1      -3.946  10.557  15.501  0.00  0.00    +0.000 Cl
ATOM     35  C   UNL     1      -2.580  11.426  17.683  0.00  0.00    +0.000 A 
BRANCH  35  36
ATOM     36  N   UNL     1      -1.352  10.986  17.127  0.00  0.00    +0.000 N 
ATOM     37  H   UNL     1      -1.063  11.575  16.345  0.00  0.00    +0.000 HD
ATOM     38  H   UNL     1      -0.632  10.933  17.844  0.00  0.00    +0.000 HD
ENDBRANCH  35  36
ENDBRANCH  27  29
ENDBRANCH   5  27
TORSDOF 8
ENDMDL
MODEL 7
REMARK VINA RESULT:      -8.6      0.761      1.143
REMARK  Name = 
REMARK  10 active torsions:
REMARK  status: ('A' for Active; 'I' for Inactive)
REMARK    1  A    between atoms: C_1  and  C_2
REMARK    2  A    between atoms: C_2  and  C_3
REMARK    3  A    between atoms: C_3  and  C_4
REMARK    4  A    between atoms: N_6  and  C_7
REMARK    5  A    between atoms: C_10  and  C_11
REMARK    6  A    between atoms: C_14  and  N_15
REMARK    7  A    between atoms: N_18  and  C_19
REMARK    8  A    between atoms: C_22  and  N_23
REMARK    9  A    between atoms: N_23  and  C_24
REMARK   10  A    between atoms: C_30  and  N_31
REMARK                            x       y       z     vdW  Elec       q    Type
REMARK                         _______ _______ _______ _____ _____    ______ ____
ROOT
ATOM      1  C   UNL     1       1.068   9.069  20.271  0.00  0.00    +0.000 A 
ATOM      2  C   UNL     1       0.833   9.000  21.642  0.00  0.00    +0.000 A 
ATOM      3  C   UNL     1       0.042   9.965  22.281  0.00  0.00    +0.000 A 
ATOM      4  C   UNL     1      -0.612  11.004  21.585  0.00  0.00    +0.000 A 
ATOM      5  C   UNL     1      -0.472  11.005  20.176  0.00  0.00    +0.000 A 
ATOM      6  C   UNL     1       0.450  10.125  19.582  0.00  0.00    +0.000 A 
ENDROOT
BRANCH   4   7
ATOM      7  N   UNL     1      -1.296  11.962  22.322  0.00  0.00    +0.000 N 
ATOM      8  C   UNL     1      -2.335  11.615  23.294  0.00  0.00    +0.000 C 
ATOM      9  C   UNL     1      -3.449  12.684  23.281  0.00  0.00    +0.000 C 
ATOM     10  N   UNL     1      -2.939  14.052  23.513  0.00  0.00    +0.000 NA
ATOM     11  C   UNL     1      -4.036  15.010  23.432  0.00  0.00    +0.000 C 
ATOM     12  C   UNL     1      -1.894  14.353  22.504  0.00  0.00    +0.000 C 
ATOM     13  C   UNL     1      -0.743  13.316  22.508  0.00  0.00    +0.000 C 
ENDBRANCH   4   7
BRANCH   1  17
ATOM     14  C   UNL     1       3.355   6.057  18.181  0.00  0.00    +0.000 A 
ATOM     15  C   UNL     1       2.885   5.839  19.470  0.00  0.00    +0.000 A 
ATOM     16  C   UNL     1       2.167   6.830  20.137  0.00  0.00    +0.000 A 
ATOM     17  C   UNL     1       1.868   8.065  19.538  0.00  0.00    +0.000 A 
ATOM     18  C   UNL     1       2.367   8.282  18.244  0.00  0.00    +0.000 A 
ATOM     19  C   UNL     1       3.117   7.296  17.579  0.00  0.00    +0.000 A 
BRANCH  14  22
ATOM     20  C   UNL     1       5.328   5.266  16.890  0.00  0.00    +0.000 C 
ATOM     21  O   UNL     1       6.059   6.242  17.029  0.00  0.00    +0.000 OA
ATOM     22  N   UNL     1       4.080   5.086  17.462  0.00  0.00    +0.000 N 
ATOM     23  H   UNL     1       3.685   4.156  17.432  0.00  0.00    +0.000 HD
BRANCH  20  24
ATOM     24  C   UNL     1       5.778   4.102  16.033  0.00  0.00    +0.000 C 
BRANCH  24  26
ATOM     25  C   UNL     1       6.683   4.228  13.660  0.00  0.00    +0.000 C 
ATOM     26  C   UNL     1       5.452   4.289  14.555  0.00  0.00    +0.000 C 
ENDBRANCH  24  26
ENDBRANCH  20  24
ENDBRANCH  14  22
ENDBRANCH   1  17
BRANCH   5  27
ATOM     27  N   UNL     1      -1.216  11.900  19.347  0.00  0.00    +0.000 N 
ATOM     28  H   UNL     1      -0.578  12.556  18.904  0.00  0.00    +0.000 HD
BRANCH  27  29
ATOM     29  C   UNL     1      -2.173  11.530  18.346  0.00  0.00    +0.000 A 
ATOM     30  N   UNL     1      -1.798  10.827  17.258  0.00  0.00    +0.000 NA
ATOM     31  C   UNL     1      -2.735  10.529  16.351  0.00  0.00    +0.000 A 
ATOM     32  N   UNL     1      -4.027  10.836  16.436  0.00  0.00    +0.000 NA
ATOM     33  C   UNL     1      -4.368  11.504  17.551  0.00  0.00    +0.000 A 
ATOM     34 CL   UNL     1      -6.060  11.828  17.650  0.00  0.00    +0.000 Cl
ATOM     35  C   UNL     1      -3.509  11.866  18.584  0.00  0.00    +0.000 A 
BRANCH  35  36
ATOM     36  N   UNL     1      -3.889  12.686  19.676  0.00  0.00    +0.000 N 
ATOM     37  H   UNL     1      -4.900  12.680  19.815  0.00  0.00    +0.000 HD
ATOM     38  H   UNL     1      -3.392  12.411  20.522  0.00  0.00    +0.000 HD
ENDBRANCH  35  36
ENDBRANCH  27  29
ENDBRANCH   5  27
TORSDOF 8
ENDMDL
MODEL 8
REMARK VINA RESULT:      -8.6      1.339      2.076
REMARK  Name = 
REMARK  10 active torsions:
REMARK  status: ('A' for Active; 'I' for Inactive)
REMARK    1  A    between atoms: C_1  and  C_2
REMARK    2  A    between atoms: C_2  and  C_3
REMARK    3  A    between atoms: C_3  and  C_4
REMARK    4  A    between atoms: N_6  and  C_7
REMARK    5  A    between atoms: C_10  and  C_11
REMARK    6  A    between atoms: C_14  and  N_15
REMARK    7  A    between atoms: N_18  and  C_19
REMARK    8  A    between atoms: C_22  and  N_23
REMARK    9  A    between atoms: N_23  and  C_24
REMARK   10  A    between atoms: C_30  and  N_31
REMARK                            x       y       z     vdW  Elec       q    Type
REMARK                         _______ _______ _______ _____ _____    ______ ____
ROOT
ATOM      1  C   UNL     1       0.706   9.377  20.607  0.00  0.00    +0.000 A 
ATOM      2  C   UNL     1       0.478   9.395  21.981  0.00  0.00    +0.000 A 
ATOM      3  C   UNL     1      -0.267  10.427  22.569  0.00  0.00    +0.000 A 
ATOM      4  C   UNL     1      -0.884  11.450  21.817  0.00  0.00    +0.000 A 
ATOM      5  C   UNL     1      -0.754  11.366  20.410  0.00  0.00    +0.000 A 
ATOM      6  C   UNL     1       0.127  10.416  19.862  0.00  0.00    +0.000 A 
ENDROOT
BRANCH   4   7
ATOM      7  N   UNL     1      -1.522  12.476  22.502  0.00  0.00    +0.000 N 
ATOM      8  C   UNL     1      -0.976  13.833  22.578  0.00  0.00    +0.000 C 
ATOM      9  C   UNL     1      -1.284  14.451  23.959  0.00  0.00    +0.000 C 
ATOM     10  N   UNL     1      -2.724  14.438  24.289  0.00  0.00    +0.000 NA
ATOM     11  C   UNL     1      -2.931  14.985  25.625  0.00  0.00    +0.000 C 
ATOM     12  C   UNL     1      -3.226  13.045  24.200  0.00  0.00    +0.000 C 
ATOM     13  C   UNL     1      -2.961  12.401  22.816  0.00  0.00    +0.000 C 
ENDBRANCH   4   7
BRANCH   1  17
ATOM     14  C   UNL     1       2.961   6.305  18.568  0.00  0.00    +0.000 A 
ATOM     15  C   UNL     1       2.664   7.513  17.949  0.00  0.00    +0.000 A 
ATOM     16  C   UNL     1       1.918   8.484  18.614  0.00  0.00    +0.000 A 
ATOM     17  C   UNL     1       1.459   8.300  19.929  0.00  0.00    +0.000 A 
ATOM     18  C   UNL     1       1.745   7.068  20.536  0.00  0.00    +0.000 A 
ATOM     19  C   UNL     1       2.473   6.075  19.858  0.00  0.00    +0.000 A 
BRANCH  14  22
ATOM     20  C   UNL     1       5.086   5.307  17.750  0.00  0.00    +0.000 C 
ATOM     21  O   UNL     1       5.878   6.126  18.207  0.00  0.00    +0.000 OA
ATOM     22  N   UNL     1       3.716   5.294  17.942  0.00  0.00    +0.000 N 
ATOM     23  H   UNL     1       3.218   4.452  17.683  0.00  0.00    +0.000 HD
BRANCH  20  24
ATOM     24  C   UNL     1       5.591   4.166  16.893  0.00  0.00    +0.000 C 
BRANCH  24  26
ATOM     25  C   UNL     1       6.639   4.472  14.596  0.00  0.00    +0.000 C 
ATOM     26  C   UNL     1       5.350   4.387  15.403  0.00  0.00    +0.000 C 
ENDBRANCH  24  26
ENDBRANCH  20  24
ENDBRANCH  14  22
ENDBRANCH   1  17
BRANCH   5  27
ATOM     27  N   UNL     1      -1.468  12.241  19.535  0.00  0.00    +0.000 N 
ATOM     28  H   UNL     1      -0.841  12.567  18.803  0.00  0.00    +0.000 HD
BRANCH  27  29
ATOM     29  C   UNL     1      -2.722  11.967  18.900  0.00  0.00    +0.000 A 
ATOM     30  N   UNL     1      -3.886  12.268  19.510  0.00  0.00    +0.000 NA
ATOM     31  C   UNL     1      -5.025  11.969  18.872  0.00  0.00    +0.000 A 
ATOM     32  N   UNL     1      -5.119  11.427  17.661  0.00  0.00    +0.000 NA
ATOM     33  C   UNL     1      -3.938  11.174  17.071  0.00  0.00    +0.000 A 
ATOM     34 CL   UNL     1      -4.107  10.528  15.480  0.00  0.00    +0.000 Cl
ATOM     35  C   UNL     1      -2.682  11.446  17.603  0.00  0.00    +0.000 A 
BRANCH  35  36
ATOM     36  N   UNL     1      -1.464  11.041  17.000  0.00  0.00    +0.000 N 
ATOM     37  H   UNL     1      -1.628  10.427  16.201  0.00  0.00    +0.000 HD
ATOM     38  H   UNL     1      -0.904  11.851  16.742  0.00  0.00    +0.000 HD
ENDBRANCH  35  36
ENDBRANCH  27  29
ENDBRANCH   5  27
TORSDOF 8
ENDMDL
MODEL 9
REMARK VINA RESULT:      -8.6      1.515      2.008
REMARK  Name = 
REMARK  10 active torsions:
REMARK  status: ('A' for Active; 'I' for Inactive)
REMARK    1  A    between atoms: C_1  and  C_2
REMARK    2  A    between atoms: C_2  and  C_3
REMARK    3  A    between atoms: C_3  and  C_4
REMARK    4  A    between atoms: N_6  and  C_7
REMARK    5  A    between atoms: C_10  and  C_11
REMARK    6  A    between atoms: C_14  and  N_15
REMARK    7  A    between atoms: N_18  and  C_19
REMARK    8  A    between atoms: C_22  and  N_23
REMARK    9  A    between atoms: N_23  and  C_24
REMARK   10  A    between atoms: C_30  and  N_31
REMARK                            x       y       z     vdW  Elec       q    Type
REMARK                         _______ _______ _______ _____ _____    ______ ____
ROOT
ATOM      1  C   UNL     1       0.384   9.791  20.699  0.00  0.00    +0.000 A 
ATOM      2  C   UNL     1       0.270   9.720  22.085  0.00  0.00    +0.000 A 
ATOM      3  C   UNL     1      -0.535  10.631  22.784  0.00  0.00    +0.000 A 
ATOM      4  C   UNL     1      -1.320  11.610  22.140  0.00  0.00    +0.000 A 
ATOM      5  C   UNL     1      -1.299  11.606  20.724  0.00  0.00    +0.000 A 
ATOM      6  C   UNL     1      -0.366  10.789  20.059  0.00  0.00    +0.000 A 
ENDROOT
BRANCH   4   7
ATOM      7  N   UNL     1      -2.010  12.523  22.927  0.00  0.00    +0.000 N 
ATOM      8  C   UNL     1      -3.229  12.171  23.659  0.00  0.00    +0.000 C 
ATOM      9  C   UNL     1      -4.202  13.370  23.673  0.00  0.00    +0.000 C 
ATOM     10  N   UNL     1      -3.593  14.602  24.216  0.00  0.00    +0.000 NA
ATOM     11  C   UNL     1      -4.550  15.700  24.146  0.00  0.00    +0.000 C 
ATOM     12  C   UNL     1      -2.367  14.914  23.441  0.00  0.00    +0.000 C 
ATOM     13  C   UNL     1      -1.353  13.743  23.429  0.00  0.00    +0.000 C 
ENDBRANCH   4   7
BRANCH   1  17
ATOM     14  C   UNL     1       2.786   7.095  18.325  0.00  0.00    +0.000 A 
ATOM     15  C   UNL     1       2.271   8.268  17.785  0.00  0.00    +0.000 A 
ATOM     16  C   UNL     1       1.481   9.114  18.559  0.00  0.00    +0.000 A 
ATOM     17  C   UNL     1       1.193   8.840  19.907  0.00  0.00    +0.000 A 
ATOM     18  C   UNL     1       1.699   7.642  20.434  0.00  0.00    +0.000 A 
ATOM     19  C   UNL     1       2.472   6.771  19.648  0.00  0.00    +0.000 A 
BRANCH  14  22
ATOM     20  C   UNL     1       4.858   6.481  17.095  0.00  0.00    +0.000 C 
ATOM     21  O   UNL     1       5.533   7.479  17.333  0.00  0.00    +0.000 OA
ATOM     22  N   UNL     1       3.594   6.208  17.586  0.00  0.00    +0.000 N 
ATOM     23  H   UNL     1       3.247   5.264  17.477  0.00  0.00    +0.000 HD
BRANCH  20  24
ATOM     24  C   UNL     1       5.408   5.398  16.192  0.00  0.00    +0.000 C 
BRANCH  24  26
ATOM     25  C   UNL     1       7.494   4.571  17.388  0.00  0.00    +0.000 C 
ATOM     26  C   UNL     1       6.066   4.257  16.961  0.00  0.00    +0.000 C 
ENDBRANCH  24  26
ENDBRANCH  20  24
ENDBRANCH  14  22
ENDBRANCH   1  17
BRANCH   5  27
ATOM     27  N   UNL     1      -2.174  12.433  19.956  0.00  0.00    +0.000 N 
ATOM     28  H   UNL     1      -1.659  13.242  19.617  0.00  0.00    +0.000 HD
BRANCH  27  29
ATOM     29  C   UNL     1      -3.012  12.007  18.875  0.00  0.00    +0.000 A 
ATOM     30  N   UNL     1      -2.478  11.607  17.703  0.00  0.00    +0.000 NA
ATOM     31  C   UNL     1      -3.315  11.238  16.726  0.00  0.00    +0.000 A 
ATOM     32  N   UNL     1      -4.642  11.196  16.812  0.00  0.00    +0.000 NA
ATOM     33  C   UNL     1      -5.134  11.567  18.006  0.00  0.00    +0.000 A 
ATOM     34 CL   UNL     1      -6.852  11.439  18.093  0.00  0.00    +0.000 Cl
ATOM     35  C   UNL     1      -4.388  11.956  19.114  0.00  0.00    +0.000 A 
BRANCH  35  36
ATOM     36  N   UNL     1      -4.957  12.465  20.309  0.00  0.00    +0.000 N 
ATOM     37  H   UNL     1      -5.297  13.419  20.185  0.00  0.00    +0.000 HD
ATOM     38  H   UNL     1      -5.690  11.846  20.651  0.00  0.00    +0.000 HD
ENDBRANCH  35  36
ENDBRANCH  27  29
ENDBRANCH   5  27
TORSDOF 8
ENDMDL
