MODEL 1
REMARK VINA RESULT:      -7.3      0.000      0.000
REMARK  Name = 
REMARK  6 active torsions:
REMARK  status: ('A' for Active; 'I' for Inactive)
REMARK    1  A    between atoms: C_1  and  O_2
REMARK    2  A    between atoms: O_2  and  C_3
REMARK    3  A    between atoms: C_8  and  O_9
REMARK    4  A    between atoms: O_9  and  C_10
REMARK    5  A    between atoms: C_13  and  C_14
REMARK    6  A    between atoms: N_16  and  C_17
REMARK                            x       y       z     vdW  Elec       q    Type
REMARK                         _______ _______ _______ _____ _____    ______ ____
ROOT
ATOM      1  C   UNL     1       2.533   7.333  18.431  0.00  0.00    +0.000 A 
ATOM      2  C   UNL     1       3.637   7.711  17.655  0.00  0.00    +0.000 A 
ATOM      3  C   UNL     1       4.819   7.015  17.799  0.00  0.00    +0.000 A 
ATOM      4  C   UNL     1       4.912   5.979  18.712  0.00  0.00    +0.000 A 
ATOM      5  C   UNL     1       3.867   5.610  19.539  0.00  0.00    +0.000 A 
ATOM      6  C   UNL     1       2.656   6.303  19.406  0.00  0.00    +0.000 A 
ATOM      7  C   UNL     1       6.230   5.378  18.578  0.00  0.00    +0.000 C 
ATOM      8  O   UNL     1       6.632   4.436  19.242  0.00  0.00    +0.000 OA
ATOM      9  C   UNL     1       6.979   6.042  17.448  0.00  0.00    +0.000 C 
ATOM     10  C   UNL     1       6.093   7.247  17.055  0.00  0.00    +0.000 C 
ENDROOT
BRANCH   9  11
ATOM     11  C   UNL     1       7.207   5.125  16.267  0.00  0.00    +0.000 C 
ATOM     12  O   UNL     1       7.866   4.094  16.393  0.00  0.00    +0.000 OA
ATOM     13  N   UNL     1       6.581   5.516  15.096  0.00  0.00    +0.000 N 
ATOM     14  H   UNL     1       6.268   6.483  15.017  0.00  0.00    +0.000 HD
BRANCH  13  15
ATOM     15  C   UNL     1       6.528   4.744  13.909  0.00  0.00    +0.000 A 
ATOM     16  C   UNL     1       5.505   3.828  13.638  0.00  0.00    +0.000 A 
ATOM     17  C   UNL     1       5.508   3.075  12.462  0.00  0.00    +0.000 A 
ATOM     18  C   UNL     1       6.529   3.238  11.531  0.00  0.00    +0.000 A 
ATOM     19  C   UNL     1       7.544   4.163  11.772  0.00  0.00    +0.000 A 
ATOM     20  C   UNL     1       7.535   4.910  12.951  0.00  0.00    +0.000 A 
ATOM     21  F   UNL     1       8.526   5.789  13.168  0.00  0.00    +0.000 F 
ENDBRANCH  13  15
ENDBRANCH   9  11
BRANCH   1  23
ATOM     22  C   UNL     1       1.375   9.363  18.096  0.00  0.00    +0.000 C 
ATOM     23  O   UNL     1       1.310   7.952  18.308  0.00  0.00    +0.000 OA
ENDBRANCH   1  23
BRANCH   6  24
ATOM     24  O   UNL     1       1.537   6.036  20.159  0.00  0.00    +0.000 OA
ATOM     25  C   UNL     1       1.350   4.692  20.589  0.00  0.00    +0.000 C 
ENDBRANCH   6  24
TORSDOF 4
ENDMDL
MODEL 2
REMARK VINA RESULT:      -7.0      4.396      8.635
REMARK  Name = 
REMARK  6 active torsions:
REMARK  status: ('A' for Active; 'I' for Inactive)
REMARK    1  A    between atoms: C_1  and  O_2
REMARK    2  A    between atoms: O_2  and  C_3
REMARK    3  A    between atoms: C_8  and  O_9
REMARK    4  A    between atoms: O_9  and  C_10
REMARK    5  A    between atoms: C_13  and  C_14
REMARK    6  A    between atoms: N_16  and  C_17
REMARK                            x       y       z     vdW  Elec       q    Type
REMARK                         _______ _______ _______ _____ _____    ______ ____
ROOT
ATOM      1  C   UNL     1       2.543   4.616  19.646  0.00  0.00    +0.000 A 
ATOM      2  C   UNL     1       2.188   5.626  20.551  0.00  0.00    +0.000 A 
ATOM      3  C   UNL     1       2.035   6.914  20.082  0.00  0.00    +0.000 A 
ATOM      4  C   UNL     1       2.253   7.201  18.746  0.00  0.00    +0.000 A 
ATOM      5  C   UNL     1       2.660   6.248  17.830  0.00  0.00    +0.000 A 
ATOM      6  C   UNL     1       2.819   4.932  18.285  0.00  0.00    +0.000 A 
ATOM      7  C   UNL     1       1.930   8.602  18.527  0.00  0.00    +0.000 C 
ATOM      8  O   UNL     1       2.015   9.172  17.452  0.00  0.00    +0.000 OA
ATOM      9  C   UNL     1       1.401   9.207  19.805  0.00  0.00    +0.000 C 
ATOM     10  C   UNL     1       1.642   8.117  20.875  0.00  0.00    +0.000 C 
ENDROOT
BRANCH   9  11
ATOM     11  C   UNL     1      -0.063   9.577  19.726  0.00  0.00    +0.000 C 
ATOM     12  O   UNL     1      -0.790   9.473  20.713  0.00  0.00    +0.000 OA
ATOM     13  N   UNL     1      -0.473  10.077  18.502  0.00  0.00    +0.000 N 
ATOM     14  H   UNL     1       0.118   9.905  17.689  0.00  0.00    +0.000 HD
BRANCH  13  15
ATOM     15  C   UNL     1      -1.752  10.626  18.237  0.00  0.00    +0.000 A 
ATOM     16  C   UNL     1      -2.347  11.602  19.044  0.00  0.00    +0.000 A 
ATOM     17  C   UNL     1      -3.620  12.097  18.752  0.00  0.00    +0.000 A 
ATOM     18  C   UNL     1      -4.312  11.632  17.638  0.00  0.00    +0.000 A 
ATOM     19  C   UNL     1      -3.725  10.677  16.809  0.00  0.00    +0.000 A 
ATOM     20  C   UNL     1      -2.454  10.186  17.109  0.00  0.00    +0.000 A 
ATOM     21  F   UNL     1      -1.911   9.261  16.302  0.00  0.00    +0.000 F 
ENDBRANCH  13  15
ENDBRANCH   9  11
BRANCH   1  23
ATOM     22  C   UNL     1       1.773   2.897  21.070  0.00  0.00    +0.000 C 
ATOM     23  O   UNL     1       2.669   3.302  20.034  0.00  0.00    +0.000 OA
ENDBRANCH   1  23
BRANCH   6  24
ATOM     24  O   UNL     1       3.213   3.888  17.483  0.00  0.00    +0.000 OA
ATOM     25  C   UNL     1       4.486   3.998  16.856  0.00  0.00    +0.000 C 
ENDBRANCH   6  24
TORSDOF 4
ENDMDL
MODEL 3
REMARK VINA RESULT:      -6.9      1.839      2.401
REMARK  Name = 
REMARK  6 active torsions:
REMARK  status: ('A' for Active; 'I' for Inactive)
REMARK    1  A    between atoms: C_1  and  O_2
REMARK    2  A    between atoms: O_2  and  C_3
REMARK    3  A    between atoms: C_8  and  O_9
REMARK    4  A    between atoms: O_9  and  C_10
REMARK    5  A    between atoms: C_13  and  C_14
REMARK    6  A    between atoms: N_16  and  C_17
REMARK                            x       y       z     vdW  Elec       q    Type
REMARK                         _______ _______ _______ _____ _____    ______ ____
ROOT
ATOM      1  C   UNL     1       2.252   3.948  19.036  0.00  0.00    +0.000 A 
ATOM      2  C   UNL     1       2.665   4.852  18.049  0.00  0.00    +0.000 A 
ATOM      3  C   UNL     1       4.010   5.138  17.932  0.00  0.00    +0.000 A 
ATOM      4  C   UNL     1       4.925   4.557  18.793  0.00  0.00    +0.000 A 
ATOM      5  C   UNL     1       4.555   3.705  19.818  0.00  0.00    +0.000 A 
ATOM      6  C   UNL     1       3.194   3.399  19.952  0.00  0.00    +0.000 A 
ATOM      7  C   UNL     1       6.257   4.966  18.377  0.00  0.00    +0.000 C 
ATOM      8  O   UNL     1       7.289   4.625  18.930  0.00  0.00    +0.000 OA
ATOM      9  C   UNL     1       6.164   5.799  17.122  0.00  0.00    +0.000 C 
ATOM     10  C   UNL     1       4.650   6.051  16.938  0.00  0.00    +0.000 C 
ENDROOT
BRANCH   9  11
ATOM     11  C   UNL     1       6.754   5.114  15.909  0.00  0.00    +0.000 C 
ATOM     12  O   UNL     1       7.851   4.561  15.973  0.00  0.00    +0.000 OA
ATOM     13  N   UNL     1       5.946   5.120  14.786  0.00  0.00    +0.000 N 
ATOM     14  H   UNL     1       5.180   5.793  14.746  0.00  0.00    +0.000 HD
BRANCH  13  15
ATOM     15  C   UNL     1       6.218   4.417  13.586  0.00  0.00    +0.000 A 
ATOM     16  C   UNL     1       5.428   3.358  13.124  0.00  0.00    +0.000 A 
ATOM     17  C   UNL     1       5.751   2.681  11.946  0.00  0.00    +0.000 A 
ATOM     18  C   UNL     1       6.863   3.064  11.203  0.00  0.00    +0.000 A 
ATOM     19  C   UNL     1       7.649   4.132  11.635  0.00  0.00    +0.000 A 
ATOM     20  C   UNL     1       7.321   4.801  12.815  0.00  0.00    +0.000 A 
ATOM     21  F   UNL     1       8.096   5.821  13.217  0.00  0.00    +0.000 F 
ENDBRANCH  13  15
ENDBRANCH   9  11
BRANCH   1  23
ATOM     22  C   UNL     1       0.603   2.310  18.623  0.00  0.00    +0.000 C 
ATOM     23  O   UNL     1       0.933   3.581  19.182  0.00  0.00    +0.000 OA
ENDBRANCH   1  23
BRANCH   6  24
ATOM     24  O   UNL     1       2.690   2.565  20.922  0.00  0.00    +0.000 OA
ATOM     25  C   UNL     1       2.053   3.179  22.037  0.00  0.00    +0.000 C 
ENDBRANCH   6  24
TORSDOF 4
ENDMDL
MODEL 4
REMARK VINA RESULT:      -6.9      5.385      7.641
REMARK  Name = 
REMARK  6 active torsions:
REMARK  status: ('A' for Active; 'I' for Inactive)
REMARK    1  A    between atoms: C_1  and  O_2
REMARK    2  A    between atoms: O_2  and  C_3
REMARK    3  A    between atoms: C_8  and  O_9
REMARK    4  A    between atoms: O_9  and  C_10
REMARK    5  A    between atoms: C_13  and  C_14
REMARK    6  A    between atoms: N_16  and  C_17
REMARK                            x       y       z     vdW  Elec       q    Type
REMARK                         _______ _______ _______ _____ _____    ______ ____
ROOT
ATOM      1  C   UNL     1      -2.504  10.907  17.738  0.00  0.00    +0.000 A 
ATOM      2  C   UNL     1      -1.353  10.178  17.409  0.00  0.00    +0.000 A 
ATOM      3  C   UNL     1      -0.325  10.111  18.326  0.00  0.00    +0.000 A 
ATOM      4  C   UNL     1      -0.425  10.775  19.537  0.00  0.00    +0.000 A 
ATOM      5  C   UNL     1      -1.516  11.553  19.879  0.00  0.00    +0.000 A 
ATOM      6  C   UNL     1      -2.574  11.631  18.963  0.00  0.00    +0.000 A 
ATOM      7  C   UNL     1       0.753  10.451  20.326  0.00  0.00    +0.000 C 
ATOM      8  O   UNL     1       0.972  10.877  21.448  0.00  0.00    +0.000 OA
ATOM      9  C   UNL     1       1.607   9.455  19.580  0.00  0.00    +0.000 C 
ATOM     10  C   UNL     1       0.965   9.374  18.176  0.00  0.00    +0.000 C 
ENDROOT
BRANCH   9  11
ATOM     11  C   UNL     1       1.648   8.095  20.240  0.00  0.00    +0.000 C 
ATOM     12  O   UNL     1       1.086   7.905  21.318  0.00  0.00    +0.000 OA
ATOM     13  N   UNL     1       2.303   7.115  19.516  0.00  0.00    +0.000 N 
ATOM     14  H   UNL     1       2.934   7.408  18.770  0.00  0.00    +0.000 HD
BRANCH  13  15
ATOM     15  C   UNL     1       2.340   5.740  19.859  0.00  0.00    +0.000 A 
ATOM     16  C   UNL     1       1.245   5.058  20.400  0.00  0.00    +0.000 A 
ATOM     17  C   UNL     1       1.338   3.708  20.742  0.00  0.00    +0.000 A 
ATOM     18  C   UNL     1       2.526   3.014  20.535  0.00  0.00    +0.000 A 
ATOM     19  C   UNL     1       3.621   3.671  19.975  0.00  0.00    +0.000 A 
ATOM     20  C   UNL     1       3.521   5.022  19.638  0.00  0.00    +0.000 A 
ATOM     21  F   UNL     1       4.589   5.638  19.109  0.00  0.00    +0.000 F 
ENDBRANCH  13  15
ENDBRANCH   9  11
BRANCH   1  23
ATOM     22  C   UNL     1      -3.282  10.770  15.513  0.00  0.00    +0.000 C 
ATOM     23  O   UNL     1      -3.587  10.980  16.892  0.00  0.00    +0.000 OA
ENDBRANCH   1  23
BRANCH   6  24
ATOM     24  O   UNL     1      -3.718  12.362  19.176  0.00  0.00    +0.000 OA
ATOM     25  C   UNL     1      -3.839  13.022  20.432  0.00  0.00    +0.000 C 
ENDBRANCH   6  24
TORSDOF 4
ENDMDL
MODEL 5
REMARK VINA RESULT:      -6.9      0.959      1.372
REMARK  Name = 
REMARK  6 active torsions:
REMARK  status: ('A' for Active; 'I' for Inactive)
REMARK    1  A    between atoms: C_1  and  O_2
REMARK    2  A    between atoms: O_2  and  C_3
REMARK    3  A    between atoms: C_8  and  O_9
REMARK    4  A    between atoms: O_9  and  C_10
REMARK    5  A    between atoms: C_13  and  C_14
REMARK    6  A    between atoms: N_16  and  C_17
REMARK                            x       y       z     vdW  Elec       q    Type
REMARK                         _______ _______ _______ _____ _____    ______ ____
ROOT
ATOM      1  C   UNL     1       2.568   7.393  18.462  0.00  0.00    +0.000 A 
ATOM      2  C   UNL     1       3.702   7.785  17.739  0.00  0.00    +0.000 A 
ATOM      3  C   UNL     1       4.874   7.075  17.906  0.00  0.00    +0.000 A 
ATOM      4  C   UNL     1       4.926   6.012  18.790  0.00  0.00    +0.000 A 
ATOM      5  C   UNL     1       3.847   5.628  19.567  0.00  0.00    +0.000 A 
ATOM      6  C   UNL     1       2.647   6.334  19.410  0.00  0.00    +0.000 A 
ATOM      7  C   UNL     1       6.243   5.405  18.688  0.00  0.00    +0.000 C 
ATOM      8  O   UNL     1       6.613   4.441  19.338  0.00  0.00    +0.000 OA
ATOM      9  C   UNL     1       7.038   6.096  17.606  0.00  0.00    +0.000 C 
ATOM     10  C   UNL     1       6.176   7.318  17.216  0.00  0.00    +0.000 C 
ENDROOT
BRANCH   9  11
ATOM     11  C   UNL     1       7.304   5.212  16.408  0.00  0.00    +0.000 C 
ATOM     12  O   UNL     1       7.957   4.176  16.526  0.00  0.00    +0.000 OA
ATOM     13  N   UNL     1       6.717   5.636  15.229  0.00  0.00    +0.000 N 
ATOM     14  H   UNL     1       6.407   6.606  15.167  0.00  0.00    +0.000 HD
BRANCH  13  15
ATOM     15  C   UNL     1       6.701   4.898  14.019  0.00  0.00    +0.000 A 
ATOM     16  C   UNL     1       7.662   5.058  13.014  0.00  0.00    +0.000 A 
ATOM     17  C   UNL     1       7.591   4.322  11.829  0.00  0.00    +0.000 A 
ATOM     18  C   UNL     1       6.563   3.404  11.638  0.00  0.00    +0.000 A 
ATOM     19  C   UNL     1       5.610   3.214  12.637  0.00  0.00    +0.000 A 
ATOM     20  C   UNL     1       5.687   3.955  13.817  0.00  0.00    +0.000 A 
ATOM     21  F   UNL     1       4.754   3.763  14.763  0.00  0.00    +0.000 F 
ENDBRANCH  13  15
ENDBRANCH   9  11
BRANCH   1  23
ATOM     22  C   UNL     1       1.298   9.344  18.858  0.00  0.00    +0.000 C 
ATOM     23  O   UNL     1       1.355   8.026  18.312  0.00  0.00    +0.000 OA
ENDBRANCH   1  23
BRANCH   6  24
ATOM     24  O   UNL     1       1.499   6.055  20.113  0.00  0.00    +0.000 OA
ATOM     25  C   UNL     1       1.322   4.714  20.557  0.00  0.00    +0.000 C 
ENDBRANCH   6  24
TORSDOF 4
ENDMDL
MODEL 6
REMARK VINA RESULT:      -6.9      4.599      8.783
REMARK  Name = 
REMARK  6 active torsions:
REMARK  status: ('A' for Active; 'I' for Inactive)
REMARK    1  A    between atoms: C_1  and  O_2
REMARK    2  A    between atoms: O_2  and  C_3
REMARK    3  A    between atoms: C_8  and  O_9
REMARK    4  A    between atoms: O_9  and  C_10
REMARK    5  A    between atoms: C_13  and  C_14
REMARK    6  A    between atoms: N_16  and  C_17
REMARK                            x       y       z     vdW  Elec       q    Type
REMARK                         _______ _______ _______ _____ _____    ______ ____
ROOT
ATOM      1  C   UNL     1       2.665   4.558  19.597  0.00  0.00    +0.000 A 
ATOM      2  C   UNL     1       2.304   5.536  20.533  0.00  0.00    +0.000 A 
ATOM      3  C   UNL     1       2.118   6.832  20.102  0.00  0.00    +0.000 A 
ATOM      4  C   UNL     1       2.309   7.159  18.771  0.00  0.00    +0.000 A 
ATOM      5  C   UNL     1       2.722   6.240  17.824  0.00  0.00    +0.000 A 
ATOM      6  C   UNL     1       2.914   4.916  18.241  0.00  0.00    +0.000 A 
ATOM      7  C   UNL     1       1.955   8.558  18.595  0.00  0.00    +0.000 C 
ATOM      8  O   UNL     1       2.012   9.159  17.535  0.00  0.00    +0.000 OA
ATOM      9  C   UNL     1       1.434   9.118  19.897  0.00  0.00    +0.000 C 
ATOM     10  C   UNL     1       1.714   8.005  20.933  0.00  0.00    +0.000 C 
ENDROOT
BRANCH   9  11
ATOM     11  C   UNL     1      -0.038   9.460  19.849  0.00  0.00    +0.000 C 
ATOM     12  O   UNL     1      -0.744   9.331  20.848  0.00  0.00    +0.000 OA
ATOM     13  N   UNL     1      -0.481   9.966  18.640  0.00  0.00    +0.000 N 
ATOM     14  H   UNL     1       0.098   9.814  17.813  0.00  0.00    +0.000 HD
BRANCH  13  15
ATOM     15  C   UNL     1      -1.775  10.493  18.405  0.00  0.00    +0.000 A 
ATOM     16  C   UNL     1      -2.704   9.886  17.552  0.00  0.00    +0.000 A 
ATOM     17  C   UNL     1      -3.960  10.456  17.336  0.00  0.00    +0.000 A 
ATOM     18  C   UNL     1      -4.313  11.636  17.983  0.00  0.00    +0.000 A 
ATOM     19  C   UNL     1      -3.409  12.243  18.854  0.00  0.00    +0.000 A 
ATOM     20  C   UNL     1      -2.155  11.668  19.063  0.00  0.00    +0.000 A 
ATOM     21  F   UNL     1      -1.297  12.273  19.899  0.00  0.00    +0.000 F 
ENDBRANCH  13  15
ENDBRANCH   9  11
BRANCH   1  23
ATOM     22  C   UNL     1       1.857   2.746  20.876  0.00  0.00    +0.000 C 
ATOM     23  O   UNL     1       2.824   3.237  19.947  0.00  0.00    +0.000 OA
ENDBRANCH   1  23
BRANCH   6  24
ATOM     24  O   UNL     1       3.316   3.901  17.405  0.00  0.00    +0.000 OA
ATOM     25  C   UNL     1       4.600   4.030  16.803  0.00  0.00    +0.000 C 
ENDBRANCH   6  24
TORSDOF 4
ENDMDL
MODEL 7
REMARK VINA RESULT:      -6.9      5.709      7.709
REMARK  Name = 
REMARK  6 active torsions:
REMARK  status: ('A' for Active; 'I' for Inactive)
REMARK    1  A    between atoms: C_1  and  O_2
REMARK    2  A    between atoms: O_2  and  C_3
REMARK    3  A    between atoms: C_8  and  O_9
REMARK    4  A    between atoms: O_9  and  C_10
REMARK    5  A    between atoms: C_13  and  C_14
REMARK    6  A    between atoms: N_16  and  C_17
REMARK                            x       y       z     vdW  Elec       q    Type
REMARK                         _______ _______ _______ _____ _____    ______ ____
ROOT
ATOM      1  C   UNL     1      -2.341  11.219  18.089  0.00  0.00    +0.000 A 
ATOM      2  C   UNL     1      -1.272  10.403  17.696  0.00  0.00    +0.000 A 
ATOM      3  C   UNL     1      -0.262  10.149  18.601  0.00  0.00    +0.000 A 
ATOM      4  C   UNL     1      -0.300  10.713  19.865  0.00  0.00    +0.000 A 
ATOM      5  C   UNL     1      -1.305  11.569  20.275  0.00  0.00    +0.000 A 
ATOM      6  C   UNL     1      -2.342  11.838  19.371  0.00  0.00    +0.000 A 
ATOM      7  C   UNL     1       0.832  10.199  20.620  0.00  0.00    +0.000 C 
ATOM      8  O   UNL     1       1.087  10.501  21.775  0.00  0.00    +0.000 OA
ATOM      9  C   UNL     1       1.581   9.187  19.788  0.00  0.00    +0.000 C 
ATOM     10  C   UNL     1       0.943   9.294  18.384  0.00  0.00    +0.000 C 
ENDROOT
BRANCH   9  11
ATOM     11  C   UNL     1       1.473   7.778  20.329  0.00  0.00    +0.000 C 
ATOM     12  O   UNL     1       0.768   7.534  21.307  0.00  0.00    +0.000 OA
ATOM     13  N   UNL     1       2.171   6.823  19.610  0.00  0.00    +0.000 N 
ATOM     14  H   UNL     1       2.907   7.138  18.978  0.00  0.00    +0.000 HD
BRANCH  13  15
ATOM     15  C   UNL     1       2.100   5.426  19.836  0.00  0.00    +0.000 A 
ATOM     16  C   UNL     1       2.317   4.842  21.089  0.00  0.00    +0.000 A 
ATOM     17  C   UNL     1       2.257   3.457  21.255  0.00  0.00    +0.000 A 
ATOM     18  C   UNL     1       1.965   2.634  20.172  0.00  0.00    +0.000 A 
ATOM     19  C   UNL     1       1.723   3.200  18.920  0.00  0.00    +0.000 A 
ATOM     20  C   UNL     1       1.787   4.585  18.762  0.00  0.00    +0.000 A 
ATOM     21  F   UNL     1       1.559   5.108  17.547  0.00  0.00    +0.000 F 
ENDBRANCH  13  15
ENDBRANCH   9  11
BRANCH   1  23
ATOM     22  C   UNL     1      -3.357  10.801  15.999  0.00  0.00    +0.000 C 
ATOM     23  O   UNL     1      -3.404  11.479  17.255  0.00  0.00    +0.000 OA
ENDBRANCH   1  23
BRANCH   6  24
ATOM     24  O   UNL     1      -3.404  12.666  19.650  0.00  0.00    +0.000 OA
ATOM     25  C   UNL     1      -3.315  13.456  20.831  0.00  0.00    +0.000 C 
ENDBRANCH   6  24
TORSDOF 4
ENDMDL
MODEL 8
REMARK VINA RESULT:      -6.9      2.650      7.374
REMARK  Name = 
REMARK  6 active torsions:
REMARK  status: ('A' for Active; 'I' for Inactive)
REMARK    1  A    between atoms: C_1  and  O_2
REMARK    2  A    between atoms: O_2  and  C_3
REMARK    3  A    between atoms: C_8  and  O_9
REMARK    4  A    between atoms: O_9  and  C_10
REMARK    5  A    between atoms: C_13  and  C_14
REMARK    6  A    between atoms: N_16  and  C_17
REMARK                            x       y       z     vdW  Elec       q    Type
REMARK                         _______ _______ _______ _____ _____    ______ ____
ROOT
ATOM      1  C   UNL     1       6.263   3.925  14.209  0.00  0.00    +0.000 A 
ATOM      2  C   UNL     1       5.161   3.456  14.937  0.00  0.00    +0.000 A 
ATOM      3  C   UNL     1       4.969   3.919  16.222  0.00  0.00    +0.000 A 
ATOM      4  C   UNL     1       5.865   4.812  16.784  0.00  0.00    +0.000 A 
ATOM      5  C   UNL     1       6.997   5.255  16.124  0.00  0.00    +0.000 A 
ATOM      6  C   UNL     1       7.209   4.799  14.816  0.00  0.00    +0.000 A 
ATOM      7  C   UNL     1       5.362   5.190  18.095  0.00  0.00    +0.000 C 
ATOM      8  O   UNL     1       5.920   5.966  18.853  0.00  0.00    +0.000 OA
ATOM      9  C   UNL     1       4.018   4.543  18.330  0.00  0.00    +0.000 C 
ATOM     10  C   UNL     1       3.852   3.561  17.147  0.00  0.00    +0.000 C 
ENDROOT
BRANCH   9  11
ATOM     11  C   UNL     1       2.880   5.539  18.375  0.00  0.00    +0.000 C 
ATOM     12  O   UNL     1       1.790   5.267  17.875  0.00  0.00    +0.000 OA
ATOM     13  N   UNL     1       3.158   6.711  19.057  0.00  0.00    +0.000 N 
ATOM     14  H   UNL     1       4.134   6.951  19.224  0.00  0.00    +0.000 HD
BRANCH  13  15
ATOM     15  C   UNL     1       2.208   7.718  19.358  0.00  0.00    +0.000 A 
ATOM     16  C   UNL     1       1.596   7.842  20.611  0.00  0.00    +0.000 A 
ATOM     17  C   UNL     1       0.650   8.840  20.852  0.00  0.00    +0.000 A 
ATOM     18  C   UNL     1       0.311   9.740  19.846  0.00  0.00    +0.000 A 
ATOM     19  C   UNL     1       0.927   9.646  18.598  0.00  0.00    +0.000 A 
ATOM     20  C   UNL     1       1.870   8.645  18.365  0.00  0.00    +0.000 A 
ATOM     21  F   UNL     1       2.445   8.567  17.154  0.00  0.00    +0.000 F 
ENDBRANCH  13  15
ENDBRANCH   9  11
BRANCH   1  23
ATOM     22  C   UNL     1       5.316   3.400  12.111  0.00  0.00    +0.000 C 
ATOM     23  O   UNL     1       6.492   3.541  12.908  0.00  0.00    +0.000 OA
ENDBRANCH   1  23
BRANCH   6  24
ATOM     24  O   UNL     1       8.288   5.163  14.045  0.00  0.00    +0.000 OA
ATOM     25  C   UNL     1       8.010   5.834  12.820  0.00  0.00    +0.000 C 
ENDBRANCH   6  24
TORSDOF 4
ENDMDL
MODEL 9
REMARK VINA RESULT:      -6.8      1.994      2.861
REMARK  Name = 
REMARK  6 active torsions:
REMARK  status: ('A' for Active; 'I' for Inactive)
REMARK    1  A    between atoms: C_1  and  O_2
REMARK    2  A    between atoms: O_2  and  C_3
REMARK    3  A    between atoms: C_8  and  O_9
REMARK    4  A    between atoms: O_9  and  C_10
REMARK    5  A    between atoms: C_13  and  C_14
REMARK    6  A    between atoms: N_16  and  C_17
REMARK                            x       y       z     vdW  Elec       q    Type
REMARK                         _______ _______ _______ _____ _____    ______ ____
ROOT
ATOM      1  C   UNL     1       2.474   4.056  19.923  0.00  0.00    +0.000 A 
ATOM      2  C   UNL     1       2.438   5.177  19.084  0.00  0.00    +0.000 A 
ATOM      3  C   UNL     1       3.616   5.625  18.523  0.00  0.00    +0.000 A 
ATOM      4  C   UNL     1       4.811   4.987  18.807  0.00  0.00    +0.000 A 
ATOM      5  C   UNL     1       4.901   3.914  19.675  0.00  0.00    +0.000 A 
ATOM      6  C   UNL     1       3.715   3.442  20.254  0.00  0.00    +0.000 A 
ATOM      7  C   UNL     1       5.856   5.611  18.012  0.00  0.00    +0.000 C 
ATOM      8  O   UNL     1       7.030   5.281  18.029  0.00  0.00    +0.000 OA
ATOM      9  C   UNL     1       5.250   6.662  17.113  0.00  0.00    +0.000 C 
ATOM     10  C   UNL     1       3.785   6.780  17.592  0.00  0.00    +0.000 C 
ENDROOT
BRANCH   9  11
ATOM     11  C   UNL     1       5.317   6.299  15.646  0.00  0.00    +0.000 C 
ATOM     12  O   UNL     1       5.042   7.130  14.782  0.00  0.00    +0.000 OA
ATOM     13  N   UNL     1       5.753   5.012  15.383  0.00  0.00    +0.000 N 
ATOM     14  H   UNL     1       5.724   4.329  16.140  0.00  0.00    +0.000 HD
BRANCH  13  15
ATOM     15  C   UNL     1       6.036   4.498  14.093  0.00  0.00    +0.000 A 
ATOM     16  C   UNL     1       5.148   3.682  13.384  0.00  0.00    +0.000 A 
ATOM     17  C   UNL     1       5.482   3.183  12.123  0.00  0.00    +0.000 A 
ATOM     18  C   UNL     1       6.707   3.505  11.546  0.00  0.00    +0.000 A 
ATOM     19  C   UNL     1       7.595   4.336  12.228  0.00  0.00    +0.000 A 
ATOM     20  C   UNL     1       7.254   4.829  13.488  0.00  0.00    +0.000 A 
ATOM     21  F   UNL     1       8.127   5.621  14.131  0.00  0.00    +0.000 F 
ENDBRANCH  13  15
ENDBRANCH   9  11
BRANCH   1  23
ATOM     22  C   UNL     1       0.626   2.614  19.642  0.00  0.00    +0.000 C 
ATOM     23  O   UNL     1       1.333   3.528  20.482  0.00  0.00    +0.000 OA
ENDBRANCH   1  23
BRANCH   6  24
ATOM     24  O   UNL     1       3.660   2.382  21.128  0.00  0.00    +0.000 OA
ATOM     25  C   UNL     1       4.732   1.447  21.080  0.00  0.00    +0.000 C 
ENDBRANCH   6  24
TORSDOF 4
ENDMDL
