MODEL 1
REMARK VINA RESULT:      -8.2      0.000      0.000
REMARK  Name = 
REMARK  5 active torsions:
REMARK  status: ('A' for Active; 'I' for Inactive)
REMARK    1  A    between atoms: C_1  and  C_2
REMARK    2  A    between atoms: C_4  and  C_5
REMARK    3  A    between atoms: C_4  and  C_6
REMARK    4  A    between atoms: C_14  and  C_15
REMARK    5  A    between atoms: C_20  and  C_21
REMARK                            x       y       z     vdW  Elec       q    Type
REMARK                         _______ _______ _______ _____ _____    ______ ____
ROOT
ATOM      1  C   UNL     1      -4.134  11.486  17.170  0.00  0.00    +0.000 C 
ATOM      2  C   UNL     1      -4.650  11.640  18.572  0.00  0.00    +0.000 C 
ATOM      3  C   UNL     1      -5.946  11.357  18.799  0.00  0.00    +0.000 C 
ATOM      4  C   UNL     1      -6.701  11.604  20.075  0.00  0.00    +0.000 C 
ATOM      5  C   UNL     1      -7.721  12.735  19.868  0.00  0.00    +0.000 C 
ATOM      6  C   UNL     1      -7.430  10.319  20.486  0.00  0.00    +0.000 C 
ATOM      7  N   UNL     1      -5.804  11.981  21.162  0.00  0.00    +0.000 N 
ATOM      8  C   UNL     1      -4.570  12.574  20.862  0.00  0.00    +0.000 A 
ATOM      9  C   UNL     1      -3.961  13.345  21.862  0.00  0.00    +0.000 A 
ATOM     10  C   UNL     1      -2.712  13.926  21.664  0.00  0.00    +0.000 A 
ATOM     11  C   UNL     1      -1.967  13.619  20.527  0.00  0.00    +0.000 A 
ATOM     12  C   UNL     1      -2.507  12.687  19.599  0.00  0.00    +0.000 A 
ATOM     13  C   UNL     1      -3.867  12.286  19.666  0.00  0.00    +0.000 A 
ATOM     14  C   UNL     1      -1.437  12.000  18.749  0.00  0.00    +0.000 C 
ATOM     15  O   UNL     1      -0.592  12.983  18.110  0.00  0.00    +0.000 OA
ATOM     16  C   UNL     1      -0.038  13.887  18.986  0.00  0.00    +0.000 A 
ATOM     17  C   UNL     1       1.164  14.469  18.575  0.00  0.00    +0.000 A 
ATOM     18  C   UNL     1       1.817  15.364  19.414  0.00  0.00    +0.000 A 
ATOM     19  C   UNL     1       1.250  15.682  20.644  0.00  0.00    +0.000 A 
ATOM     20 CL   UNL     1       2.057  16.791  21.688  0.00  0.00    +0.000 Cl
ATOM     21  C   UNL     1       0.031  15.121  21.042  0.00  0.00    +0.000 A 
ATOM     22  C   UNL     1      -0.645  14.207  20.217  0.00  0.00    +0.000 A 
ATOM     23  H   UNL     1      -6.282  12.415  21.945  0.00  0.00    +0.000 HD
ENDROOT
BRANCH  14  24
ATOM     24  C   UNL     1      -0.609  10.941  19.522  0.00  0.00    +0.000 A 
ATOM     25  C   UNL     1       0.367  10.158  18.876  0.00  0.00    +0.000 A 
ATOM     26  C   UNL     1       1.083   9.184  19.575  0.00  0.00    +0.000 A 
ATOM     27  C   UNL     1       0.848   8.991  20.929  0.00  0.00    +0.000 A 
ATOM     28  F   UNL     1       1.539   8.041  21.576  0.00  0.00    +0.000 F 
ATOM     29  C   UNL     1      -0.088   9.765  21.614  0.00  0.00    +0.000 A 
ATOM     30  C   UNL     1      -0.347   9.556  23.075  0.00  0.00    +0.000 C 
ATOM     31  C   UNL     1      -0.792  10.753  20.907  0.00  0.00    +0.000 A 
ENDBRANCH  14  24
TORSDOF 1
ENDMDL
MODEL 2
REMARK VINA RESULT:      -8.1      0.394      1.344
REMARK  Name = 
REMARK  5 active torsions:
REMARK  status: ('A' for Active; 'I' for Inactive)
REMARK    1  A    between atoms: C_1  and  C_2
REMARK    2  A    between atoms: C_4  and  C_5
REMARK    3  A    between atoms: C_4  and  C_6
REMARK    4  A    between atoms: C_14  and  C_15
REMARK    5  A    between atoms: C_20  and  C_21
REMARK                            x       y       z     vdW  Elec       q    Type
REMARK                         _______ _______ _______ _____ _____    ______ ____
ROOT
ATOM      1  C   UNL     1      -4.217  11.688  17.132  0.00  0.00    +0.000 C 
ATOM      2  C   UNL     1      -4.678  11.764  18.559  0.00  0.00    +0.000 C 
ATOM      3  C   UNL     1      -5.971  11.489  18.817  0.00  0.00    +0.000 C 
ATOM      4  C   UNL     1      -6.673  11.670  20.133  0.00  0.00    +0.000 C 
ATOM      5  C   UNL     1      -7.679  12.828  20.034  0.00  0.00    +0.000 C 
ATOM      6  C   UNL     1      -7.412  10.374  20.492  0.00  0.00    +0.000 C 
ATOM      7  N   UNL     1      -5.731  11.963  21.207  0.00  0.00    +0.000 N 
ATOM      8  C   UNL     1      -4.497  12.552  20.898  0.00  0.00    +0.000 A 
ATOM      9  C   UNL     1      -3.838  13.250  21.919  0.00  0.00    +0.000 A 
ATOM     10  C   UNL     1      -2.585  13.821  21.710  0.00  0.00    +0.000 A 
ATOM     11  C   UNL     1      -1.888  13.572  20.529  0.00  0.00    +0.000 A 
ATOM     12  C   UNL     1      -2.480  12.708  19.566  0.00  0.00    +0.000 A 
ATOM     13  C   UNL     1      -3.844  12.327  19.660  0.00  0.00    +0.000 A 
ATOM     14  C   UNL     1      -1.455  12.057  18.637  0.00  0.00    +0.000 C 
ATOM     15  O   UNL     1      -0.615  13.063  18.028  0.00  0.00    +0.000 OA
ATOM     16  C   UNL     1      -0.013  13.902  18.936  0.00  0.00    +0.000 A 
ATOM     17  C   UNL     1       1.185  14.487  18.516  0.00  0.00    +0.000 A 
ATOM     18  C   UNL     1       1.886  15.318  19.383  0.00  0.00    +0.000 A 
ATOM     19  C   UNL     1       1.370  15.569  20.651  0.00  0.00    +0.000 A 
ATOM     20 CL   UNL     1       2.235  16.597  21.729  0.00  0.00    +0.000 Cl
ATOM     21  C   UNL     1       0.156  15.005  21.060  0.00  0.00    +0.000 A 
ATOM     22  C   UNL     1      -0.568  14.155  20.206  0.00  0.00    +0.000 A 
ATOM     23  H   UNL     1      -6.171  12.356  22.032  0.00  0.00    +0.000 HD
ENDROOT
BRANCH  14  24
ATOM     24  C   UNL     1      -0.620  10.939  19.312  0.00  0.00    +0.000 A 
ATOM     25  C   UNL     1      -0.784  10.619  20.673  0.00  0.00    +0.000 A 
ATOM     26  C   UNL     1      -0.002   9.632  21.278  0.00  0.00    +0.000 A 
ATOM     27  C   UNL     1       0.939   8.941  20.529  0.00  0.00    +0.000 A 
ATOM     28  F   UNL     1       1.687   8.006  21.135  0.00  0.00    +0.000 F 
ATOM     29  C   UNL     1       1.114   9.204  19.172  0.00  0.00    +0.000 A 
ATOM     30  C   UNL     1       2.133   8.463  18.362  0.00  0.00    +0.000 C 
ATOM     31  C   UNL     1       0.313  10.187  18.568  0.00  0.00    +0.000 A 
ENDBRANCH  14  24
TORSDOF 1
ENDMDL
MODEL 3
REMARK VINA RESULT:      -8.0      3.247      6.587
REMARK  Name = 
REMARK  5 active torsions:
REMARK  status: ('A' for Active; 'I' for Inactive)
REMARK    1  A    between atoms: C_1  and  C_2
REMARK    2  A    between atoms: C_4  and  C_5
REMARK    3  A    between atoms: C_4  and  C_6
REMARK    4  A    between atoms: C_14  and  C_15
REMARK    5  A    between atoms: C_20  and  C_21
REMARK                            x       y       z     vdW  Elec       q    Type
REMARK                         _______ _______ _______ _____ _____    ______ ____
ROOT
ATOM      1  C   UNL     1       0.574   8.139  22.001  0.00  0.00    +0.000 C 
ATOM      2  C   UNL     1       1.113   7.729  20.661  0.00  0.00    +0.000 C 
ATOM      3  C   UNL     1       1.492   6.447  20.503  0.00  0.00    +0.000 C 
ATOM      4  C   UNL     1       2.209   5.872  19.314  0.00  0.00    +0.000 C 
ATOM      5  C   UNL     1       3.651   5.506  19.699  0.00  0.00    +0.000 C 
ATOM      6  C   UNL     1       1.467   4.617  18.836  0.00  0.00    +0.000 C 
ATOM      7  N   UNL     1       2.251   6.820  18.205  0.00  0.00    +0.000 N 
ATOM      8  C   UNL     1       2.164   8.193  18.470  0.00  0.00    +0.000 A 
ATOM      9  C   UNL     1       2.676   9.073  17.506  0.00  0.00    +0.000 A 
ATOM     10  C   UNL     1       2.582  10.453  17.667  0.00  0.00    +0.000 A 
ATOM     11  C   UNL     1       1.834  10.988  18.713  0.00  0.00    +0.000 A 
ATOM     12  C   UNL     1       1.157  10.092  19.586  0.00  0.00    +0.000 A 
ATOM     13  C   UNL     1       1.444   8.702  19.580  0.00  0.00    +0.000 A 
ATOM     14  C   UNL     1      -0.042  10.731  20.288  0.00  0.00    +0.000 C 
ATOM     15  O   UNL     1       0.354  11.951  20.954  0.00  0.00    +0.000 OA
ATOM     16  C   UNL     1       0.993  12.847  20.130  0.00  0.00    +0.000 A 
ATOM     17  C   UNL     1       0.898  14.189  20.507  0.00  0.00    +0.000 A 
ATOM     18  C   UNL     1       1.479  15.170  19.711  0.00  0.00    +0.000 A 
ATOM     19  C   UNL     1       2.166  14.794  18.560  0.00  0.00    +0.000 A 
ATOM     20 CL   UNL     1       2.887  16.006  17.571  0.00  0.00    +0.000 Cl
ATOM     21  C   UNL     1       2.286  13.447  18.200  0.00  0.00    +0.000 A 
ATOM     22  C   UNL     1       1.700  12.437  18.982  0.00  0.00    +0.000 A 
ATOM     23  H   UNL     1       2.945   6.586  17.503  0.00  0.00    +0.000 HD
ENDROOT
BRANCH  14  24
ATOM     24  C   UNL     1      -1.266  10.950  19.361  0.00  0.00    +0.000 A 
ATOM     25  C   UNL     1      -2.291  11.853  19.700  0.00  0.00    +0.000 A 
ATOM     26  C   UNL     1      -3.405  12.018  18.873  0.00  0.00    +0.000 A 
ATOM     27  C   UNL     1      -3.501  11.296  17.691  0.00  0.00    +0.000 A 
ATOM     28  F   UNL     1      -4.586  11.462  16.920  0.00  0.00    +0.000 F 
ATOM     29  C   UNL     1      -2.494  10.414  17.303  0.00  0.00    +0.000 A 
ATOM     30  C   UNL     1      -2.598   9.631  16.030  0.00  0.00    +0.000 C 
ATOM     31  C   UNL     1      -1.371  10.267  18.131  0.00  0.00    +0.000 A 
ENDBRANCH  14  24
TORSDOF 1
ENDMDL
MODEL 4
REMARK VINA RESULT:      -8.0      3.134      5.724
REMARK  Name = 
REMARK  5 active torsions:
REMARK  status: ('A' for Active; 'I' for Inactive)
REMARK    1  A    between atoms: C_1  and  C_2
REMARK    2  A    between atoms: C_4  and  C_5
REMARK    3  A    between atoms: C_4  and  C_6
REMARK    4  A    between atoms: C_14  and  C_15
REMARK    5  A    between atoms: C_20  and  C_21
REMARK                            x       y       z     vdW  Elec       q    Type
REMARK                         _______ _______ _______ _____ _____    ______ ____
ROOT
ATOM      1  C   UNL     1      -0.366  15.715  20.561  0.00  0.00    +0.000 C 
ATOM      2  C   UNL     1      -1.045  14.992  21.687  0.00  0.00    +0.000 C 
ATOM      3  C   UNL     1      -1.501  15.725  22.721  0.00  0.00    +0.000 C 
ATOM      4  C   UNL     1      -2.051  15.194  24.014  0.00  0.00    +0.000 C 
ATOM      5  C   UNL     1      -1.072  15.493  25.160  0.00  0.00    +0.000 C 
ATOM      6  C   UNL     1      -3.402  15.864  24.300  0.00  0.00    +0.000 C 
ATOM      7  N   UNL     1      -2.268  13.753  23.952  0.00  0.00    +0.000 N 
ATOM      8  C   UNL     1      -1.518  12.982  23.052  0.00  0.00    +0.000 A 
ATOM      9  C   UNL     1      -1.378  11.615  23.329  0.00  0.00    +0.000 A 
ATOM     10  C   UNL     1      -0.694  10.771  22.460  0.00  0.00    +0.000 A 
ATOM     11  C   UNL     1      -0.271  11.235  21.216  0.00  0.00    +0.000 A 
ATOM     12  C   UNL     1      -0.578  12.577  20.858  0.00  0.00    +0.000 A 
ATOM     13  C   UNL     1      -1.049  13.506  21.822  0.00  0.00    +0.000 A 
ATOM     14  C   UNL     1      -0.604  12.800  19.345  0.00  0.00    +0.000 C 
ATOM     15  O   UNL     1       0.628  12.341  18.745  0.00  0.00    +0.000 OA
ATOM     16  C   UNL     1       0.941  11.039  19.058  0.00  0.00    +0.000 A 
ATOM     17  C   UNL     1       1.740  10.370  18.127  0.00  0.00    +0.000 A 
ATOM     18  C   UNL     1       2.074   9.037  18.339  0.00  0.00    +0.000 A 
ATOM     19  C   UNL     1       1.622   8.397  19.489  0.00  0.00    +0.000 A 
ATOM     20 CL   UNL     1       2.033   6.745  19.756  0.00  0.00    +0.000 Cl
ATOM     21  C   UNL     1       0.846   9.077  20.435  0.00  0.00    +0.000 A 
ATOM     22  C   UNL     1       0.487  10.422  20.240  0.00  0.00    +0.000 A 
ATOM     23  H   UNL     1      -2.371  13.322  24.865  0.00  0.00    +0.000 HD
ENDROOT
BRANCH  14  24
ATOM     24  C   UNL     1      -1.849  12.196  18.645  0.00  0.00    +0.000 A 
ATOM     25  C   UNL     1      -3.115  12.206  19.260  0.00  0.00    +0.000 A 
ATOM     26  C   UNL     1      -4.222  11.629  18.634  0.00  0.00    +0.000 A 
ATOM     27  C   UNL     1      -4.083  11.051  17.380  0.00  0.00    +0.000 A 
ATOM     28  F   UNL     1      -5.158  10.492  16.804  0.00  0.00    +0.000 F 
ATOM     29  C   UNL     1      -2.854  11.045  16.722  0.00  0.00    +0.000 A 
ATOM     30  C   UNL     1      -2.701  10.417  15.370  0.00  0.00    +0.000 C 
ATOM     31  C   UNL     1      -1.750  11.642  17.352  0.00  0.00    +0.000 A 
ENDBRANCH  14  24
TORSDOF 1
ENDMDL
MODEL 5
REMARK VINA RESULT:      -7.8      3.152      5.810
REMARK  Name = 
REMARK  5 active torsions:
REMARK  status: ('A' for Active; 'I' for Inactive)
REMARK    1  A    between atoms: C_1  and  C_2
REMARK    2  A    between atoms: C_4  and  C_5
REMARK    3  A    between atoms: C_4  and  C_6
REMARK    4  A    between atoms: C_14  and  C_15
REMARK    5  A    between atoms: C_20  and  C_21
REMARK                            x       y       z     vdW  Elec       q    Type
REMARK                         _______ _______ _______ _____ _____    ______ ____
ROOT
ATOM      1  C   UNL     1       0.481  14.915  20.037  0.00  0.00    +0.000 C 
ATOM      2  C   UNL     1      -0.389  14.444  21.165  0.00  0.00    +0.000 C 
ATOM      3  C   UNL     1      -0.847  15.366  22.033  0.00  0.00    +0.000 C 
ATOM      4  C   UNL     1      -1.582  15.093  23.315  0.00  0.00    +0.000 C 
ATOM      5  C   UNL     1      -0.688  15.444  24.515  0.00  0.00    +0.000 C 
ATOM      6  C   UNL     1      -2.858  15.944  23.355  0.00  0.00    +0.000 C 
ATOM      7  N   UNL     1      -1.972  13.691  23.421  0.00  0.00    +0.000 N 
ATOM      8  C   UNL     1      -1.242  12.719  22.722  0.00  0.00    +0.000 A 
ATOM      9  C   UNL     1      -1.304  11.400  23.191  0.00  0.00    +0.000 A 
ATOM     10  C   UNL     1      -0.651  10.367  22.526  0.00  0.00    +0.000 A 
ATOM     11  C   UNL     1      -0.054  10.595  21.287  0.00  0.00    +0.000 A 
ATOM     12  C   UNL     1      -0.153  11.897  20.722  0.00  0.00    +0.000 A 
ATOM     13  C   UNL     1      -0.594  13.003  21.494  0.00  0.00    +0.000 A 
ATOM     14  C   UNL     1      -0.005  11.899  19.200  0.00  0.00    +0.000 C 
ATOM     15  O   UNL     1       1.211  11.223  18.809  0.00  0.00    +0.000 OA
ATOM     16  C   UNL     1       1.326   9.954  19.326  0.00  0.00    +0.000 A 
ATOM     17  C   UNL     1       2.120   9.071  18.588  0.00  0.00    +0.000 A 
ATOM     18  C   UNL     1       2.261   7.755  19.012  0.00  0.00    +0.000 A 
ATOM     19  C   UNL     1       1.622   7.343  20.178  0.00  0.00    +0.000 A 
ATOM     20 CL   UNL     1       1.794   5.712  20.707  0.00  0.00    +0.000 Cl
ATOM     21  C   UNL     1       0.851   8.236  20.931  0.00  0.00    +0.000 A 
ATOM     22  C   UNL     1       0.685   9.570  20.520  0.00  0.00    +0.000 A 
ATOM     23  H   UNL     1      -2.216  13.412  24.365  0.00  0.00    +0.000 HD
ENDROOT
BRANCH  14  24
ATOM     24  C   UNL     1      -1.242  11.343  18.449  0.00  0.00    +0.000 A 
ATOM     25  C   UNL     1      -1.117  10.338  17.471  0.00  0.00    +0.000 A 
ATOM     26  C   UNL     1      -2.235   9.867  16.778  0.00  0.00    +0.000 A 
ATOM     27  C   UNL     1      -3.492  10.381  17.064  0.00  0.00    +0.000 A 
ATOM     28  F   UNL     1      -4.548   9.923  16.376  0.00  0.00    +0.000 F 
ATOM     29  C   UNL     1      -3.665  11.356  18.045  0.00  0.00    +0.000 A 
ATOM     30  C   UNL     1      -5.020  11.915  18.353  0.00  0.00    +0.000 C 
ATOM     31  C   UNL     1      -2.538  11.811  18.749  0.00  0.00    +0.000 A 
ENDBRANCH  14  24
TORSDOF 1
ENDMDL
MODEL 6
REMARK VINA RESULT:      -7.6      1.832      2.808
REMARK  Name = 
REMARK  5 active torsions:
REMARK  status: ('A' for Active; 'I' for Inactive)
REMARK    1  A    between atoms: C_1  and  C_2
REMARK    2  A    between atoms: C_4  and  C_5
REMARK    3  A    between atoms: C_4  and  C_6
REMARK    4  A    between atoms: C_14  and  C_15
REMARK    5  A    between atoms: C_20  and  C_21
REMARK                            x       y       z     vdW  Elec       q    Type
REMARK                         _______ _______ _______ _____ _____    ______ ____
ROOT
ATOM      1  C   UNL     1      -4.207  12.535  19.707  0.00  0.00    +0.000 C 
ATOM      2  C   UNL     1      -3.912  12.803  21.154  0.00  0.00    +0.000 C 
ATOM      3  C   UNL     1      -4.956  12.971  21.987  0.00  0.00    +0.000 C 
ATOM      4  C   UNL     1      -4.887  13.413  23.422  0.00  0.00    +0.000 C 
ATOM      5  C   UNL     1      -5.465  14.830  23.561  0.00  0.00    +0.000 C 
ATOM      6  C   UNL     1      -5.694  12.438  24.289  0.00  0.00    +0.000 C 
ATOM      7  N   UNL     1      -3.513  13.421  23.914  0.00  0.00    +0.000 N 
ATOM      8  C   UNL     1      -2.457  13.569  23.004  0.00  0.00    +0.000 A 
ATOM      9  C   UNL     1      -1.237  14.050  23.499  0.00  0.00    +0.000 A 
ATOM     10  C   UNL     1      -0.124  14.178  22.673  0.00  0.00    +0.000 A 
ATOM     11  C   UNL     1      -0.153  13.677  21.372  0.00  0.00    +0.000 A 
ATOM     12  C   UNL     1      -1.334  13.019  20.930  0.00  0.00    +0.000 A 
ATOM     13  C   UNL     1      -2.544  13.104  21.668  0.00  0.00    +0.000 A 
ATOM     14  C   UNL     1      -1.079  12.041  19.783  0.00  0.00    +0.000 C 
ATOM     15  O   UNL     1      -0.381  12.700  18.702  0.00  0.00    +0.000 OA
ATOM     16  C   UNL     1       0.776  13.329  19.097  0.00  0.00    +0.000 A 
ATOM     17  C   UNL     1       1.749  13.481  18.105  0.00  0.00    +0.000 A 
ATOM     18  C   UNL     1       2.968  14.070  18.422  0.00  0.00    +0.000 A 
ATOM     19  C   UNL     1       3.191  14.516  19.721  0.00  0.00    +0.000 A 
ATOM     20 CL   UNL     1       4.701  15.245  20.118  0.00  0.00    +0.000 Cl
ATOM     21  C   UNL     1       2.205  14.390  20.706  0.00  0.00    +0.000 A 
ATOM     22  C   UNL     1       0.967  13.791  20.414  0.00  0.00    +0.000 A 
ATOM     23  H   UNL     1      -3.394  13.963  24.763  0.00  0.00    +0.000 HD
ENDROOT
BRANCH  14  24
ATOM     24  C   UNL     1      -0.366  10.736  20.220  0.00  0.00    +0.000 A 
ATOM     25  C   UNL     1      -0.553  10.192  21.505  0.00  0.00    +0.000 A 
ATOM     26  C   UNL     1       0.121   9.033  21.899  0.00  0.00    +0.000 A 
ATOM     27  C   UNL     1       0.976   8.395  21.011  0.00  0.00    +0.000 A 
ATOM     28  F   UNL     1       1.621   7.292  21.417  0.00  0.00    +0.000 F 
ATOM     29  C   UNL     1       1.168   8.883  19.720  0.00  0.00    +0.000 A 
ATOM     30  C   UNL     1       2.093   8.199  18.761  0.00  0.00    +0.000 C 
ATOM     31  C   UNL     1       0.474  10.039  19.326  0.00  0.00    +0.000 A 
ENDBRANCH  14  24
TORSDOF 1
ENDMDL
MODEL 7
REMARK VINA RESULT:      -7.6      3.327      5.464
REMARK  Name = 
REMARK  5 active torsions:
REMARK  status: ('A' for Active; 'I' for Inactive)
REMARK    1  A    between atoms: C_1  and  C_2
REMARK    2  A    between atoms: C_4  and  C_5
REMARK    3  A    between atoms: C_4  and  C_6
REMARK    4  A    between atoms: C_14  and  C_15
REMARK    5  A    between atoms: C_20  and  C_21
REMARK                            x       y       z     vdW  Elec       q    Type
REMARK                         _______ _______ _______ _____ _____    ______ ____
ROOT
ATOM      1  C   UNL     1      -3.160  12.272  23.700  0.00  0.00    +0.000 C 
ATOM      2  C   UNL     1      -4.290  13.024  23.057  0.00  0.00    +0.000 C 
ATOM      3  C   UNL     1      -5.252  13.518  23.859  0.00  0.00    +0.000 C 
ATOM      4  C   UNL     1      -6.543  14.146  23.416  0.00  0.00    +0.000 C 
ATOM      5  C   UNL     1      -7.721  13.222  23.765  0.00  0.00    +0.000 C 
ATOM      6  C   UNL     1      -6.718  15.495  24.126  0.00  0.00    +0.000 C 
ATOM      7  N   UNL     1      -6.555  14.389  21.978  0.00  0.00    +0.000 N 
ATOM      8  C   UNL     1      -5.743  13.610  21.142  0.00  0.00    +0.000 A 
ATOM      9  C   UNL     1      -6.106  13.514  19.791  0.00  0.00    +0.000 A 
ATOM     10  C   UNL     1      -5.326  12.803  18.884  0.00  0.00    +0.000 A 
ATOM     11  C   UNL     1      -4.082  12.306  19.266  0.00  0.00    +0.000 A 
ATOM     12  C   UNL     1      -3.629  12.565  20.589  0.00  0.00    +0.000 A 
ATOM     13  C   UNL     1      -4.510  13.067  21.582  0.00  0.00    +0.000 A 
ATOM     14  C   UNL     1      -2.107  12.508  20.722  0.00  0.00    +0.000 C 
ATOM     15  O   UNL     1      -1.601  11.257  20.206  0.00  0.00    +0.000 OA
ATOM     16  C   UNL     1      -2.006  10.988  18.919  0.00  0.00    +0.000 A 
ATOM     17  C   UNL     1      -1.160  10.155  18.181  0.00  0.00    +0.000 A 
ATOM     18  C   UNL     1      -1.468   9.861  16.858  0.00  0.00    +0.000 A 
ATOM     19  C   UNL     1      -2.628  10.386  16.296  0.00  0.00    +0.000 A 
ATOM     20 CL   UNL     1      -3.013  10.024  14.656  0.00  0.00    +0.000 Cl
ATOM     21  C   UNL     1      -3.489  11.196  17.045  0.00  0.00    +0.000 A 
ATOM     22  C   UNL     1      -3.197  11.515  18.382  0.00  0.00    +0.000 A 
ATOM     23  H   UNL     1      -7.484  14.549  21.604  0.00  0.00    +0.000 HD
ENDROOT
BRANCH  14  24
ATOM     24  C   UNL     1      -1.378  13.727  20.100  0.00  0.00    +0.000 A 
ATOM     25  C   UNL     1      -0.242  13.565  19.284  0.00  0.00    +0.000 A 
ATOM     26  C   UNL     1       0.427  14.672  18.756  0.00  0.00    +0.000 A 
ATOM     27  C   UNL     1      -0.041  15.952  19.021  0.00  0.00    +0.000 A 
ATOM     28  F   UNL     1       0.626  17.000  18.513  0.00  0.00    +0.000 F 
ATOM     29  C   UNL     1      -1.179  16.157  19.798  0.00  0.00    +0.000 A 
ATOM     30  C   UNL     1      -1.682  17.537  20.089  0.00  0.00    +0.000 C 
ATOM     31  C   UNL     1      -1.854  15.037  20.312  0.00  0.00    +0.000 A 
ENDBRANCH  14  24
TORSDOF 1
ENDMDL
MODEL 8
REMARK VINA RESULT:      -7.5      3.248      6.548
REMARK  Name = 
REMARK  5 active torsions:
REMARK  status: ('A' for Active; 'I' for Inactive)
REMARK    1  A    between atoms: C_1  and  C_2
REMARK    2  A    between atoms: C_4  and  C_5
REMARK    3  A    between atoms: C_4  and  C_6
REMARK    4  A    between atoms: C_14  and  C_15
REMARK    5  A    between atoms: C_20  and  C_21
REMARK                            x       y       z     vdW  Elec       q    Type
REMARK                         _______ _______ _______ _____ _____    ______ ____
ROOT
ATOM      1  C   UNL     1       0.557   8.072  21.960  0.00  0.00    +0.000 C 
ATOM      2  C   UNL     1       1.142   7.672  20.637  0.00  0.00    +0.000 C 
ATOM      3  C   UNL     1       1.562   6.400  20.494  0.00  0.00    +0.000 C 
ATOM      4  C   UNL     1       2.325   5.841  19.327  0.00  0.00    +0.000 C 
ATOM      5  C   UNL     1       3.766   5.517  19.751  0.00  0.00    +0.000 C 
ATOM      6  C   UNL     1       1.631   4.563  18.837  0.00  0.00    +0.000 C 
ATOM      7  N   UNL     1       2.369   6.784  18.214  0.00  0.00    +0.000 N 
ATOM      8  C   UNL     1       2.236   8.156  18.470  0.00  0.00    +0.000 A 
ATOM      9  C   UNL     1       2.748   9.046  17.516  0.00  0.00    +0.000 A 
ATOM     10  C   UNL     1       2.612  10.423  17.668  0.00  0.00    +0.000 A 
ATOM     11  C   UNL     1       1.822  10.942  18.692  0.00  0.00    +0.000 A 
ATOM     12  C   UNL     1       1.148  10.030  19.551  0.00  0.00    +0.000 A 
ATOM     13  C   UNL     1       1.475   8.649  19.559  0.00  0.00    +0.000 A 
ATOM     14  C   UNL     1      -0.086  10.638  20.218  0.00  0.00    +0.000 C 
ATOM     15  O   UNL     1       0.258  11.872  20.889  0.00  0.00    +0.000 OA
ATOM     16  C   UNL     1       0.894  12.781  20.077  0.00  0.00    +0.000 A 
ATOM     17  C   UNL     1       0.751  14.122  20.445  0.00  0.00    +0.000 A 
ATOM     18  C   UNL     1       1.325  15.116  19.660  0.00  0.00    +0.000 A 
ATOM     19  C   UNL     1       2.051  14.755  18.529  0.00  0.00    +0.000 A 
ATOM     20 CL   UNL     1       2.764  15.983  17.553  0.00  0.00    +0.000 Cl
ATOM     21  C   UNL     1       2.218  13.410  18.178  0.00  0.00    +0.000 A 
ATOM     22  C   UNL     1       1.641  12.387  18.950  0.00  0.00    +0.000 A 
ATOM     23  H   UNL     1       3.088   6.568  17.532  0.00  0.00    +0.000 HD
ENDROOT
BRANCH  14  24
ATOM     24  C   UNL     1      -1.291  10.819  19.259  0.00  0.00    +0.000 A 
ATOM     25  C   UNL     1      -1.301  10.241  17.976  0.00  0.00    +0.000 A 
ATOM     26  C   UNL     1      -2.377  10.438  17.108  0.00  0.00    +0.000 A 
ATOM     27  C   UNL     1      -3.463  11.200  17.516  0.00  0.00    +0.000 A 
ATOM     28  F   UNL     1      -4.479  11.385  16.660  0.00  0.00    +0.000 F 
ATOM     29  C   UNL     1      -3.508  11.766  18.789  0.00  0.00    +0.000 A 
ATOM     30  C   UNL     1      -4.677  12.593  19.230  0.00  0.00    +0.000 C 
ATOM     31  C   UNL     1      -2.429  11.549  19.661  0.00  0.00    +0.000 A 
ENDBRANCH  14  24
TORSDOF 1
ENDMDL
MODEL 9
REMARK VINA RESULT:      -7.5      2.901      4.950
REMARK  Name = 
REMARK  5 active torsions:
REMARK  status: ('A' for Active; 'I' for Inactive)
REMARK    1  A    between atoms: C_1  and  C_2
REMARK    2  A    between atoms: C_4  and  C_5
REMARK    3  A    between atoms: C_4  and  C_6
REMARK    4  A    between atoms: C_14  and  C_15
REMARK    5  A    between atoms: C_20  and  C_21
REMARK                            x       y       z     vdW  Elec       q    Type
REMARK                         _______ _______ _______ _____ _____    ______ ____
ROOT
ATOM      1  C   UNL     1      -4.359  12.664  21.563  0.00  0.00    +0.000 C 
ATOM      2  C   UNL     1      -4.487  12.619  20.068  0.00  0.00    +0.000 C 
ATOM      3  C   UNL     1      -5.667  12.978  19.527  0.00  0.00    +0.000 C 
ATOM      4  C   UNL     1      -6.061  12.844  18.083  0.00  0.00    +0.000 C 
ATOM      5  C   UNL     1      -7.134  11.754  17.932  0.00  0.00    +0.000 C 
ATOM      6  C   UNL     1      -6.615  14.186  17.586  0.00  0.00    +0.000 C 
ATOM      7  N   UNL     1      -4.919  12.491  17.247  0.00  0.00    +0.000 N 
ATOM      8  C   UNL     1      -3.828  11.823  17.819  0.00  0.00    +0.000 A 
ATOM      9  C   UNL     1      -2.999  11.084  16.964  0.00  0.00    +0.000 A 
ATOM     10  C   UNL     1      -1.865  10.433  17.443  0.00  0.00    +0.000 A 
ATOM     11  C   UNL     1      -1.441  10.635  18.755  0.00  0.00    +0.000 A 
ATOM     12  C   UNL     1      -2.181  11.535  19.571  0.00  0.00    +0.000 A 
ATOM     13  C   UNL     1      -3.461  12.004  19.176  0.00  0.00    +0.000 A 
ATOM     14  C   UNL     1      -1.356  12.117  20.719  0.00  0.00    +0.000 C 
ATOM     15  O   UNL     1      -0.742  11.058  21.488  0.00  0.00    +0.000 OA
ATOM     16  C   UNL     1      -0.003  10.182  20.727  0.00  0.00    +0.000 A 
ATOM     17  C   UNL     1       1.028   9.520  21.399  0.00  0.00    +0.000 A 
ATOM     18  C   UNL     1       1.854   8.646  20.701  0.00  0.00    +0.000 A 
ATOM     19  C   UNL     1       1.626   8.431  19.345  0.00  0.00    +0.000 A 
ATOM     20 CL   UNL     1       2.648   7.349  18.476  0.00  0.00    +0.000 Cl
ATOM     21  C   UNL     1       0.575   9.072  18.680  0.00  0.00    +0.000 A 
ATOM     22  C   UNL     1      -0.269   9.967  19.361  0.00  0.00    +0.000 A 
ATOM     23  H   UNL     1      -5.184  12.129  16.337  0.00  0.00    +0.000 HD
ENDROOT
BRANCH  14  24
ATOM     24  C   UNL     1      -0.320  13.179  20.270  0.00  0.00    +0.000 A 
ATOM     25  C   UNL     1      -0.621  14.121  19.267  0.00  0.00    +0.000 A 
ATOM     26  C   UNL     1       0.331  15.052  18.847  0.00  0.00    +0.000 A 
ATOM     27  C   UNL     1       1.589  15.066  19.434  0.00  0.00    +0.000 A 
ATOM     28  F   UNL     1       2.491  15.962  19.004  0.00  0.00    +0.000 F 
ATOM     29  C   UNL     1       1.920  14.172  20.450  0.00  0.00    +0.000 A 
ATOM     30  C   UNL     1       3.278  14.182  21.081  0.00  0.00    +0.000 C 
ATOM     31  C   UNL     1       0.951  13.250  20.877  0.00  0.00    +0.000 A 
ENDBRANCH  14  24
TORSDOF 1
ENDMDL
