MODEL 1
REMARK VINA RESULT:      -7.8      0.000      0.000
REMARK  Name = 
REMARK  8 active torsions:
REMARK  status: ('A' for Active; 'I' for Inactive)
REMARK    1  A    between atoms: C_1  and  C_2
REMARK    2  A    between atoms: C_2  and  O_3
REMARK    3  A    between atoms: O_3  and  C_4
REMARK    4  A    between atoms: C_4  and  C_6
REMARK    5  A    between atoms: C_20  and  N_21
REMARK    6  A    between atoms: C_23  and  C_24
REMARK    7  A    between atoms: C_24  and  C_25
REMARK    8  A    between atoms: C_24  and  C_26
REMARK                            x       y       z     vdW  Elec       q    Type
REMARK                         _______ _______ _______ _____ _____    ______ ____
ROOT
ATOM      1  C   UNL     1       5.612   5.356  15.693  0.00  0.00    +0.000 A 
ATOM      2  S   UNL     1       5.076   6.983  15.678  0.00  0.00    +0.000 S 
ATOM      3  C   UNL     1       4.079   6.749  17.035  0.00  0.00    +0.000 A 
ATOM      4  N   UNL     1       3.381   7.781  17.539  0.00  0.00    +0.000 NA
ATOM      5  C   UNL     1       2.604   7.545  18.615  0.00  0.00    +0.000 A 
ATOM      6  N   UNL     1       1.848   8.617  19.048  0.00  0.00    +0.000 N 
ATOM      7  C   UNL     1       1.514   8.971  20.432  0.00  0.00    +0.000 C 
ATOM      8  C   UNL     1       0.024   9.344  20.462  0.00  0.00    +0.000 C 
ATOM      9  O   UNL     1      -0.222  10.489  19.626  0.00  0.00    +0.000 OA
ATOM     10  C   UNL     1       0.180  10.223  18.266  0.00  0.00    +0.000 C 
ATOM     11  C   UNL     1       1.656   9.781  18.158  0.00  0.00    +0.000 C 
ATOM     12  C   UNL     1       2.523   6.255  19.172  0.00  0.00    +0.000 A 
ATOM     13  C   UNL     1       3.312   5.192  18.648  0.00  0.00    +0.000 A 
ATOM     14  C   UNL     1       4.101   5.447  17.502  0.00  0.00    +0.000 A 
ATOM     15  C   UNL     1       4.968   4.635  16.684  0.00  0.00    +0.000 A 
ATOM     16  C   UNL     1       3.253   3.823  19.289  0.00  0.00    +0.000 C 
ATOM     17  C   UNL     1       2.613   3.851  20.674  0.00  0.00    +0.000 C 
ATOM     18  O   UNL     1       1.368   4.537  20.535  0.00  0.00    +0.000 OA
ATOM     19  C   UNL     1       1.601   5.933  20.328  0.00  0.00    +0.000 C 
ENDROOT
BRANCH  15  20
ATOM     20  N   UNL     1       5.187   3.311  16.874  0.00  0.00    +0.000 N 
ATOM     21  H   UNL     1       4.659   2.763  17.544  0.00  0.00    +0.000 HD
ATOM     22  H   UNL     1       5.563   2.735  16.116  0.00  0.00    +0.000 HD
ENDBRANCH  15  20
BRANCH  17  23
ATOM     23  C   UNL     1       2.332   2.448  21.238  0.00  0.00    +0.000 C 
ATOM     24  C   UNL     1       1.165   2.448  22.226  0.00  0.00    +0.000 C 
ATOM     25  C   UNL     1       2.045   1.463  20.098  0.00  0.00    +0.000 C 
ENDBRANCH  17  23
BRANCH   1  26
ATOM     26  C   UNL     1       6.647   4.870  14.797  0.00  0.00    +0.000 C 
ATOM     27  O   UNL     1       7.687   5.466  14.536  0.00  0.00    +0.000 OA
BRANCH  26  28
ATOM     28  O   UNL     1       6.257   3.718  14.180  0.00  0.00    +0.000 OA
BRANCH  28  30
ATOM     29  C   UNL     1       5.104   3.312  12.135  0.00  0.00    +0.000 C 
ATOM     30  C   UNL     1       6.435   3.698  12.758  0.00  0.00    +0.000 C 
ENDBRANCH  28  30
ENDBRANCH  26  28
ENDBRANCH   1  26
TORSDOF 5
ENDMDL
MODEL 2
REMARK VINA RESULT:      -6.3      0.743      1.059
REMARK  Name = 
REMARK  8 active torsions:
REMARK  status: ('A' for Active; 'I' for Inactive)
REMARK    1  A    between atoms: C_1  and  C_2
REMARK    2  A    between atoms: C_2  and  O_3
REMARK    3  A    between atoms: O_3  and  C_4
REMARK    4  A    between atoms: C_4  and  C_6
REMARK    5  A    between atoms: C_20  and  N_21
REMARK    6  A    between atoms: C_23  and  C_24
REMARK    7  A    between atoms: C_24  and  C_25
REMARK    8  A    between atoms: C_24  and  C_26
REMARK                            x       y       z     vdW  Elec       q    Type
REMARK                         _______ _______ _______ _____ _____    ______ ____
ROOT
ATOM      1  C   UNL     1       5.489   5.241  15.594  0.00  0.00    +0.000 A 
ATOM      2  S   UNL     1       4.980   6.877  15.567  0.00  0.00    +0.000 S 
ATOM      3  C   UNL     1       4.032   6.686  16.965  0.00  0.00    +0.000 A 
ATOM      4  N   UNL     1       3.372   7.740  17.474  0.00  0.00    +0.000 NA
ATOM      5  C   UNL     1       2.632   7.538  18.583  0.00  0.00    +0.000 A 
ATOM      6  N   UNL     1       1.911   8.631  19.022  0.00  0.00    +0.000 N 
ATOM      7  C   UNL     1       1.637   9.017  20.411  0.00  0.00    +0.000 C 
ATOM      8  C   UNL     1       0.155   9.418  20.490  0.00  0.00    +0.000 C 
ATOM      9  O   UNL     1      -0.103  10.550  19.641  0.00  0.00    +0.000 OA
ATOM     10  C   UNL     1       0.242  10.252  18.273  0.00  0.00    +0.000 C 
ATOM     11  C   UNL     1       1.705   9.781  18.118  0.00  0.00    +0.000 C 
ATOM     12  C   UNL     1       2.550   6.261  19.168  0.00  0.00    +0.000 A 
ATOM     13  C   UNL     1       3.301   5.174  18.636  0.00  0.00    +0.000 A 
ATOM     14  C   UNL     1       4.050   5.393  17.456  0.00  0.00    +0.000 A 
ATOM     15  C   UNL     1       4.871   4.551  16.622  0.00  0.00    +0.000 A 
ATOM     16  C   UNL     1       3.242   3.819  19.306  0.00  0.00    +0.000 C 
ATOM     17  C   UNL     1       2.657   3.885  20.712  0.00  0.00    +0.000 C 
ATOM     18  O   UNL     1       1.419   4.590  20.608  0.00  0.00    +0.000 OA
ATOM     19  C   UNL     1       1.668   5.977  20.364  0.00  0.00    +0.000 C 
ENDROOT
BRANCH  15  20
ATOM     20  N   UNL     1       5.074   3.226  16.830  0.00  0.00    +0.000 N 
ATOM     21  H   UNL     1       5.990   2.842  17.034  0.00  0.00    +0.000 HD
ATOM     22  H   UNL     1       4.319   2.638  17.194  0.00  0.00    +0.000 HD
ENDBRANCH  15  20
BRANCH  17  23
ATOM     23  C   UNL     1       2.374   2.497  21.315  0.00  0.00    +0.000 C 
ATOM     24  C   UNL     1       1.150   2.508  22.232  0.00  0.00    +0.000 C 
ATOM     25  C   UNL     1       2.175   1.464  20.199  0.00  0.00    +0.000 C 
ENDBRANCH  17  23
BRANCH   1  26
ATOM     26  C   UNL     1       6.481   4.720  14.669  0.00  0.00    +0.000 C 
ATOM     27  O   UNL     1       6.470   3.591  14.189  0.00  0.00    +0.000 OA
BRANCH  26  28
ATOM     28  O   UNL     1       7.502   5.608  14.497  0.00  0.00    +0.000 OA
BRANCH  28  30
ATOM     29  C   UNL     1       7.818   5.854  12.148  0.00  0.00    +0.000 C 
ATOM     30  C   UNL     1       8.408   5.294  13.431  0.00  0.00    +0.000 C 
ENDBRANCH  28  30
ENDBRANCH  26  28
ENDBRANCH   1  26
TORSDOF 5
ENDMDL
MODEL 3
REMARK VINA RESULT:      -6.2      1.928      4.975
REMARK  Name = 
REMARK  8 active torsions:
REMARK  status: ('A' for Active; 'I' for Inactive)
REMARK    1  A    between atoms: C_1  and  C_2
REMARK    2  A    between atoms: C_2  and  O_3
REMARK    3  A    between atoms: O_3  and  C_4
REMARK    4  A    between atoms: C_4  and  C_6
REMARK    5  A    between atoms: C_20  and  N_21
REMARK    6  A    between atoms: C_23  and  C_24
REMARK    7  A    between atoms: C_24  and  C_25
REMARK    8  A    between atoms: C_24  and  C_26
REMARK                            x       y       z     vdW  Elec       q    Type
REMARK                         _______ _______ _______ _____ _____    ______ ____
ROOT
ATOM      1  C   UNL     1       6.067   4.750  15.073  0.00  0.00    +0.000 A 
ATOM      2  S   UNL     1       5.827   3.322  15.988  0.00  0.00    +0.000 S 
ATOM      3  C   UNL     1       4.675   4.067  16.993  0.00  0.00    +0.000 A 
ATOM      4  N   UNL     1       4.066   3.354  17.956  0.00  0.00    +0.000 NA
ATOM      5  C   UNL     1       3.162   3.990  18.727  0.00  0.00    +0.000 A 
ATOM      6  N   UNL     1       2.622   3.237  19.751  0.00  0.00    +0.000 N 
ATOM      7  C   UNL     1       1.247   3.281  20.260  0.00  0.00    +0.000 C 
ATOM      8  C   UNL     1       1.326   3.266  21.795  0.00  0.00    +0.000 C 
ATOM      9  O   UNL     1       1.944   2.050  22.252  0.00  0.00    +0.000 OA
ATOM     10  C   UNL     1       3.269   1.912  21.701  0.00  0.00    +0.000 C 
ATOM     11  C   UNL     1       3.281   1.978  20.158  0.00  0.00    +0.000 C 
ATOM     12  C   UNL     1       2.884   5.355  18.530  0.00  0.00    +0.000 A 
ATOM     13  C   UNL     1       3.507   6.073  17.469  0.00  0.00    +0.000 A 
ATOM     14  C   UNL     1       4.475   5.401  16.686  0.00  0.00    +0.000 A 
ATOM     15  C   UNL     1       5.325   5.797  15.591  0.00  0.00    +0.000 A 
ATOM     16  C   UNL     1       3.161   7.527  17.239  0.00  0.00    +0.000 C 
ATOM     17  C   UNL     1       1.887   7.949  17.963  0.00  0.00    +0.000 C 
ATOM     18  O   UNL     1       2.039   7.545  19.326  0.00  0.00    +0.000 OA
ATOM     19  C   UNL     1       1.937   6.122  19.426  0.00  0.00    +0.000 C 
ENDROOT
BRANCH  15  20
ATOM     20  N   UNL     1       5.374   7.048  15.069  0.00  0.00    +0.000 N 
ATOM     21  H   UNL     1       6.035   7.310  14.346  0.00  0.00    +0.000 HD
ATOM     22  H   UNL     1       4.537   7.637  15.058  0.00  0.00    +0.000 HD
ENDBRANCH  15  20
BRANCH  17  23
ATOM     23  C   UNL     1       1.649   9.469  17.933  0.00  0.00    +0.000 C 
ATOM     24  C   UNL     1       0.937   9.965  19.192  0.00  0.00    +0.000 C 
ATOM     25  C   UNL     1       2.980  10.212  17.764  0.00  0.00    +0.000 C 
ENDBRANCH  17  23
BRANCH   1  26
ATOM     26  C   UNL     1       6.908   4.782  13.889  0.00  0.00    +0.000 C 
ATOM     27  O   UNL     1       7.659   5.703  13.584  0.00  0.00    +0.000 OA
BRANCH  26  28
ATOM     28  O   UNL     1       6.663   3.706  13.087  0.00  0.00    +0.000 OA
BRANCH  28  30
ATOM     29  C   UNL     1       5.311   2.466  11.567  0.00  0.00    +0.000 C 
ATOM     30  C   UNL     1       5.394   3.721  12.419  0.00  0.00    +0.000 C 
ENDBRANCH  28  30
ENDBRANCH  26  28
ENDBRANCH   1  26
TORSDOF 5
ENDMDL
MODEL 4
REMARK VINA RESULT:      -6.0      5.413      9.852
REMARK  Name = 
REMARK  8 active torsions:
REMARK  status: ('A' for Active; 'I' for Inactive)
REMARK    1  A    between atoms: C_1  and  C_2
REMARK    2  A    between atoms: C_2  and  O_3
REMARK    3  A    between atoms: O_3  and  C_4
REMARK    4  A    between atoms: C_4  and  C_6
REMARK    5  A    between atoms: C_20  and  N_21
REMARK    6  A    between atoms: C_23  and  C_24
REMARK    7  A    between atoms: C_24  and  C_25
REMARK    8  A    between atoms: C_24  and  C_26
REMARK                            x       y       z     vdW  Elec       q    Type
REMARK                         _______ _______ _______ _____ _____    ______ ____
ROOT
ATOM      1  C   UNL     1       0.973  10.359  19.091  0.00  0.00    +0.000 A 
ATOM      2  S   UNL     1      -0.282  10.020  20.206  0.00  0.00    +0.000 S 
ATOM      3  C   UNL     1      -0.748  11.653  20.296  0.00  0.00    +0.000 A 
ATOM      4  N   UNL     1      -1.796  12.008  21.060  0.00  0.00    +0.000 NA
ATOM      5  C   UNL     1      -2.125  13.315  21.100  0.00  0.00    +0.000 A 
ATOM      6  N   UNL     1      -3.157  13.640  21.958  0.00  0.00    +0.000 N 
ATOM      7  C   UNL     1      -4.194  14.659  21.758  0.00  0.00    +0.000 C 
ATOM      8  C   UNL     1      -4.344  15.424  23.082  0.00  0.00    +0.000 C 
ATOM      9  O   UNL     1      -4.774  14.534  24.128  0.00  0.00    +0.000 OA
ATOM     10  C   UNL     1      -3.831  13.456  24.300  0.00  0.00    +0.000 C 
ATOM     11  C   UNL     1      -3.579  12.673  22.993  0.00  0.00    +0.000 C 
ATOM     12  C   UNL     1      -1.382  14.265  20.375  0.00  0.00    +0.000 A 
ATOM     13  C   UNL     1      -0.308  13.853  19.535  0.00  0.00    +0.000 A 
ATOM     14  C   UNL     1       0.045  12.483  19.525  0.00  0.00    +0.000 A 
ATOM     15  C   UNL     1       1.071  11.720  18.859  0.00  0.00    +0.000 A 
ATOM     16  C   UNL     1       0.450  14.880  18.724  0.00  0.00    +0.000 C 
ATOM     17  C   UNL     1      -0.286  16.212  18.629  0.00  0.00    +0.000 C 
ATOM     18  O   UNL     1      -0.624  16.589  19.965  0.00  0.00    +0.000 OA
ATOM     19  C   UNL     1      -1.670  15.747  20.459  0.00  0.00    +0.000 C 
ENDROOT
BRANCH  15  20
ATOM     20  N   UNL     1       2.018  12.250  18.045  0.00  0.00    +0.000 N 
ATOM     21  H   UNL     1       2.998  12.004  18.119  0.00  0.00    +0.000 HD
ATOM     22  H   UNL     1       1.769  12.570  17.105  0.00  0.00    +0.000 HD
ENDBRANCH  15  20
BRANCH  17  23
ATOM     23  C   UNL     1       0.569  17.333  18.012  0.00  0.00    +0.000 C 
ATOM     24  C   UNL     1      -0.246  18.231  17.080  0.00  0.00    +0.000 C 
ATOM     25  C   UNL     1       1.211  18.181  19.116  0.00  0.00    +0.000 C 
ENDBRANCH  17  23
BRANCH   1  26
ATOM     26  C   UNL     1       1.760   9.311  18.463  0.00  0.00    +0.000 C 
ATOM     27  O   UNL     1       2.181   9.342  17.312  0.00  0.00    +0.000 OA
BRANCH  26  28
ATOM     28  O   UNL     1       1.866   8.224  19.282  0.00  0.00    +0.000 OA
BRANCH  28  30
ATOM     29  C   UNL     1       2.529   5.983  19.741  0.00  0.00    +0.000 C 
ATOM     30  C   UNL     1       2.597   7.119  18.734  0.00  0.00    +0.000 C 
ENDBRANCH  28  30
ENDBRANCH  26  28
ENDBRANCH   1  26
TORSDOF 5
ENDMDL
MODEL 5
REMARK VINA RESULT:      -6.0      5.412      9.407
REMARK  Name = 
REMARK  8 active torsions:
REMARK  status: ('A' for Active; 'I' for Inactive)
REMARK    1  A    between atoms: C_1  and  C_2
REMARK    2  A    between atoms: C_2  and  O_3
REMARK    3  A    between atoms: O_3  and  C_4
REMARK    4  A    between atoms: C_4  and  C_6
REMARK    5  A    between atoms: C_20  and  N_21
REMARK    6  A    between atoms: C_23  and  C_24
REMARK    7  A    between atoms: C_24  and  C_25
REMARK    8  A    between atoms: C_24  and  C_26
REMARK                            x       y       z     vdW  Elec       q    Type
REMARK                         _______ _______ _______ _____ _____    ______ ____
ROOT
ATOM      1  C   UNL     1       0.541  10.475  19.220  0.00  0.00    +0.000 A 
ATOM      2  S   UNL     1       0.918  11.224  20.714  0.00  0.00    +0.000 S 
ATOM      3  C   UNL     1      -0.645  11.875  20.871  0.00  0.00    +0.000 A 
ATOM      4  N   UNL     1      -0.966  12.590  21.963  0.00  0.00    +0.000 NA
ATOM      5  C   UNL     1      -2.216  13.086  22.041  0.00  0.00    +0.000 A 
ATOM      6  N   UNL     1      -2.474  13.878  23.143  0.00  0.00    +0.000 N 
ATOM      7  C   UNL     1      -3.724  13.962  23.907  0.00  0.00    +0.000 C 
ATOM      8  C   UNL     1      -3.998  15.452  24.171  0.00  0.00    +0.000 C 
ATOM      9  O   UNL     1      -2.940  16.022  24.961  0.00  0.00    +0.000 OA
ATOM     10  C   UNL     1      -1.669  15.879  24.293  0.00  0.00    +0.000 C 
ATOM     11  C   UNL     1      -1.347  14.411  23.938  0.00  0.00    +0.000 C 
ATOM     12  C   UNL     1      -3.140  12.869  21.001  0.00  0.00    +0.000 A 
ATOM     13  C   UNL     1      -2.789  12.066  19.879  0.00  0.00    +0.000 A 
ATOM     14  C   UNL     1      -1.464  11.575  19.798  0.00  0.00    +0.000 A 
ATOM     15  C   UNL     1      -0.746  10.793  18.822  0.00  0.00    +0.000 A 
ATOM     16  C   UNL     1      -3.808  11.800  18.795  0.00  0.00    +0.000 C 
ATOM     17  C   UNL     1      -5.230  12.135  19.231  0.00  0.00    +0.000 C 
ATOM     18  O   UNL     1      -5.196  13.465  19.751  0.00  0.00    +0.000 OA
ATOM     19  C   UNL     1      -4.525  13.477  21.014  0.00  0.00    +0.000 C 
ENDROOT
BRANCH  15  20
ATOM     20  N   UNL     1      -1.270  10.357  17.649  0.00  0.00    +0.000 N 
ATOM     21  H   UNL     1      -0.850  10.572  16.753  0.00  0.00    +0.000 HD
ATOM     22  H   UNL     1      -1.824   9.496  17.619  0.00  0.00    +0.000 HD
ENDBRANCH  15  20
BRANCH  17  23
ATOM     23  C   UNL     1      -6.244  12.094  18.074  0.00  0.00    +0.000 C 
ATOM     24  C   UNL     1      -7.413  13.053  18.299  0.00  0.00    +0.000 C 
ATOM     25  C   UNL     1      -5.550  12.429  16.747  0.00  0.00    +0.000 C 
ENDBRANCH  17  23
BRANCH   1  26
ATOM     26  C   UNL     1       1.470   9.592  18.537  0.00  0.00    +0.000 C 
ATOM     27  O   UNL     1       1.832   9.717  17.372  0.00  0.00    +0.000 OA
BRANCH  26  28
ATOM     28  O   UNL     1       1.796   8.525  19.323  0.00  0.00    +0.000 OA
BRANCH  28  30
ATOM     29  C   UNL     1       2.432   6.238  19.525  0.00  0.00    +0.000 C 
ATOM     30  C   UNL     1       2.531   7.486  18.664  0.00  0.00    +0.000 C 
ENDBRANCH  28  30
ENDBRANCH  26  28
ENDBRANCH   1  26
TORSDOF 5
ENDMDL
MODEL 6
REMARK VINA RESULT:      -6.0      1.134      1.910
REMARK  Name = 
REMARK  8 active torsions:
REMARK  status: ('A' for Active; 'I' for Inactive)
REMARK    1  A    between atoms: C_1  and  C_2
REMARK    2  A    between atoms: C_2  and  O_3
REMARK    3  A    between atoms: O_3  and  C_4
REMARK    4  A    between atoms: C_4  and  C_6
REMARK    5  A    between atoms: C_20  and  N_21
REMARK    6  A    between atoms: C_23  and  C_24
REMARK    7  A    between atoms: C_24  and  C_25
REMARK    8  A    between atoms: C_24  and  C_26
REMARK                            x       y       z     vdW  Elec       q    Type
REMARK                         _______ _______ _______ _____ _____    ______ ____
ROOT
ATOM      1  C   UNL     1       5.359   5.434  16.141  0.00  0.00    +0.000 A 
ATOM      2  S   UNL     1       4.997   7.108  16.144  0.00  0.00    +0.000 S 
ATOM      3  C   UNL     1       3.842   6.936  17.380  0.00  0.00    +0.000 A 
ATOM      4  N   UNL     1       3.204   8.019  17.855  0.00  0.00    +0.000 NA
ATOM      5  C   UNL     1       2.296   7.830  18.833  0.00  0.00    +0.000 A 
ATOM      6  N   UNL     1       1.612   8.961  19.234  0.00  0.00    +0.000 N 
ATOM      7  C   UNL     1       1.170   9.301  20.591  0.00  0.00    +0.000 C 
ATOM      8  C   UNL     1      -0.269   9.830  20.484  0.00  0.00    +0.000 C 
ATOM      9  O   UNL     1      -0.306  11.022  19.680  0.00  0.00    +0.000 OA
ATOM     10  C   UNL     1       0.210  10.761  18.358  0.00  0.00    +0.000 C 
ATOM     11  C   UNL     1       1.636  10.169  18.382  0.00  0.00    +0.000 C 
ATOM     12  C   UNL     1       2.025   6.538  19.321  0.00  0.00    +0.000 A 
ATOM     13  C   UNL     1       2.752   5.415  18.834  0.00  0.00    +0.000 A 
ATOM     14  C   UNL     1       3.682   5.624  17.788  0.00  0.00    +0.000 A 
ATOM     15  C   UNL     1       4.543   4.753  17.027  0.00  0.00    +0.000 A 
ATOM     16  C   UNL     1       2.485   4.040  19.404  0.00  0.00    +0.000 C 
ATOM     17  C   UNL     1       1.708   4.089  20.715  0.00  0.00    +0.000 C 
ATOM     18  O   UNL     1       0.561   4.908  20.480  0.00  0.00    +0.000 OA
ATOM     19  C   UNL     1       0.957   6.277  20.360  0.00  0.00    +0.000 C 
ENDROOT
BRANCH  15  20
ATOM     20  N   UNL     1       4.604   3.406  17.180  0.00  0.00    +0.000 N 
ATOM     21  H   UNL     1       5.478   2.895  17.147  0.00  0.00    +0.000 HD
ATOM     22  H   UNL     1       3.888   2.915  17.722  0.00  0.00    +0.000 HD
ENDBRANCH  15  20
BRANCH  17  23
ATOM     23  C   UNL     1       1.227   2.705  21.185  0.00  0.00    +0.000 C 
ATOM     24  C   UNL     1       0.914   1.776  20.011  0.00  0.00    +0.000 C 
ATOM     25  C   UNL     1       2.279   2.055  22.091  0.00  0.00    +0.000 C 
ENDBRANCH  17  23
BRANCH   1  26
ATOM     26  C   UNL     1       6.429   4.871  15.335  0.00  0.00    +0.000 C 
ATOM     27  O   UNL     1       6.267   4.229  14.303  0.00  0.00    +0.000 OA
BRANCH  26  28
ATOM     28  O   UNL     1       7.639   5.042  15.942  0.00  0.00    +0.000 OA
BRANCH  28  30
ATOM     29  C   UNL     1       7.830   5.711  18.220  0.00  0.00    +0.000 C 
ATOM     30  C   UNL     1       7.729   4.524  17.276  0.00  0.00    +0.000 C 
ENDBRANCH  28  30
ENDBRANCH  26  28
ENDBRANCH   1  26
TORSDOF 5
ENDMDL
MODEL 7
REMARK VINA RESULT:      -5.9      4.826     10.850
REMARK  Name = 
REMARK  8 active torsions:
REMARK  status: ('A' for Active; 'I' for Inactive)
REMARK    1  A    between atoms: C_1  and  C_2
REMARK    2  A    between atoms: C_2  and  O_3
REMARK    3  A    between atoms: O_3  and  C_4
REMARK    4  A    between atoms: C_4  and  C_6
REMARK    5  A    between atoms: C_20  and  N_21
REMARK    6  A    between atoms: C_23  and  C_24
REMARK    7  A    between atoms: C_24  and  C_25
REMARK    8  A    between atoms: C_24  and  C_26
REMARK                            x       y       z     vdW  Elec       q    Type
REMARK                         _______ _______ _______ _____ _____    ______ ____
ROOT
ATOM      1  C   UNL     1      -2.442  13.205  22.280  0.00  0.00    +0.000 A 
ATOM      2  S   UNL     1      -1.113  12.268  22.823  0.00  0.00    +0.000 S 
ATOM      3  C   UNL     1      -0.947  11.491  21.319  0.00  0.00    +0.000 A 
ATOM      4  N   UNL     1       0.041  10.600  21.133  0.00  0.00    +0.000 NA
ATOM      5  C   UNL     1       0.130  10.009  19.924  0.00  0.00    +0.000 A 
ATOM      6  N   UNL     1       1.112   9.045  19.806  0.00  0.00    +0.000 N 
ATOM      7  C   UNL     1       1.941   8.757  18.631  0.00  0.00    +0.000 C 
ATOM      8  C   UNL     1       1.990   7.229  18.468  0.00  0.00    +0.000 C 
ATOM      9  O   UNL     1       2.603   6.624  19.620  0.00  0.00    +0.000 OA
ATOM     10  C   UNL     1       1.876   6.956  20.820  0.00  0.00    +0.000 C 
ATOM     11  C   UNL     1       1.731   8.480  21.024  0.00  0.00    +0.000 C 
ATOM     12  C   UNL     1      -0.793  10.313  18.907  0.00  0.00    +0.000 A 
ATOM     13  C   UNL     1      -1.799  11.300  19.117  0.00  0.00    +0.000 A 
ATOM     14  C   UNL     1      -1.899  11.890  20.399  0.00  0.00    +0.000 A 
ATOM     15  C   UNL     1      -2.790  12.860  20.986  0.00  0.00    +0.000 A 
ATOM     16  C   UNL     1      -2.753  11.652  17.998  0.00  0.00    +0.000 C 
ATOM     17  C   UNL     1      -2.273  11.154  16.639  0.00  0.00    +0.000 C 
ATOM     18  O   UNL     1      -1.970   9.767  16.795  0.00  0.00    +0.000 OA
ATOM     19  C   UNL     1      -0.775   9.614  17.566  0.00  0.00    +0.000 C 
ENDROOT
BRANCH  15  20
ATOM     20  N   UNL     1      -3.840  13.428  20.343  0.00  0.00    +0.000 N 
ATOM     21  H   UNL     1      -4.711  13.647  20.812  0.00  0.00    +0.000 HD
ATOM     22  H   UNL     1      -3.684  14.021  19.523  0.00  0.00    +0.000 HD
ENDBRANCH  15  20
BRANCH  17  23
ATOM     23  C   UNL     1      -3.334  11.296  15.533  0.00  0.00    +0.000 C 
ATOM     24  C   UNL     1      -3.329  10.104  14.575  0.00  0.00    +0.000 C 
ATOM     25  C   UNL     1      -4.728  11.457  16.152  0.00  0.00    +0.000 C 
ENDBRANCH  17  23
BRANCH   1  26
ATOM     26  C   UNL     1      -3.044  14.245  23.096  0.00  0.00    +0.000 C 
ATOM     27  O   UNL     1      -3.907  15.027  22.712  0.00  0.00    +0.000 OA
BRANCH  26  28
ATOM     28  O   UNL     1      -2.435  14.324  24.314  0.00  0.00    +0.000 OA
BRANCH  28  30
ATOM     29  C   UNL     1      -1.472  15.653  26.040  0.00  0.00    +0.000 C 
ATOM     30  C   UNL     1      -2.549  15.593  24.970  0.00  0.00    +0.000 C 
ENDBRANCH  28  30
ENDBRANCH  26  28
ENDBRANCH   1  26
TORSDOF 5
ENDMDL
MODEL 8
REMARK VINA RESULT:      -5.8      1.780      6.610
REMARK  Name = 
REMARK  8 active torsions:
REMARK  status: ('A' for Active; 'I' for Inactive)
REMARK    1  A    between atoms: C_1  and  C_2
REMARK    2  A    between atoms: C_2  and  O_3
REMARK    3  A    between atoms: O_3  and  C_4
REMARK    4  A    between atoms: C_4  and  C_6
REMARK    5  A    between atoms: C_20  and  N_21
REMARK    6  A    between atoms: C_23  and  C_24
REMARK    7  A    between atoms: C_24  and  C_25
REMARK    8  A    between atoms: C_24  and  C_26
REMARK                            x       y       z     vdW  Elec       q    Type
REMARK                         _______ _______ _______ _____ _____    ______ ____
ROOT
ATOM      1  C   UNL     1       1.311   9.372  19.326  0.00  0.00    +0.000 A 
ATOM      2  S   UNL     1       2.230   9.468  17.883  0.00  0.00    +0.000 S 
ATOM      3  C   UNL     1       2.817   7.882  18.059  0.00  0.00    +0.000 A 
ATOM      4  N   UNL     1       3.626   7.360  17.121  0.00  0.00    +0.000 NA
ATOM      5  C   UNL     1       4.067   6.100  17.306  0.00  0.00    +0.000 A 
ATOM      6  N   UNL     1       4.955   5.637  16.356  0.00  0.00    +0.000 N 
ATOM      7  C   UNL     1       5.059   4.274  15.823  0.00  0.00    +0.000 C 
ATOM      8  C   UNL     1       6.553   3.914  15.775  0.00  0.00    +0.000 C 
ATOM      9  O   UNL     1       7.253   4.805  14.890  0.00  0.00    +0.000 OA
ATOM     10  C   UNL     1       7.102   6.174  15.319  0.00  0.00    +0.000 C 
ATOM     11  C   UNL     1       5.623   6.596  15.451  0.00  0.00    +0.000 C 
ATOM     12  C   UNL     1       3.697   5.372  18.452  0.00  0.00    +0.000 A 
ATOM     13  C   UNL     1       2.799   5.932  19.405  0.00  0.00    +0.000 A 
ATOM     14  C   UNL     1       2.367   7.266  19.212  0.00  0.00    +0.000 A 
ATOM     15  C   UNL     1       1.523   8.161  19.963  0.00  0.00    +0.000 A 
ATOM     16  C   UNL     1       2.371   5.119  20.606  0.00  0.00    +0.000 C 
ATOM     17  C   UNL     1       2.681   3.634  20.450  0.00  0.00    +0.000 C 
ATOM     18  O   UNL     1       4.059   3.540  20.082  0.00  0.00    +0.000 OA
ATOM     19  C   UNL     1       4.235   3.987  18.735  0.00  0.00    +0.000 C 
ENDROOT
BRANCH  15  20
ATOM     20  N   UNL     1       0.941   7.857  21.150  0.00  0.00    +0.000 N 
ATOM     21  H   UNL     1      -0.049   7.989  21.320  0.00  0.00    +0.000 HD
ATOM     22  H   UNL     1       1.343   7.132  21.751  0.00  0.00    +0.000 HD
ENDBRANCH  15  20
BRANCH  17  23
ATOM     23  C   UNL     1       2.470   2.832  21.746  0.00  0.00    +0.000 C 
ATOM     24  C   UNL     1       1.018   2.386  21.917  0.00  0.00    +0.000 C 
ATOM     25  C   UNL     1       3.394   1.608  21.770  0.00  0.00    +0.000 C 
ENDBRANCH  17  23
BRANCH   1  26
ATOM     26  C   UNL     1       0.407  10.429  19.744  0.00  0.00    +0.000 C 
ATOM     27  O   UNL     1       0.033  10.619  20.896  0.00  0.00    +0.000 OA
BRANCH  26  28
ATOM     28  O   UNL     1      -0.076  11.112  18.666  0.00  0.00    +0.000 OA
BRANCH  28  30
ATOM     29  C   UNL     1      -2.021  10.145  17.688  0.00  0.00    +0.000 C 
ATOM     30  C   UNL     1      -1.504  11.234  18.613  0.00  0.00    +0.000 C 
ENDBRANCH  28  30
ENDBRANCH  26  28
ENDBRANCH   1  26
TORSDOF 5
ENDMDL
MODEL 9
REMARK VINA RESULT:      -5.8      1.778      6.902
REMARK  Name = 
REMARK  8 active torsions:
REMARK  status: ('A' for Active; 'I' for Inactive)
REMARK    1  A    between atoms: C_1  and  C_2
REMARK    2  A    between atoms: C_2  and  O_3
REMARK    3  A    between atoms: O_3  and  C_4
REMARK    4  A    between atoms: C_4  and  C_6
REMARK    5  A    between atoms: C_20  and  N_21
REMARK    6  A    between atoms: C_23  and  C_24
REMARK    7  A    between atoms: C_24  and  C_25
REMARK    8  A    between atoms: C_24  and  C_26
REMARK                            x       y       z     vdW  Elec       q    Type
REMARK                         _______ _______ _______ _____ _____    ______ ____
ROOT
ATOM      1  C   UNL     1       1.261   9.352  19.361  0.00  0.00    +0.000 A 
ATOM      2  S   UNL     1       2.172   9.459  17.914  0.00  0.00    +0.000 S 
ATOM      3  C   UNL     1       2.773   7.878  18.085  0.00  0.00    +0.000 A 
ATOM      4  N   UNL     1       3.582   7.364  17.142  0.00  0.00    +0.000 NA
ATOM      5  C   UNL     1       4.035   6.107  17.324  0.00  0.00    +0.000 A 
ATOM      6  N   UNL     1       4.923   5.653  16.369  0.00  0.00    +0.000 N 
ATOM      7  C   UNL     1       5.036   4.292  15.833  0.00  0.00    +0.000 C 
ATOM      8  C   UNL     1       6.532   3.945  15.778  0.00  0.00    +0.000 C 
ATOM      9  O   UNL     1       7.221   4.844  14.891  0.00  0.00    +0.000 OA
ATOM     10  C   UNL     1       7.061   6.210  15.323  0.00  0.00    +0.000 C 
ATOM     11  C   UNL     1       5.578   6.619  15.463  0.00  0.00    +0.000 C 
ATOM     12  C   UNL     1       3.677   5.374  18.471  0.00  0.00    +0.000 A 
ATOM     13  C   UNL     1       2.778   5.926  19.428  0.00  0.00    +0.000 A 
ATOM     14  C   UNL     1       2.334   7.256  19.239  0.00  0.00    +0.000 A 
ATOM     15  C   UNL     1       1.485   8.143  19.996  0.00  0.00    +0.000 A 
ATOM     16  C   UNL     1       2.363   5.107  20.630  0.00  0.00    +0.000 C 
ATOM     17  C   UNL     1       2.685   3.625  20.470  0.00  0.00    +0.000 C 
ATOM     18  O   UNL     1       4.062   3.544  20.097  0.00  0.00    +0.000 OA
ATOM     19  C   UNL     1       4.228   3.994  18.749  0.00  0.00    +0.000 C 
ENDROOT
BRANCH  15  20
ATOM     20  N   UNL     1       0.912   7.832  21.185  0.00  0.00    +0.000 N 
ATOM     21  H   UNL     1       0.002   8.184  21.458  0.00  0.00    +0.000 HD
ATOM     22  H   UNL     1       1.144   6.953  21.656  0.00  0.00    +0.000 HD
ENDBRANCH  15  20
BRANCH  17  23
ATOM     23  C   UNL     1       2.487   2.820  21.767  0.00  0.00    +0.000 C 
ATOM     24  C   UNL     1       1.031   2.399  21.965  0.00  0.00    +0.000 C 
ATOM     25  C   UNL     1       3.389   1.579  21.765  0.00  0.00    +0.000 C 
ENDBRANCH  17  23
BRANCH   1  26
ATOM     26  C   UNL     1       0.349  10.401  19.784  0.00  0.00    +0.000 C 
ATOM     27  O   UNL     1      -0.631  10.778  19.151  0.00  0.00    +0.000 OA
BRANCH  26  28
ATOM     28  O   UNL     1       0.795  11.005  20.924  0.00  0.00    +0.000 OA
BRANCH  28  30
ATOM     29  C   UNL     1      -0.701  10.642  22.741  0.00  0.00    +0.000 C 
ATOM     30  C   UNL     1      -0.218  11.647  21.709  0.00  0.00    +0.000 C 
ENDBRANCH  28  30
ENDBRANCH  26  28
ENDBRANCH   1  26
TORSDOF 5
ENDMDL
