MODEL 1
REMARK VINA RESULT:      -7.2      0.000      0.000
REMARK  Name = 
REMARK  8 active torsions:
REMARK  status: ('A' for Active; 'I' for Inactive)
REMARK    1  A    between atoms: C_5  and  N_6
REMARK    2  A    between atoms: N_19  and  C_20
REMARK    3  A    between atoms: C_20  and  S_21
REMARK    4  A    between atoms: S_21  and  C_22
REMARK    5  A    between atoms: C_22  and  N_24
REMARK    6  A    between atoms: N_24  and  C_25
REMARK    7  A    between atoms: C_25  and  C_26
REMARK    8  A    between atoms: C_26  and  C_27
REMARK                            x       y       z     vdW  Elec       q    Type
REMARK                         _______ _______ _______ _____ _____    ______ ____
ROOT
ATOM      1  O   UNL     1       3.196   7.452  17.769  0.00  0.00    +0.000 OA
ATOM      2  C   UNL     1       2.446   8.272  18.302  0.00  0.00    +0.000 C 
ATOM      3  C   UNL     1       2.185   9.577  17.580  0.00  0.00    +0.000 C 
ATOM      4  C   UNL     1       1.999  10.730  18.534  0.00  0.00    +0.000 C 
ATOM      5  C   UNL     1       0.957  10.433  19.597  0.00  0.00    +0.000 C 
ATOM      6  C   UNL     1       1.155   9.075  20.260  0.00  0.00    +0.000 C 
ATOM      7  O   UNL     1       0.702   8.887  21.396  0.00  0.00    +0.000 OA
ATOM      8  N   UNL     1       1.811   8.071  19.530  0.00  0.00    +0.000 N 
ENDROOT
BRANCH   5   9
ATOM      9  N   UNL     1      -0.428  10.607  19.182  0.00  0.00    +0.000 N 
ATOM     10  C   UNL     1      -1.004  10.040  18.084  0.00  0.00    +0.000 C 
ATOM     11  O   UNL     1      -0.545   9.270  17.263  0.00  0.00    +0.000 OA
ATOM     12  C   UNL     1      -2.352  10.548  17.981  0.00  0.00    +0.000 A 
ATOM     13  C   UNL     1      -3.300  10.310  16.997  0.00  0.00    +0.000 A 
ATOM     14  C   UNL     1      -4.516  10.972  17.138  0.00  0.00    +0.000 A 
ATOM     15  C   UNL     1      -4.745  11.829  18.235  0.00  0.00    +0.000 A 
ATOM     16  C   UNL     1      -3.766  12.051  19.209  0.00  0.00    +0.000 A 
ATOM     17  C   UNL     1      -2.563  11.388  19.045  0.00  0.00    +0.000 A 
ATOM     18  C   UNL     1      -1.317  11.440  19.813  0.00  0.00    +0.000 C 
ATOM     19  O   UNL     1      -1.144  12.151  20.780  0.00  0.00    +0.000 OA
ENDBRANCH   5   9
BRANCH   8  20
ATOM     20  C   UNL     1       2.023   6.829  20.285  0.00  0.00    +0.000 C 
BRANCH  20  21
ATOM     21  S   UNL     1       1.308   5.265  19.730  0.00  0.00    +0.000 S 
BRANCH  21  22
ATOM     22  C   UNL     1       2.663   4.254  19.292  0.00  0.00    +0.000 C 
ATOM     23  S   UNL     1       3.452   3.137  20.240  0.00  0.00    +0.000 S 
BRANCH  22  24
ATOM     24  N   UNL     1       3.031   4.570  17.998  0.00  0.00    +0.000 N 
ATOM     25  H   UNL     1       2.298   5.017  17.460  0.00  0.00    +0.000 HD
BRANCH  24  26
ATOM     26  C   UNL     1       4.064   3.835  17.271  0.00  0.00    +0.000 C 
BRANCH  26  27
ATOM     27  C   UNL     1       4.897   4.704  16.328  0.00  0.00    +0.000 C 
BRANCH  27  28
ATOM     28  C   UNL     1       6.008   5.405  17.082  0.00  0.00    +0.000 A 
ATOM     29  C   UNL     1       6.657   4.766  18.146  0.00  0.00    +0.000 A 
ATOM     30  C   UNL     1       7.633   5.431  18.888  0.00  0.00    +0.000 A 
ATOM     31  C   UNL     1       7.978   6.746  18.570  0.00  0.00    +0.000 A 
ATOM     32  C   UNL     1       7.341   7.392  17.513  0.00  0.00    +0.000 A 
ATOM     33  C   UNL     1       6.361   6.726  16.771  0.00  0.00    +0.000 A 
ENDBRANCH  27  28
ENDBRANCH  26  27
ENDBRANCH  24  26
ENDBRANCH  22  24
ENDBRANCH  21  22
ENDBRANCH  20  21
ENDBRANCH   8  20
TORSDOF 8
ENDMDL
MODEL 2
REMARK VINA RESULT:      -7.2      0.993      1.932
REMARK  Name = 
REMARK  8 active torsions:
REMARK  status: ('A' for Active; 'I' for Inactive)
REMARK    1  A    between atoms: C_5  and  N_6
REMARK    2  A    between atoms: N_19  and  C_20
REMARK    3  A    between atoms: C_20  and  S_21
REMARK    4  A    between atoms: S_21  and  C_22
REMARK    5  A    between atoms: C_22  and  N_24
REMARK    6  A    between atoms: N_24  and  C_25
REMARK    7  A    between atoms: C_25  and  C_26
REMARK    8  A    between atoms: C_26  and  C_27
REMARK                            x       y       z     vdW  Elec       q    Type
REMARK                         _______ _______ _______ _____ _____    ______ ____
ROOT
ATOM      1  O   UNL     1       2.767   7.773  18.249  0.00  0.00    +0.000 OA
ATOM      2  C   UNL     1       2.062   8.686  18.682  0.00  0.00    +0.000 C 
ATOM      3  C   UNL     1       1.842   9.899  17.803  0.00  0.00    +0.000 C 
ATOM      4  C   UNL     1       1.721  11.171  18.604  0.00  0.00    +0.000 C 
ATOM      5  C   UNL     1       0.687  11.057  19.708  0.00  0.00    +0.000 C 
ATOM      6  C   UNL     1       0.841   9.786  20.538  0.00  0.00    +0.000 C 
ATOM      7  O   UNL     1       0.400   9.764  21.694  0.00  0.00    +0.000 OA
ATOM      8  N   UNL     1       1.441   8.671  19.934  0.00  0.00    +0.000 N 
ENDROOT
BRANCH   5   9
ATOM      9  N   UNL     1      -0.697  11.236  19.292  0.00  0.00    +0.000 N 
ATOM     10  C   UNL     1      -1.601  12.070  19.880  0.00  0.00    +0.000 C 
ATOM     11  O   UNL     1      -1.469  12.847  20.805  0.00  0.00    +0.000 OA
ATOM     12  C   UNL     1      -2.874  11.870  19.229  0.00  0.00    +0.000 A 
ATOM     13  C   UNL     1      -4.102  12.445  19.521  0.00  0.00    +0.000 A 
ATOM     14  C   UNL     1      -5.178  12.032  18.742  0.00  0.00    +0.000 A 
ATOM     15  C   UNL     1      -5.000  11.083  17.714  0.00  0.00    +0.000 A 
ATOM     16  C   UNL     1      -3.748  10.518  17.448  0.00  0.00    +0.000 A 
ATOM     17  C   UNL     1      -2.694  10.938  18.239  0.00  0.00    +0.000 A 
ATOM     18  C   UNL     1      -1.293  10.516  18.287  0.00  0.00    +0.000 C 
ATOM     19  O   UNL     1      -0.820   9.644  17.588  0.00  0.00    +0.000 OA
ENDBRANCH   5   9
BRANCH   8  20
ATOM     20  C   UNL     1       1.615   7.527  20.838  0.00  0.00    +0.000 C 
BRANCH  20  21
ATOM     21  S   UNL     1       0.911   5.910  20.445  0.00  0.00    +0.000 S 
BRANCH  21  22
ATOM     22  C   UNL     1       2.192   4.755  20.719  0.00  0.00    +0.000 C 
ATOM     23  S   UNL     1       2.131   3.356  21.618  0.00  0.00    +0.000 S 
BRANCH  22  24
ATOM     24  N   UNL     1       3.330   5.224  20.092  0.00  0.00    +0.000 N 
ATOM     25  H   UNL     1       3.495   6.215  20.225  0.00  0.00    +0.000 HD
BRANCH  24  26
ATOM     26  C   UNL     1       3.890   4.592  18.899  0.00  0.00    +0.000 C 
BRANCH  26  27
ATOM     27  C   UNL     1       5.379   4.262  19.010  0.00  0.00    +0.000 C 
BRANCH  27  28
ATOM     28  C   UNL     1       6.225   5.414  18.510  0.00  0.00    +0.000 A 
ATOM     29  C   UNL     1       7.424   5.744  19.152  0.00  0.00    +0.000 A 
ATOM     30  C   UNL     1       8.174   6.846  18.739  0.00  0.00    +0.000 A 
ATOM     31  C   UNL     1       7.734   7.630  17.671  0.00  0.00    +0.000 A 
ATOM     32  C   UNL     1       6.544   7.311  17.023  0.00  0.00    +0.000 A 
ATOM     33  C   UNL     1       5.791   6.207  17.439  0.00  0.00    +0.000 A 
ENDBRANCH  27  28
ENDBRANCH  26  27
ENDBRANCH  24  26
ENDBRANCH  22  24
ENDBRANCH  21  22
ENDBRANCH  20  21
ENDBRANCH   8  20
TORSDOF 8
ENDMDL
MODEL 3
REMARK VINA RESULT:      -7.2      3.388      9.779
REMARK  Name = 
REMARK  8 active torsions:
REMARK  status: ('A' for Active; 'I' for Inactive)
REMARK    1  A    between atoms: C_5  and  N_6
REMARK    2  A    between atoms: N_19  and  C_20
REMARK    3  A    between atoms: C_20  and  S_21
REMARK    4  A    between atoms: S_21  and  C_22
REMARK    5  A    between atoms: C_22  and  N_24
REMARK    6  A    between atoms: N_24  and  C_25
REMARK    7  A    between atoms: C_25  and  C_26
REMARK    8  A    between atoms: C_26  and  C_27
REMARK                            x       y       z     vdW  Elec       q    Type
REMARK                         _______ _______ _______ _____ _____    ______ ____
ROOT
ATOM      1  O   UNL     1       2.165   4.092  19.781  0.00  0.00    +0.000 OA
ATOM      2  C   UNL     1       3.119   4.527  19.134  0.00  0.00    +0.000 C 
ATOM      3  C   UNL     1       4.304   3.613  18.907  0.00  0.00    +0.000 C 
ATOM      4  C   UNL     1       5.610   4.367  18.876  0.00  0.00    +0.000 C 
ATOM      5  C   UNL     1       5.577   5.532  17.904  0.00  0.00    +0.000 C 
ATOM      6  C   UNL     1       4.334   6.402  18.060  0.00  0.00    +0.000 C 
ATOM      7  O   UNL     1       4.373   7.581  17.686  0.00  0.00    +0.000 OA
ATOM      8  N   UNL     1       3.175   5.811  18.586  0.00  0.00    +0.000 N 
ENDROOT
BRANCH   5   9
ATOM      9  N   UNL     1       5.792   5.186  16.506  0.00  0.00    +0.000 N 
ATOM     10  C   UNL     1       5.006   4.355  15.765  0.00  0.00    +0.000 C 
ATOM     11  O   UNL     1       3.979   3.773  16.057  0.00  0.00    +0.000 OA
ATOM     12  C   UNL     1       5.623   4.203  14.469  0.00  0.00    +0.000 A 
ATOM     13  C   UNL     1       5.229   3.408  13.402  0.00  0.00    +0.000 A 
ATOM     14  C   UNL     1       6.047   3.432  12.277  0.00  0.00    +0.000 A 
ATOM     15  C   UNL     1       7.208   4.235  12.249  0.00  0.00    +0.000 A 
ATOM     16  C   UNL     1       7.581   5.021  13.344  0.00  0.00    +0.000 A 
ATOM     17  C   UNL     1       6.756   4.977  14.454  0.00  0.00    +0.000 A 
ATOM     18  C   UNL     1       6.875   5.601  15.773  0.00  0.00    +0.000 C 
ATOM     19  O   UNL     1       7.810   6.293  16.116  0.00  0.00    +0.000 OA
ENDBRANCH   5   9
BRANCH   8  20
ATOM     20  C   UNL     1       2.061   6.750  18.771  0.00  0.00    +0.000 C 
BRANCH  20  21
ATOM     21  S   UNL     1       1.746   7.521  20.375  0.00  0.00    +0.000 S 
BRANCH  21  22
ATOM     22  C   UNL     1       1.193   9.139  20.022  0.00  0.00    +0.000 C 
ATOM     23  S   UNL     1       1.036   9.862  18.531  0.00  0.00    +0.000 S 
BRANCH  22  24
ATOM     24  N   UNL     1       0.943   9.776  21.222  0.00  0.00    +0.000 N 
ATOM     25  H   UNL     1       1.216   9.241  22.037  0.00  0.00    +0.000 HD
BRANCH  24  26
ATOM     26  C   UNL     1      -0.117  10.770  21.381  0.00  0.00    +0.000 C 
BRANCH  26  27
ATOM     27  C   UNL     1      -0.831  10.708  22.732  0.00  0.00    +0.000 C 
BRANCH  27  28
ATOM     28  C   UNL     1      -1.538  12.014  23.028  0.00  0.00    +0.000 A 
ATOM     29  C   UNL     1      -2.859  12.016  23.492  0.00  0.00    +0.000 A 
ATOM     30  C   UNL     1      -3.538  13.216  23.701  0.00  0.00    +0.000 A 
ATOM     31  C   UNL     1      -2.901  14.433  23.454  0.00  0.00    +0.000 A 
ATOM     32  C   UNL     1      -1.587  14.445  22.995  0.00  0.00    +0.000 A 
ATOM     33  C   UNL     1      -0.906  13.241  22.782  0.00  0.00    +0.000 A 
ENDBRANCH  27  28
ENDBRANCH  26  27
ENDBRANCH  24  26
ENDBRANCH  22  24
ENDBRANCH  21  22
ENDBRANCH  20  21
ENDBRANCH   8  20
TORSDOF 8
ENDMDL
MODEL 4
REMARK VINA RESULT:      -7.2      3.224      5.593
REMARK  Name = 
REMARK  8 active torsions:
REMARK  status: ('A' for Active; 'I' for Inactive)
REMARK    1  A    between atoms: C_5  and  N_6
REMARK    2  A    between atoms: N_19  and  C_20
REMARK    3  A    between atoms: C_20  and  S_21
REMARK    4  A    between atoms: S_21  and  C_22
REMARK    5  A    between atoms: C_22  and  N_24
REMARK    6  A    between atoms: N_24  and  C_25
REMARK    7  A    between atoms: C_25  and  C_26
REMARK    8  A    between atoms: C_26  and  C_27
REMARK                            x       y       z     vdW  Elec       q    Type
REMARK                         _______ _______ _______ _____ _____    ______ ____
ROOT
ATOM      1  O   UNL     1       4.187   2.890  19.764  0.00  0.00    +0.000 OA
ATOM      2  C   UNL     1       3.770   3.972  19.346  0.00  0.00    +0.000 C 
ATOM      3  C   UNL     1       2.275   4.145  19.179  0.00  0.00    +0.000 C 
ATOM      4  C   UNL     1       1.930   5.034  18.011  0.00  0.00    +0.000 C 
ATOM      5  C   UNL     1       2.669   6.358  18.060  0.00  0.00    +0.000 C 
ATOM      6  C   UNL     1       4.162   6.197  18.327  0.00  0.00    +0.000 C 
ATOM      7  O   UNL     1       4.939   7.087  17.960  0.00  0.00    +0.000 OA
ATOM      8  N   UNL     1       4.590   5.056  19.024  0.00  0.00    +0.000 N 
ENDROOT
BRANCH   5   9
ATOM      9  N   UNL     1       2.093   7.364  18.942  0.00  0.00    +0.000 N 
ATOM     10  C   UNL     1       1.735   7.168  20.242  0.00  0.00    +0.000 C 
ATOM     11  O   UNL     1       1.841   6.184  20.948  0.00  0.00    +0.000 OA
ATOM     12  C   UNL     1       1.115   8.381  20.718  0.00  0.00    +0.000 A 
ATOM     13  C   UNL     1       0.535   8.640  21.951  0.00  0.00    +0.000 A 
ATOM     14  C   UNL     1      -0.025   9.902  22.118  0.00  0.00    +0.000 A 
ATOM     15  C   UNL     1       0.012  10.850  21.074  0.00  0.00    +0.000 A 
ATOM     16  C   UNL     1       0.600  10.557  19.839  0.00  0.00    +0.000 A 
ATOM     17  C   UNL     1       1.146   9.294  19.693  0.00  0.00    +0.000 A 
ATOM     18  C   UNL     1       1.763   8.635  18.541  0.00  0.00    +0.000 C 
ATOM     19  O   UNL     1       1.877   9.144  17.446  0.00  0.00    +0.000 OA
ENDBRANCH   5   9
BRANCH   8  20
ATOM     20  C   UNL     1       6.049   4.955  19.159  0.00  0.00    +0.000 C 
BRANCH  20  21
ATOM     21  S   UNL     1       7.101   4.650  17.722  0.00  0.00    +0.000 S 
BRANCH  21  22
ATOM     22  C   UNL     1       7.376   6.214  16.996  0.00  0.00    +0.000 C 
ATOM     23  S   UNL     1       8.049   7.563  17.701  0.00  0.00    +0.000 S 
BRANCH  22  24
ATOM     24  N   UNL     1       6.883   6.178  15.706  0.00  0.00    +0.000 N 
ATOM     25  H   UNL     1       6.428   7.035  15.416  0.00  0.00    +0.000 HD
BRANCH  24  26
ATOM     26  C   UNL     1       6.485   4.935  15.049  0.00  0.00    +0.000 C 
BRANCH  26  27
ATOM     27  C   UNL     1       7.271   4.627  13.773  0.00  0.00    +0.000 C 
BRANCH  27  28
ATOM     28  C   UNL     1       6.431   3.820  12.805  0.00  0.00    +0.000 A 
ATOM     29  C   UNL     1       5.051   4.037  12.711  0.00  0.00    +0.000 A 
ATOM     30  C   UNL     1       4.262   3.251  11.872  0.00  0.00    +0.000 A 
ATOM     31  C   UNL     1       4.846   2.238  11.108  0.00  0.00    +0.000 A 
ATOM     32  C   UNL     1       6.217   2.014  11.192  0.00  0.00    +0.000 A 
ATOM     33  C   UNL     1       7.009   2.800  12.035  0.00  0.00    +0.000 A 
ENDBRANCH  27  28
ENDBRANCH  26  27
ENDBRANCH  24  26
ENDBRANCH  22  24
ENDBRANCH  21  22
ENDBRANCH  20  21
ENDBRANCH   8  20
TORSDOF 8
ENDMDL
MODEL 5
REMARK VINA RESULT:      -7.1      3.539      5.843
REMARK  Name = 
REMARK  8 active torsions:
REMARK  status: ('A' for Active; 'I' for Inactive)
REMARK    1  A    between atoms: C_5  and  N_6
REMARK    2  A    between atoms: N_19  and  C_20
REMARK    3  A    between atoms: C_20  and  S_21
REMARK    4  A    between atoms: S_21  and  C_22
REMARK    5  A    between atoms: C_22  and  N_24
REMARK    6  A    between atoms: N_24  and  C_25
REMARK    7  A    between atoms: C_25  and  C_26
REMARK    8  A    between atoms: C_26  and  C_27
REMARK                            x       y       z     vdW  Elec       q    Type
REMARK                         _______ _______ _______ _____ _____    ______ ____
ROOT
ATOM      1  O   UNL     1      -0.854  10.228  23.240  0.00  0.00    +0.000 OA
ATOM      2  C   UNL     1      -0.707  11.010  22.300  0.00  0.00    +0.000 C 
ATOM      3  C   UNL     1      -0.904  12.489  22.563  0.00  0.00    +0.000 C 
ATOM      4  C   UNL     1      -1.492  13.207  21.374  0.00  0.00    +0.000 C 
ATOM      5  C   UNL     1      -0.712  12.940  20.100  0.00  0.00    +0.000 C 
ATOM      6  C   UNL     1      -0.422  11.459  19.879  0.00  0.00    +0.000 C 
ATOM      7  O   UNL     1      -0.214  11.051  18.729  0.00  0.00    +0.000 OA
ATOM      8  N   UNL     1      -0.359  10.623  21.004  0.00  0.00    +0.000 N 
ENDROOT
BRANCH   5   9
ATOM      9  N   UNL     1       0.498  13.733  19.929  0.00  0.00    +0.000 N 
ATOM     10  C   UNL     1       1.707  13.469  20.502  0.00  0.00    +0.000 C 
ATOM     11  O   UNL     1       2.057  12.547  21.211  0.00  0.00    +0.000 OA
ATOM     12  C   UNL     1       2.602  14.549  20.160  0.00  0.00    +0.000 A 
ATOM     13  C   UNL     1       3.914  14.755  20.562  0.00  0.00    +0.000 A 
ATOM     14  C   UNL     1       4.526  15.916  20.101  0.00  0.00    +0.000 A 
ATOM     15  C   UNL     1       3.829  16.815  19.268  0.00  0.00    +0.000 A 
ATOM     16  C   UNL     1       2.504  16.581  18.884  0.00  0.00    +0.000 A 
ATOM     17  C   UNL     1       1.913  15.424  19.359  0.00  0.00    +0.000 A 
ATOM     18  C   UNL     1       0.550  14.907  19.221  0.00  0.00    +0.000 C 
ATOM     19  O   UNL     1      -0.340  15.484  18.632  0.00  0.00    +0.000 OA
ENDBRANCH   5   9
BRANCH   8  20
ATOM     20  C   UNL     1      -0.156   9.205  20.679  0.00  0.00    +0.000 C 
BRANCH  20  21
ATOM     21  S   UNL     1       1.427   8.392  20.995  0.00  0.00    +0.000 S 
BRANCH  21  22
ATOM     22  C   UNL     1       1.968   7.790  19.447  0.00  0.00    +0.000 C 
ATOM     23  S   UNL     1       2.172   8.645  18.034  0.00  0.00    +0.000 S 
BRANCH  22  24
ATOM     24  N   UNL     1       2.161   6.427  19.563  0.00  0.00    +0.000 N 
ATOM     25  H   UNL     1       2.207   5.941  18.676  0.00  0.00    +0.000 HD
BRANCH  24  26
ATOM     26  C   UNL     1       1.737   5.668  20.737  0.00  0.00    +0.000 C 
BRANCH  26  27
ATOM     27  C   UNL     1       1.053   4.341  20.406  0.00  0.00    +0.000 C 
BRANCH  27  28
ATOM     28  C   UNL     1       1.978   3.441  19.613  0.00  0.00    +0.000 A 
ATOM     29  C   UNL     1       1.677   3.105  18.289  0.00  0.00    +0.000 A 
ATOM     30  C   UNL     1       2.489   2.222  17.576  0.00  0.00    +0.000 A 
ATOM     31  C   UNL     1       3.619   1.668  18.179  0.00  0.00    +0.000 A 
ATOM     32  C   UNL     1       3.930   1.996  19.496  0.00  0.00    +0.000 A 
ATOM     33  C   UNL     1       3.115   2.879  20.212  0.00  0.00    +0.000 A 
ENDBRANCH  27  28
ENDBRANCH  26  27
ENDBRANCH  24  26
ENDBRANCH  22  24
ENDBRANCH  21  22
ENDBRANCH  20  21
ENDBRANCH   8  20
TORSDOF 8
ENDMDL
MODEL 6
REMARK VINA RESULT:      -7.1      1.242      2.251
REMARK  Name = 
REMARK  8 active torsions:
REMARK  status: ('A' for Active; 'I' for Inactive)
REMARK    1  A    between atoms: C_5  and  N_6
REMARK    2  A    between atoms: N_19  and  C_20
REMARK    3  A    between atoms: C_20  and  S_21
REMARK    4  A    between atoms: S_21  and  C_22
REMARK    5  A    between atoms: C_22  and  N_24
REMARK    6  A    between atoms: N_24  and  C_25
REMARK    7  A    between atoms: C_25  and  C_26
REMARK    8  A    between atoms: C_26  and  C_27
REMARK                            x       y       z     vdW  Elec       q    Type
REMARK                         _______ _______ _______ _____ _____    ______ ____
ROOT
ATOM      1  O   UNL     1       2.728   7.726  18.293  0.00  0.00    +0.000 OA
ATOM      2  C   UNL     1       2.021   8.646  18.708  0.00  0.00    +0.000 C 
ATOM      3  C   UNL     1       1.816   9.850  17.812  0.00  0.00    +0.000 C 
ATOM      4  C   UNL     1       1.691  11.131  18.596  0.00  0.00    +0.000 C 
ATOM      5  C   UNL     1       0.644  11.034  19.691  0.00  0.00    +0.000 C 
ATOM      6  C   UNL     1       0.784   9.773  20.537  0.00  0.00    +0.000 C 
ATOM      7  O   UNL     1       0.331   9.766  21.688  0.00  0.00    +0.000 OA
ATOM      8  N   UNL     1       1.387   8.648  19.953  0.00  0.00    +0.000 N 
ENDROOT
BRANCH   5   9
ATOM      9  N   UNL     1      -0.734  11.214  19.257  0.00  0.00    +0.000 N 
ATOM     10  C   UNL     1      -1.649  12.038  19.841  0.00  0.00    +0.000 C 
ATOM     11  O   UNL     1      -1.533  12.806  20.776  0.00  0.00    +0.000 OA
ATOM     12  C   UNL     1      -2.912  11.842  19.171  0.00  0.00    +0.000 A 
ATOM     13  C   UNL     1      -4.147  12.409  19.452  0.00  0.00    +0.000 A 
ATOM     14  C   UNL     1      -5.210  12.001  18.653  0.00  0.00    +0.000 A 
ATOM     15  C   UNL     1      -5.014  11.063  17.618  0.00  0.00    +0.000 A 
ATOM     16  C   UNL     1      -3.757  10.505  17.363  0.00  0.00    +0.000 A 
ATOM     17  C   UNL     1      -2.715  10.920  18.173  0.00  0.00    +0.000 A 
ATOM     18  C   UNL     1      -1.314  10.502  18.237  0.00  0.00    +0.000 C 
ATOM     19  O   UNL     1      -0.829   9.639  17.535  0.00  0.00    +0.000 OA
ENDBRANCH   5   9
BRANCH   8  20
ATOM     20  C   UNL     1       1.547   7.514  20.873  0.00  0.00    +0.000 C 
BRANCH  20  21
ATOM     21  S   UNL     1       0.905   5.877  20.457  0.00  0.00    +0.000 S 
BRANCH  21  22
ATOM     22  C   UNL     1       2.222   4.766  20.740  0.00  0.00    +0.000 C 
ATOM     23  S   UNL     1       2.175   3.308  21.540  0.00  0.00    +0.000 S 
BRANCH  22  24
ATOM     24  N   UNL     1       3.373   5.327  20.220  0.00  0.00    +0.000 N 
ATOM     25  H   UNL     1       3.317   6.330  20.085  0.00  0.00    +0.000 HD
BRANCH  24  26
ATOM     26  C   UNL     1       4.309   4.576  19.386  0.00  0.00    +0.000 C 
BRANCH  26  27
ATOM     27  C   UNL     1       5.546   5.372  18.968  0.00  0.00    +0.000 C 
BRANCH  27  28
ATOM     28  C   UNL     1       5.855   5.156  17.501  0.00  0.00    +0.000 A 
ATOM     29  C   UNL     1       7.135   4.756  17.097  0.00  0.00    +0.000 A 
ATOM     30  C   UNL     1       7.445   4.622  15.744  0.00  0.00    +0.000 A 
ATOM     31  C   UNL     1       6.474   4.879  14.775  0.00  0.00    +0.000 A 
ATOM     32  C   UNL     1       5.197   5.275  15.163  0.00  0.00    +0.000 A 
ATOM     33  C   UNL     1       4.886   5.413  16.521  0.00  0.00    +0.000 A 
ENDBRANCH  27  28
ENDBRANCH  26  27
ENDBRANCH  24  26
ENDBRANCH  22  24
ENDBRANCH  21  22
ENDBRANCH  20  21
ENDBRANCH   8  20
TORSDOF 8
ENDMDL
MODEL 7
REMARK VINA RESULT:      -7.0      4.523      8.866
REMARK  Name = 
REMARK  8 active torsions:
REMARK  status: ('A' for Active; 'I' for Inactive)
REMARK    1  A    between atoms: C_5  and  N_6
REMARK    2  A    between atoms: N_19  and  C_20
REMARK    3  A    between atoms: C_20  and  S_21
REMARK    4  A    between atoms: S_21  and  C_22
REMARK    5  A    between atoms: C_22  and  N_24
REMARK    6  A    between atoms: N_24  and  C_25
REMARK    7  A    between atoms: C_25  and  C_26
REMARK    8  A    between atoms: C_26  and  C_27
REMARK                            x       y       z     vdW  Elec       q    Type
REMARK                         _______ _______ _______ _____ _____    ______ ____
ROOT
ATOM      1  O   UNL     1       4.783   4.860  19.213  0.00  0.00    +0.000 OA
ATOM      2  C   UNL     1       5.224   5.184  18.110  0.00  0.00    +0.000 C 
ATOM      3  C   UNL     1       6.596   4.681  17.712  0.00  0.00    +0.000 C 
ATOM      4  C   UNL     1       7.345   5.674  16.860  0.00  0.00    +0.000 C 
ATOM      5  C   UNL     1       6.527   6.139  15.669  0.00  0.00    +0.000 C 
ATOM      6  C   UNL     1       5.109   6.554  16.047  0.00  0.00    +0.000 C 
ATOM      7  O   UNL     1       4.498   7.345  15.317  0.00  0.00    +0.000 OA
ATOM      8  N   UNL     1       4.535   5.981  17.192  0.00  0.00    +0.000 N 
ENDROOT
BRANCH   5   9
ATOM      9  N   UNL     1       6.512   5.233  14.528  0.00  0.00    +0.000 N 
ATOM     10  C   UNL     1       5.565   4.285  14.281  0.00  0.00    +0.000 C 
ATOM     11  O   UNL     1       4.547   4.011  14.887  0.00  0.00    +0.000 OA
ATOM     12  C   UNL     1       5.978   3.543  13.113  0.00  0.00    +0.000 A 
ATOM     13  C   UNL     1       5.373   2.445  12.519  0.00  0.00    +0.000 A 
ATOM     14  C   UNL     1       6.023   1.905  11.413  0.00  0.00    +0.000 A 
ATOM     15  C   UNL     1       7.228   2.467  10.941  0.00  0.00    +0.000 A 
ATOM     16  C   UNL     1       7.815   3.572  11.567  0.00  0.00    +0.000 A 
ATOM     17  C   UNL     1       7.155   4.089  12.668  0.00  0.00    +0.000 A 
ATOM     18  C   UNL     1       7.510   5.170  13.588  0.00  0.00    +0.000 C 
ATOM     19  O   UNL     1       8.537   5.812  13.520  0.00  0.00    +0.000 OA
ENDBRANCH   5   9
BRANCH   8  20
ATOM     20  C   UNL     1       3.201   6.506  17.515  0.00  0.00    +0.000 C 
BRANCH  20  21
ATOM     21  S   UNL     1       3.002   8.012  18.492  0.00  0.00    +0.000 S 
BRANCH  21  22
ATOM     22  C   UNL     1       2.146   7.531  19.936  0.00  0.00    +0.000 C 
ATOM     23  S   UNL     1       1.163   8.465  20.900  0.00  0.00    +0.000 S 
BRANCH  22  24
ATOM     24  N   UNL     1       2.461   6.211  20.198  0.00  0.00    +0.000 N 
ATOM     25  H   UNL     1       2.996   5.762  19.465  0.00  0.00    +0.000 HD
BRANCH  24  26
ATOM     26  C   UNL     1       1.646   5.364  21.067  0.00  0.00    +0.000 C 
BRANCH  26  27
ATOM     27  C   UNL     1       0.874   4.272  20.324  0.00  0.00    +0.000 C 
BRANCH  27  28
ATOM     28  C   UNL     1       1.813   3.410  19.506  0.00  0.00    +0.000 A 
ATOM     29  C   UNL     1       1.717   3.385  18.110  0.00  0.00    +0.000 A 
ATOM     30  C   UNL     1       2.533   2.542  17.355  0.00  0.00    +0.000 A 
ATOM     31  C   UNL     1       3.463   1.716  17.989  0.00  0.00    +0.000 A 
ATOM     32  C   UNL     1       3.569   1.734  19.377  0.00  0.00    +0.000 A 
ATOM     33  C   UNL     1       2.749   2.577  20.135  0.00  0.00    +0.000 A 
ENDBRANCH  27  28
ENDBRANCH  26  27
ENDBRANCH  24  26
ENDBRANCH  22  24
ENDBRANCH  21  22
ENDBRANCH  20  21
ENDBRANCH   8  20
TORSDOF 8
ENDMDL
MODEL 8
REMARK VINA RESULT:      -7.0      0.695      1.896
REMARK  Name = 
REMARK  8 active torsions:
REMARK  status: ('A' for Active; 'I' for Inactive)
REMARK    1  A    between atoms: C_5  and  N_6
REMARK    2  A    between atoms: N_19  and  C_20
REMARK    3  A    between atoms: C_20  and  S_21
REMARK    4  A    between atoms: S_21  and  C_22
REMARK    5  A    between atoms: C_22  and  N_24
REMARK    6  A    between atoms: N_24  and  C_25
REMARK    7  A    between atoms: C_25  and  C_26
REMARK    8  A    between atoms: C_26  and  C_27
REMARK                            x       y       z     vdW  Elec       q    Type
REMARK                         _______ _______ _______ _____ _____    ______ ____
ROOT
ATOM      1  O   UNL     1       2.822   7.766  17.809  0.00  0.00    +0.000 OA
ATOM      2  C   UNL     1       2.115   8.612  18.359  0.00  0.00    +0.000 C 
ATOM      3  C   UNL     1       1.909   9.938  17.656  0.00  0.00    +0.000 C 
ATOM      4  C   UNL     1       1.783  11.085  18.627  0.00  0.00    +0.000 C 
ATOM      5  C   UNL     1       0.736  10.822  19.693  0.00  0.00    +0.000 C 
ATOM      6  C   UNL     1       0.875   9.446  20.336  0.00  0.00    +0.000 C 
ATOM      7  O   UNL     1       0.421   9.264  21.473  0.00  0.00    +0.000 OA
ATOM      8  N   UNL     1       1.479   8.424  19.588  0.00  0.00    +0.000 N 
ENDROOT
BRANCH   5   9
ATOM      9  N   UNL     1      -0.643  11.064  19.290  0.00  0.00    +0.000 N 
ATOM     10  C   UNL     1      -1.521  11.891  19.925  0.00  0.00    +0.000 C 
ATOM     11  O   UNL     1      -1.366  12.612  20.891  0.00  0.00    +0.000 OA
ATOM     12  C   UNL     1      -2.800  11.766  19.267  0.00  0.00    +0.000 A 
ATOM     13  C   UNL     1      -4.011  12.359  19.593  0.00  0.00    +0.000 A 
ATOM     14  C   UNL     1      -5.099  12.022  18.795  0.00  0.00    +0.000 A 
ATOM     15  C   UNL     1      -4.949  11.126  17.715  0.00  0.00    +0.000 A 
ATOM     16  C   UNL     1      -3.715  10.540  17.415  0.00  0.00    +0.000 A 
ATOM     17  C   UNL     1      -2.648  10.884  18.226  0.00  0.00    +0.000 A 
ATOM     18  C   UNL     1      -1.260  10.419  18.248  0.00  0.00    +0.000 C 
ATOM     19  O   UNL     1      -0.814   9.573  17.501  0.00  0.00    +0.000 OA
ENDBRANCH   5   9
BRANCH   8  20
ATOM     20  C   UNL     1       1.639   7.163  20.325  0.00  0.00    +0.000 C 
BRANCH  20  21
ATOM     21  S   UNL     1       2.976   6.014  19.931  0.00  0.00    +0.000 S 
BRANCH  21  22
ATOM     22  C   UNL     1       2.235   4.716  19.027  0.00  0.00    +0.000 C 
ATOM     23  S   UNL     1       1.175   3.561  19.583  0.00  0.00    +0.000 S 
BRANCH  22  24
ATOM     24  N   UNL     1       2.722   4.764  17.735  0.00  0.00    +0.000 N 
ATOM     25  H   UNL     1       2.064   5.134  17.061  0.00  0.00    +0.000 HD
BRANCH  24  26
ATOM     26  C   UNL     1       3.761   3.857  17.250  0.00  0.00    +0.000 C 
BRANCH  26  27
ATOM     27  C   UNL     1       4.789   4.522  16.333  0.00  0.00    +0.000 C 
BRANCH  27  28
ATOM     28  C   UNL     1       5.823   5.278  17.142  0.00  0.00    +0.000 A 
ATOM     29  C   UNL     1       6.293   6.522  16.706  0.00  0.00    +0.000 A 
ATOM     30  C   UNL     1       7.295   7.191  17.409  0.00  0.00    +0.000 A 
ATOM     31  C   UNL     1       7.835   6.625  18.565  0.00  0.00    +0.000 A 
ATOM     32  C   UNL     1       7.374   5.389  19.010  0.00  0.00    +0.000 A 
ATOM     33  C   UNL     1       6.372   4.716  18.304  0.00  0.00    +0.000 A 
ENDBRANCH  27  28
ENDBRANCH  26  27
ENDBRANCH  24  26
ENDBRANCH  22  24
ENDBRANCH  21  22
ENDBRANCH  20  21
ENDBRANCH   8  20
TORSDOF 8
ENDMDL
MODEL 9
REMARK VINA RESULT:      -7.0      5.565      9.158
REMARK  Name = 
REMARK  8 active torsions:
REMARK  status: ('A' for Active; 'I' for Inactive)
REMARK    1  A    between atoms: C_5  and  N_6
REMARK    2  A    between atoms: N_19  and  C_20
REMARK    3  A    between atoms: C_20  and  S_21
REMARK    4  A    between atoms: S_21  and  C_22
REMARK    5  A    between atoms: C_22  and  N_24
REMARK    6  A    between atoms: N_24  and  C_25
REMARK    7  A    between atoms: C_25  and  C_26
REMARK    8  A    between atoms: C_26  and  C_27
REMARK                            x       y       z     vdW  Elec       q    Type
REMARK                         _______ _______ _______ _____ _____    ______ ____
ROOT
ATOM      1  O   UNL     1       1.211  10.195  18.618  0.00  0.00    +0.000 OA
ATOM      2  C   UNL     1       0.212  10.891  18.806  0.00  0.00    +0.000 C 
ATOM      3  C   UNL     1      -1.131  10.199  18.914  0.00  0.00    +0.000 C 
ATOM      4  C   UNL     1      -2.251  11.032  18.346  0.00  0.00    +0.000 C 
ATOM      5  C   UNL     1      -2.271  12.436  18.922  0.00  0.00    +0.000 C 
ATOM      6  C   UNL     1      -0.900  13.104  18.908  0.00  0.00    +0.000 C 
ATOM      7  O   UNL     1      -0.832  14.340  18.912  0.00  0.00    +0.000 OA
ATOM      8  N   UNL     1       0.237  12.281  18.935  0.00  0.00    +0.000 N 
ENDROOT
BRANCH   5   9
ATOM      9  N   UNL     1      -2.894  12.566  20.233  0.00  0.00    +0.000 N 
ATOM     10  C   UNL     1      -2.295  12.294  21.426  0.00  0.00    +0.000 C 
ATOM     11  O   UNL     1      -1.158  11.941  21.675  0.00  0.00    +0.000 OA
ATOM     12  C   UNL     1      -3.285  12.454  22.464  0.00  0.00    +0.000 A 
ATOM     13  C   UNL     1      -3.165  12.226  23.827  0.00  0.00    +0.000 A 
ATOM     14  C   UNL     1      -4.310  12.429  24.591  0.00  0.00    +0.000 A 
ATOM     15  C   UNL     1      -5.513  12.850  23.986  0.00  0.00    +0.000 A 
ATOM     16  C   UNL     1      -5.603  13.066  22.607  0.00  0.00    +0.000 A 
ATOM     17  C   UNL     1      -4.454  12.852  21.866  0.00  0.00    +0.000 A 
ATOM     18  C   UNL     1      -4.208  12.910  20.424  0.00  0.00    +0.000 C 
ATOM     19  O   UNL     1      -5.061  13.161  19.598  0.00  0.00    +0.000 OA
ENDBRANCH   5   9
BRANCH   8  20
ATOM     20  C   UNL     1       1.505  13.017  18.837  0.00  0.00    +0.000 C 
BRANCH  20  21
ATOM     21  S   UNL     1       2.392  13.550  20.318  0.00  0.00    +0.000 S 
BRANCH  21  22
ATOM     22  C   UNL     1       2.364  15.296  20.284  0.00  0.00    +0.000 C 
ATOM     23  S   UNL     1       3.654  16.335  20.129  0.00  0.00    +0.000 S 
BRANCH  22  24
ATOM     24  N   UNL     1       1.056  15.705  20.463  0.00  0.00    +0.000 N 
ATOM     25  H   UNL     1       0.616  16.057  19.622  0.00  0.00    +0.000 HD
BRANCH  24  26
ATOM     26  C   UNL     1       0.548  16.176  21.750  0.00  0.00    +0.000 C 
BRANCH  26  27
ATOM     27  C   UNL     1       0.123  15.054  22.699  0.00  0.00    +0.000 C 
BRANCH  27  28
ATOM     28  C   UNL     1      -1.207  15.373  23.350  0.00  0.00    +0.000 A 
ATOM     29  C   UNL     1      -2.254  15.913  22.595  0.00  0.00    +0.000 A 
ATOM     30  C   UNL     1      -3.458  16.273  23.202  0.00  0.00    +0.000 A 
ATOM     31  C   UNL     1      -3.631  16.091  24.575  0.00  0.00    +0.000 A 
ATOM     32  C   UNL     1      -2.597  15.553  25.337  0.00  0.00    +0.000 A 
ATOM     33  C   UNL     1      -1.388  15.195  24.729  0.00  0.00    +0.000 A 
ENDBRANCH  27  28
ENDBRANCH  26  27
ENDBRANCH  24  26
ENDBRANCH  22  24
ENDBRANCH  21  22
ENDBRANCH  20  21
ENDBRANCH   8  20
TORSDOF 8
ENDMDL
