MODEL 1
REMARK VINA RESULT:      -7.8      0.000      0.000
REMARK  Name = 
REMARK  6 active torsions:
REMARK  status: ('A' for Active; 'I' for Inactive)
REMARK    1  A    between atoms: C_1  and  C_2
REMARK    2  A    between atoms: C_8  and  N_9
REMARK    3  A    between atoms: N_9  and  N_10
REMARK    4  A    between atoms: C_11  and  C_13
REMARK    5  A    between atoms: C_13  and  C_14
REMARK    6  A    between atoms: C_14  and  C_15
REMARK                            x       y       z     vdW  Elec       q    Type
REMARK                         _______ _______ _______ _____ _____    ______ ____
ROOT
ATOM      1  N   UNL     1       5.393   3.332  19.070  0.00  0.00    +0.000 N 
ATOM      2  C   UNL     1       4.171   2.690  19.111  0.00  0.00    +0.000 C 
ATOM      3  O   UNL     1       3.830   2.057  20.109  0.00  0.00    +0.000 OA
ATOM      4  H   UNL     1       6.048   3.193  19.832  0.00  0.00    +0.000 HD
ENDROOT
BRANCH   1   5
ATOM      5  N   UNL     1       5.852   3.871  17.879  0.00  0.00    +0.000 N 
ATOM      6  H   UNL     1       6.440   3.225  17.351  0.00  0.00    +0.000 HD
BRANCH   5  14
ATOM      7  C   UNL     1       5.194   6.015  15.728  0.00  0.00    +0.000 C 
ATOM      8  C   UNL     1       6.132   6.182  16.894  0.00  0.00    +0.000 A 
ATOM      9  C   UNL     1       6.815   7.417  16.988  0.00  0.00    +0.000 A 
ATOM     10  C   UNL     1       7.748   7.653  17.995  0.00  0.00    +0.000 A 
ATOM     11 CL   UNL     1       8.588   9.153  18.058  0.00  0.00    +0.000 Cl
ATOM     12  C   UNL     1       8.023   6.671  18.931  0.00  0.00    +0.000 A 
ATOM     13  C   UNL     1       7.344   5.454  18.859  0.00  0.00    +0.000 A 
ATOM     14  C   UNL     1       6.368   5.190  17.871  0.00  0.00    +0.000 A 
ENDBRANCH   5  14
ENDBRANCH   1   5
BRANCH   2  15
ATOM     15  C   UNL     1       3.323   2.812  17.860  0.00  0.00    +0.000 C 
BRANCH  15  16
ATOM     16  C   UNL     1       1.932   3.371  18.131  0.00  0.00    +0.000 C 
BRANCH  16  17
ATOM     17  C   UNL     1       2.030   4.729  18.785  0.00  0.00    +0.000 A 
ATOM     18  C   UNL     1       1.570   4.934  20.092  0.00  0.00    +0.000 A 
ATOM     19  C   UNL     1       1.630   6.205  20.670  0.00  0.00    +0.000 A 
ATOM     20  C   UNL     1       2.143   7.280  19.947  0.00  0.00    +0.000 A 
ATOM     21  C   UNL     1       2.594   7.087  18.642  0.00  0.00    +0.000 A 
ATOM     22  C   UNL     1       2.535   5.820  18.063  0.00  0.00    +0.000 A 
ENDBRANCH  16  17
ENDBRANCH  15  16
ENDBRANCH   2  15
TORSDOF 5
ENDMDL
MODEL 2
REMARK VINA RESULT:      -7.8      0.304      1.117
REMARK  Name = 
REMARK  6 active torsions:
REMARK  status: ('A' for Active; 'I' for Inactive)
REMARK    1  A    between atoms: C_1  and  C_2
REMARK    2  A    between atoms: C_8  and  N_9
REMARK    3  A    between atoms: N_9  and  N_10
REMARK    4  A    between atoms: C_11  and  C_13
REMARK    5  A    between atoms: C_13  and  C_14
REMARK    6  A    between atoms: C_14  and  C_15
REMARK                            x       y       z     vdW  Elec       q    Type
REMARK                         _______ _______ _______ _____ _____    ______ ____
ROOT
ATOM      1  N   UNL     1       5.419   3.344  19.423  0.00  0.00    +0.000 N 
ATOM      2  C   UNL     1       4.246   2.625  19.549  0.00  0.00    +0.000 C 
ATOM      3  O   UNL     1       3.956   2.080  20.613  0.00  0.00    +0.000 OA
ATOM      4  H   UNL     1       6.086   3.334  20.187  0.00  0.00    +0.000 HD
ENDROOT
BRANCH   1   5
ATOM      5  N   UNL     1       5.832   3.782  18.176  0.00  0.00    +0.000 N 
ATOM      6  H   UNL     1       6.405   3.096  17.683  0.00  0.00    +0.000 HD
BRANCH   5  14
ATOM      7  C   UNL     1       5.174   5.693  15.815  0.00  0.00    +0.000 C 
ATOM      8  C   UNL     1       6.102   5.984  16.965  0.00  0.00    +0.000 A 
ATOM      9  C   UNL     1       6.775   7.228  16.939  0.00  0.00    +0.000 A 
ATOM     10  C   UNL     1       7.699   7.572  17.922  0.00  0.00    +0.000 A 
ATOM     11 CL   UNL     1       8.527   9.078  17.840  0.00  0.00    +0.000 Cl
ATOM     12  C   UNL     1       7.974   6.692  18.954  0.00  0.00    +0.000 A 
ATOM     13  C   UNL     1       7.305   5.468  19.001  0.00  0.00    +0.000 A 
ATOM     14  C   UNL     1       6.338   5.097  18.038  0.00  0.00    +0.000 A 
ENDBRANCH   5  14
ENDBRANCH   1   5
BRANCH   2  15
ATOM     15  C   UNL     1       3.386   2.551  18.302  0.00  0.00    +0.000 C 
BRANCH  15  16
ATOM     16  C   UNL     1       1.973   3.078  18.518  0.00  0.00    +0.000 C 
BRANCH  16  17
ATOM     17  C   UNL     1       2.013   4.530  18.936  0.00  0.00    +0.000 A 
ATOM     18  C   UNL     1       2.473   5.519  18.058  0.00  0.00    +0.000 A 
ATOM     19  C   UNL     1       2.543   6.852  18.472  0.00  0.00    +0.000 A 
ATOM     20  C   UNL     1       2.161   7.206  19.764  0.00  0.00    +0.000 A 
ATOM     21  C   UNL     1       1.711   6.226  20.648  0.00  0.00    +0.000 A 
ATOM     22  C   UNL     1       1.640   4.894  20.238  0.00  0.00    +0.000 A 
ENDBRANCH  16  17
ENDBRANCH  15  16
ENDBRANCH   2  15
TORSDOF 5
ENDMDL
MODEL 3
REMARK VINA RESULT:      -7.6      2.308      3.595
REMARK  Name = 
REMARK  6 active torsions:
REMARK  status: ('A' for Active; 'I' for Inactive)
REMARK    1  A    between atoms: C_1  and  C_2
REMARK    2  A    between atoms: C_8  and  N_9
REMARK    3  A    between atoms: N_9  and  N_10
REMARK    4  A    between atoms: C_11  and  C_13
REMARK    5  A    between atoms: C_13  and  C_14
REMARK    6  A    between atoms: C_14  and  C_15
REMARK                            x       y       z     vdW  Elec       q    Type
REMARK                         _______ _______ _______ _____ _____    ______ ____
ROOT
ATOM      1  N   UNL     1       2.644   5.056  21.324  0.00  0.00    +0.000 N 
ATOM      2  C   UNL     1       1.836   3.938  21.386  0.00  0.00    +0.000 C 
ATOM      3  O   UNL     1       2.070   3.038  22.191  0.00  0.00    +0.000 OA
ATOM      4  H   UNL     1       3.492   5.081  21.882  0.00  0.00    +0.000 HD
ENDROOT
BRANCH   1   5
ATOM      5  N   UNL     1       2.494   5.963  20.289  0.00  0.00    +0.000 N 
ATOM      6  H   UNL     1       1.584   5.897  19.832  0.00  0.00    +0.000 HD
BRANCH   5  14
ATOM      7  C   UNL     1       2.364   7.789  17.778  0.00  0.00    +0.000 C 
ATOM      8  C   UNL     1       3.521   6.914  18.184  0.00  0.00    +0.000 A 
ATOM      9  C   UNL     1       4.633   6.886  17.311  0.00  0.00    +0.000 A 
ATOM     10  C   UNL     1       5.730   6.066  17.564  0.00  0.00    +0.000 A 
ATOM     11 CL   UNL     1       7.051   6.028  16.462  0.00  0.00    +0.000 Cl
ATOM     12  C   UNL     1       5.750   5.259  18.688  0.00  0.00    +0.000 A 
ATOM     13  C   UNL     1       4.666   5.290  19.566  0.00  0.00    +0.000 A 
ATOM     14  C   UNL     1       3.548   6.132  19.359  0.00  0.00    +0.000 A 
ENDBRANCH   5  14
ENDBRANCH   1   5
BRANCH   2  15
ATOM     15  C   UNL     1       0.685   3.906  20.399  0.00  0.00    +0.000 C 
BRANCH  15  16
ATOM     16  C   UNL     1       0.675   2.655  19.530  0.00  0.00    +0.000 C 
BRANCH  16  17
ATOM     17  C   UNL     1       1.848   2.669  18.577  0.00  0.00    +0.000 A 
ATOM     18  C   UNL     1       2.926   1.793  18.749  0.00  0.00    +0.000 A 
ATOM     19  C   UNL     1       4.022   1.844  17.884  0.00  0.00    +0.000 A 
ATOM     20  C   UNL     1       4.053   2.773  16.847  0.00  0.00    +0.000 A 
ATOM     21  C   UNL     1       2.989   3.657  16.674  0.00  0.00    +0.000 A 
ATOM     22  C   UNL     1       1.893   3.607  17.536  0.00  0.00    +0.000 A 
ENDBRANCH  16  17
ENDBRANCH  15  16
ENDBRANCH   2  15
TORSDOF 5
ENDMDL
MODEL 4
REMARK VINA RESULT:      -7.6      3.551      6.302
REMARK  Name = 
REMARK  6 active torsions:
REMARK  status: ('A' for Active; 'I' for Inactive)
REMARK    1  A    between atoms: C_1  and  C_2
REMARK    2  A    between atoms: C_8  and  N_9
REMARK    3  A    between atoms: N_9  and  N_10
REMARK    4  A    between atoms: C_11  and  C_13
REMARK    5  A    between atoms: C_13  and  C_14
REMARK    6  A    between atoms: C_14  and  C_15
REMARK                            x       y       z     vdW  Elec       q    Type
REMARK                         _______ _______ _______ _____ _____    ______ ____
ROOT
ATOM      1  N   UNL     1       6.743   4.692  19.034  0.00  0.00    +0.000 N 
ATOM      2  C   UNL     1       7.254   4.652  17.752  0.00  0.00    +0.000 C 
ATOM      3  O   UNL     1       8.377   4.198  17.538  0.00  0.00    +0.000 OA
ATOM      4  H   UNL     1       7.344   4.434  19.811  0.00  0.00    +0.000 HD
ENDROOT
BRANCH   1   5
ATOM      5  N   UNL     1       5.571   5.382  19.292  0.00  0.00    +0.000 N 
ATOM      6  H   UNL     1       5.586   5.871  20.188  0.00  0.00    +0.000 HD
BRANCH   5  14
ATOM      7  C   UNL     1       3.057   6.796  18.133  0.00  0.00    +0.000 C 
ATOM      8  C   UNL     1       3.149   5.357  18.568  0.00  0.00    +0.000 A 
ATOM      9  C   UNL     1       1.963   4.592  18.486  0.00  0.00    +0.000 A 
ATOM     10  C   UNL     1       1.924   3.268  18.917  0.00  0.00    +0.000 A 
ATOM     11 CL   UNL     1       0.454   2.377  18.836  0.00  0.00    +0.000 Cl
ATOM     12  C   UNL     1       3.060   2.673  19.436  0.00  0.00    +0.000 A 
ATOM     13  C   UNL     1       4.242   3.412  19.507  0.00  0.00    +0.000 A 
ATOM     14  C   UNL     1       4.328   4.748  19.051  0.00  0.00    +0.000 A 
ENDBRANCH   5  14
ENDBRANCH   1   5
BRANCH   2  15
ATOM     15  C   UNL     1       6.352   5.214  16.669  0.00  0.00    +0.000 C 
BRANCH  15  16
ATOM     16  C   UNL     1       5.742   4.138  15.781  0.00  0.00    +0.000 C 
BRANCH  16  17
ATOM     17  C   UNL     1       6.304   4.232  14.381  0.00  0.00    +0.000 A 
ATOM     18  C   UNL     1       7.387   5.073  14.095  0.00  0.00    +0.000 A 
ATOM     19  C   UNL     1       7.871   5.181  12.789  0.00  0.00    +0.000 A 
ATOM     20  C   UNL     1       7.275   4.456  11.759  0.00  0.00    +0.000 A 
ATOM     21  C   UNL     1       6.190   3.625  12.032  0.00  0.00    +0.000 A 
ATOM     22  C   UNL     1       5.704   3.515  13.336  0.00  0.00    +0.000 A 
ENDBRANCH  16  17
ENDBRANCH  15  16
ENDBRANCH   2  15
TORSDOF 5
ENDMDL
MODEL 5
REMARK VINA RESULT:      -7.6      2.306      3.689
REMARK  Name = 
REMARK  6 active torsions:
REMARK  status: ('A' for Active; 'I' for Inactive)
REMARK    1  A    between atoms: C_1  and  C_2
REMARK    2  A    between atoms: C_8  and  N_9
REMARK    3  A    between atoms: N_9  and  N_10
REMARK    4  A    between atoms: C_11  and  C_13
REMARK    5  A    between atoms: C_13  and  C_14
REMARK    6  A    between atoms: C_14  and  C_15
REMARK                            x       y       z     vdW  Elec       q    Type
REMARK                         _______ _______ _______ _____ _____    ______ ____
ROOT
ATOM      1  N   UNL     1       2.630   4.969  21.339  0.00  0.00    +0.000 N 
ATOM      2  C   UNL     1       1.815   3.856  21.385  0.00  0.00    +0.000 C 
ATOM      3  O   UNL     1       2.051   2.937  22.168  0.00  0.00    +0.000 OA
ATOM      4  H   UNL     1       3.483   4.977  21.889  0.00  0.00    +0.000 HD
ENDROOT
BRANCH   1   5
ATOM      5  N   UNL     1       2.476   5.900  20.325  0.00  0.00    +0.000 N 
ATOM      6  H   UNL     1       1.565   5.843  19.869  0.00  0.00    +0.000 HD
BRANCH   5  14
ATOM      7  C   UNL     1       2.322   7.752  17.834  0.00  0.00    +0.000 C 
ATOM      8  C   UNL     1       3.489   6.887  18.231  0.00  0.00    +0.000 A 
ATOM      9  C   UNL     1       4.601   6.882  17.357  0.00  0.00    +0.000 A 
ATOM     10  C   UNL     1       5.708   6.072  17.600  0.00  0.00    +0.000 A 
ATOM     11 CL   UNL     1       7.029   6.063  16.497  0.00  0.00    +0.000 Cl
ATOM     12  C   UNL     1       5.739   5.253  18.715  0.00  0.00    +0.000 A 
ATOM     13  C   UNL     1       4.655   5.261  19.594  0.00  0.00    +0.000 A 
ATOM     14  C   UNL     1       3.527   6.092  19.397  0.00  0.00    +0.000 A 
ENDBRANCH   5  14
ENDBRANCH   1   5
BRANCH   2  15
ATOM     15  C   UNL     1       0.654   3.852  20.409  0.00  0.00    +0.000 C 
BRANCH  15  16
ATOM     16  C   UNL     1       0.669   2.657  19.465  0.00  0.00    +0.000 C 
BRANCH  16  17
ATOM     17  C   UNL     1       1.881   2.714  18.565  0.00  0.00    +0.000 A 
ATOM     18  C   UNL     1       1.939   3.612  17.491  0.00  0.00    +0.000 A 
ATOM     19  C   UNL     1       3.049   3.626  16.643  0.00  0.00    +0.000 A 
ATOM     20  C   UNL     1       4.104   2.742  16.855  0.00  0.00    +0.000 A 
ATOM     21  C   UNL     1       4.051   1.838  17.914  0.00  0.00    +0.000 A 
ATOM     22  C   UNL     1       2.944   1.821  18.763  0.00  0.00    +0.000 A 
ENDBRANCH  16  17
ENDBRANCH  15  16
ENDBRANCH   2  15
TORSDOF 5
ENDMDL
MODEL 6
REMARK VINA RESULT:      -7.3      0.986      1.541
REMARK  Name = 
REMARK  6 active torsions:
REMARK  status: ('A' for Active; 'I' for Inactive)
REMARK    1  A    between atoms: C_1  and  C_2
REMARK    2  A    between atoms: C_8  and  N_9
REMARK    3  A    between atoms: N_9  and  N_10
REMARK    4  A    between atoms: C_11  and  C_13
REMARK    5  A    between atoms: C_13  and  C_14
REMARK    6  A    between atoms: C_14  and  C_15
REMARK                            x       y       z     vdW  Elec       q    Type
REMARK                         _______ _______ _______ _____ _____    ______ ____
ROOT
ATOM      1  N   UNL     1       4.634   2.529  18.632  0.00  0.00    +0.000 N 
ATOM      2  C   UNL     1       3.382   2.004  18.884  0.00  0.00    +0.000 C 
ATOM      3  O   UNL     1       3.169   1.357  19.908  0.00  0.00    +0.000 OA
ATOM      4  H   UNL     1       5.402   2.291  19.252  0.00  0.00    +0.000 HD
ENDROOT
BRANCH   1   5
ATOM      5  N   UNL     1       4.917   3.081  17.393  0.00  0.00    +0.000 N 
ATOM      6  H   UNL     1       5.330   2.409  16.744  0.00  0.00    +0.000 HD
BRANCH   5  14
ATOM      7  C   UNL     1       5.551   4.609  14.763  0.00  0.00    +0.000 C 
ATOM      8  C   UNL     1       5.898   5.056  16.158  0.00  0.00    +0.000 A 
ATOM      9  C   UNL     1       6.625   6.263  16.277  0.00  0.00    +0.000 A 
ATOM     10  C   UNL     1       7.046   6.736  17.517  0.00  0.00    +0.000 A 
ATOM     11 CL   UNL     1       7.960   8.190  17.621  0.00  0.00    +0.000 Cl
ATOM     12  C   UNL     1       6.753   6.024  18.667  0.00  0.00    +0.000 A 
ATOM     13  C   UNL     1       6.022   4.840  18.566  0.00  0.00    +0.000 A 
ATOM     14  C   UNL     1       5.552   4.345  17.328  0.00  0.00    +0.000 A 
ENDBRANCH   5  14
ENDBRANCH   1   5
BRANCH   2  15
ATOM     15  C   UNL     1       2.334   2.267  17.820  0.00  0.00    +0.000 C 
BRANCH  15  16
ATOM     16  C   UNL     1       1.137   3.053  18.340  0.00  0.00    +0.000 C 
BRANCH  16  17
ATOM     17  C   UNL     1       1.570   4.425  18.799  0.00  0.00    +0.000 A 
ATOM     18  C   UNL     1       2.166   5.328  17.909  0.00  0.00    +0.000 A 
ATOM     19  C   UNL     1       2.597   6.579  18.356  0.00  0.00    +0.000 A 
ATOM     20  C   UNL     1       2.445   6.936  19.694  0.00  0.00    +0.000 A 
ATOM     21  C   UNL     1       1.863   6.040  20.589  0.00  0.00    +0.000 A 
ATOM     22  C   UNL     1       1.430   4.791  20.146  0.00  0.00    +0.000 A 
ENDBRANCH  16  17
ENDBRANCH  15  16
ENDBRANCH   2  15
TORSDOF 5
ENDMDL
MODEL 7
REMARK VINA RESULT:      -7.0      3.009      4.910
REMARK  Name = 
REMARK  6 active torsions:
REMARK  status: ('A' for Active; 'I' for Inactive)
REMARK    1  A    between atoms: C_1  and  C_2
REMARK    2  A    between atoms: C_8  and  N_9
REMARK    3  A    between atoms: N_9  and  N_10
REMARK    4  A    between atoms: C_11  and  C_13
REMARK    5  A    between atoms: C_13  and  C_14
REMARK    6  A    between atoms: C_14  and  C_15
REMARK                            x       y       z     vdW  Elec       q    Type
REMARK                         _______ _______ _______ _____ _____    ______ ____
ROOT
ATOM      1  N   UNL     1       4.385   6.006  18.200  0.00  0.00    +0.000 N 
ATOM      2  C   UNL     1       4.935   4.835  17.718  0.00  0.00    +0.000 C 
ATOM      3  O   UNL     1       6.142   4.621  17.820  0.00  0.00    +0.000 OA
ATOM      4  H   UNL     1       5.002   6.732  18.551  0.00  0.00    +0.000 HD
ENDROOT
BRANCH   1   5
ATOM      5  N   UNL     1       3.070   6.327  17.905  0.00  0.00    +0.000 N 
ATOM      6  H   UNL     1       2.865   6.282  16.907  0.00  0.00    +0.000 HD
BRANCH   5  14
ATOM      7  C   UNL     1       1.880   6.358  20.776  0.00  0.00    +0.000 C 
ATOM      8  C   UNL     1       1.888   7.507  19.802  0.00  0.00    +0.000 A 
ATOM      9  C   UNL     1       1.249   8.698  20.219  0.00  0.00    +0.000 A 
ATOM     10  C   UNL     1       1.149   9.800  19.374  0.00  0.00    +0.000 A 
ATOM     11 CL   UNL     1       0.333  11.220  19.901  0.00  0.00    +0.000 Cl
ATOM     12  C   UNL     1       1.683   9.747  18.099  0.00  0.00    +0.000 A 
ATOM     13  C   UNL     1       2.332   8.584  17.681  0.00  0.00    +0.000 A 
ATOM     14  C   UNL     1       2.479   7.457  18.521  0.00  0.00    +0.000 A 
ENDBRANCH   5  14
ENDBRANCH   1   5
BRANCH   2  15
ATOM     15  C   UNL     1       3.963   3.877  17.057  0.00  0.00    +0.000 C 
BRANCH  15  16
ATOM     16  C   UNL     1       3.866   2.535  17.771  0.00  0.00    +0.000 C 
BRANCH  16  17
ATOM     17  C   UNL     1       2.934   2.638  18.956  0.00  0.00    +0.000 A 
ATOM     18  C   UNL     1       1.563   2.861  18.777  0.00  0.00    +0.000 A 
ATOM     19  C   UNL     1       0.720   2.994  19.883  0.00  0.00    +0.000 A 
ATOM     20  C   UNL     1       1.238   2.912  21.174  0.00  0.00    +0.000 A 
ATOM     21  C   UNL     1       2.603   2.701  21.362  0.00  0.00    +0.000 A 
ATOM     22  C   UNL     1       3.448   2.567  20.259  0.00  0.00    +0.000 A 
ENDBRANCH  16  17
ENDBRANCH  15  16
ENDBRANCH   2  15
TORSDOF 5
ENDMDL
MODEL 8
REMARK VINA RESULT:      -7.0      2.473      4.056
REMARK  Name = 
REMARK  6 active torsions:
REMARK  status: ('A' for Active; 'I' for Inactive)
REMARK    1  A    between atoms: C_1  and  C_2
REMARK    2  A    between atoms: C_8  and  N_9
REMARK    3  A    between atoms: N_9  and  N_10
REMARK    4  A    between atoms: C_11  and  C_13
REMARK    5  A    between atoms: C_13  and  C_14
REMARK    6  A    between atoms: C_14  and  C_15
REMARK                            x       y       z     vdW  Elec       q    Type
REMARK                         _______ _______ _______ _____ _____    ______ ____
ROOT
ATOM      1  N   UNL     1       3.309   6.733  19.519  0.00  0.00    +0.000 N 
ATOM      2  C   UNL     1       2.164   6.605  20.280  0.00  0.00    +0.000 C 
ATOM      3  O   UNL     1       1.319   7.499  20.296  0.00  0.00    +0.000 OA
ATOM      4  H   UNL     1       3.494   7.615  19.052  0.00  0.00    +0.000 HD
ENDROOT
BRANCH   1   5
ATOM      5  N   UNL     1       4.340   5.819  19.660  0.00  0.00    +0.000 N 
ATOM      6  H   UNL     1       4.945   6.022  20.457  0.00  0.00    +0.000 HD
BRANCH   5  14
ATOM      7  C   UNL     1       7.438   5.600  19.539  0.00  0.00    +0.000 C 
ATOM      8  C   UNL     1       6.482   5.354  18.401  0.00  0.00    +0.000 A 
ATOM      9  C   UNL     1       7.056   5.042  17.147  0.00  0.00    +0.000 A 
ATOM     10  C   UNL     1       6.265   4.853  16.017  0.00  0.00    +0.000 A 
ATOM     11 CL   UNL     1       6.997   4.510  14.498  0.00  0.00    +0.000 Cl
ATOM     12  C   UNL     1       4.888   4.967  16.106  0.00  0.00    +0.000 A 
ATOM     13  C   UNL     1       4.309   5.259  17.341  0.00  0.00    +0.000 A 
ATOM     14  C   UNL     1       5.077   5.426  18.516  0.00  0.00    +0.000 A 
ENDBRANCH   5  14
ENDBRANCH   1   5
BRANCH   2  15
ATOM     15  C   UNL     1       2.047   5.321  21.079  0.00  0.00    +0.000 C 
BRANCH  15  16
ATOM     16  C   UNL     1       1.156   4.280  20.414  0.00  0.00    +0.000 C 
BRANCH  16  17
ATOM     17  C   UNL     1       1.992   3.306  19.617  0.00  0.00    +0.000 A 
ATOM     18  C   UNL     1       3.149   2.736  20.162  0.00  0.00    +0.000 A 
ATOM     19  C   UNL     1       3.934   1.868  19.399  0.00  0.00    +0.000 A 
ATOM     20  C   UNL     1       3.576   1.569  18.087  0.00  0.00    +0.000 A 
ATOM     21  C   UNL     1       2.432   2.140  17.532  0.00  0.00    +0.000 A 
ATOM     22  C   UNL     1       1.645   3.007  18.291  0.00  0.00    +0.000 A 
ENDBRANCH  16  17
ENDBRANCH  15  16
ENDBRANCH   2  15
TORSDOF 5
ENDMDL
MODEL 9
REMARK VINA RESULT:      -6.9      2.458      4.117
REMARK  Name = 
REMARK  6 active torsions:
REMARK  status: ('A' for Active; 'I' for Inactive)
REMARK    1  A    between atoms: C_1  and  C_2
REMARK    2  A    between atoms: C_8  and  N_9
REMARK    3  A    between atoms: N_9  and  N_10
REMARK    4  A    between atoms: C_11  and  C_13
REMARK    5  A    between atoms: C_13  and  C_14
REMARK    6  A    between atoms: C_14  and  C_15
REMARK                            x       y       z     vdW  Elec       q    Type
REMARK                         _______ _______ _______ _____ _____    ______ ____
ROOT
ATOM      1  N   UNL     1       3.251   6.644  19.557  0.00  0.00    +0.000 N 
ATOM      2  C   UNL     1       2.122   6.506  20.340  0.00  0.00    +0.000 C 
ATOM      3  O   UNL     1       1.267   7.390  20.369  0.00  0.00    +0.000 OA
ATOM      4  H   UNL     1       3.416   7.526  19.083  0.00  0.00    +0.000 HD
ENDROOT
BRANCH   1   5
ATOM      5  N   UNL     1       4.296   5.744  19.682  0.00  0.00    +0.000 N 
ATOM      6  H   UNL     1       4.891   5.936  20.489  0.00  0.00    +0.000 HD
BRANCH   5  14
ATOM      7  C   UNL     1       7.399   5.609  19.571  0.00  0.00    +0.000 C 
ATOM      8  C   UNL     1       6.454   5.359  18.425  0.00  0.00    +0.000 A 
ATOM      9  C   UNL     1       7.041   5.086  17.167  0.00  0.00    +0.000 A 
ATOM     10  C   UNL     1       6.259   4.898  16.030  0.00  0.00    +0.000 A 
ATOM     11 CL   UNL     1       7.006   4.604  14.509  0.00  0.00    +0.000 Cl
ATOM     12  C   UNL     1       4.880   4.975  16.115  0.00  0.00    +0.000 A 
ATOM     13  C   UNL     1       4.288   5.227  17.353  0.00  0.00    +0.000 A 
ATOM     14  C   UNL     1       5.047   5.393  18.535  0.00  0.00    +0.000 A 
ENDBRANCH   5  14
ENDBRANCH   1   5
BRANCH   2  15
ATOM     15  C   UNL     1       2.037   5.225  21.148  0.00  0.00    +0.000 C 
BRANCH  15  16
ATOM     16  C   UNL     1       1.178   4.156  20.486  0.00  0.00    +0.000 C 
BRANCH  16  17
ATOM     17  C   UNL     1       2.031   3.261  19.618  0.00  0.00    +0.000 A 
ATOM     18  C   UNL     1       1.664   2.976  18.296  0.00  0.00    +0.000 A 
ATOM     19  C   UNL     1       2.441   2.115  17.518  0.00  0.00    +0.000 A 
ATOM     20  C   UNL     1       3.585   1.526  18.053  0.00  0.00    +0.000 A 
ATOM     21  C   UNL     1       3.952   1.795  19.371  0.00  0.00    +0.000 A 
ATOM     22  C   UNL     1       3.179   2.655  20.150  0.00  0.00    +0.000 A 
ENDBRANCH  16  17
ENDBRANCH  15  16
ENDBRANCH   2  15
TORSDOF 5
ENDMDL
