MODEL 1
REMARK VINA RESULT:      -7.3      0.000      0.000
REMARK  Name = 
REMARK  8 active torsions:
REMARK  status: ('A' for Active; 'I' for Inactive)
REMARK    1  A    between atoms: C_2  and  C_3
REMARK    2  A    between atoms: C_3  and  O_4
REMARK    3  A    between atoms: O_4  and  C_5
REMARK    4  A    between atoms: C_5  and  C_7
REMARK    5  A    between atoms: C_7  and  O_8
REMARK    6  A    between atoms: O_8  and  C_9
REMARK    7  A    between atoms: N_16  and  C_17
REMARK    8  A    between atoms: C_17  and  C_18
REMARK                            x       y       z     vdW  Elec       q    Type
REMARK                         _______ _______ _______ _____ _____    ______ ____
ROOT
ATOM      1  O   UNL     1       2.619   2.941  21.979  0.00  0.00    +0.000 OA
ATOM      2  C   UNL     1       2.925   3.213  20.822  0.00  0.00    +0.000 C 
ATOM      3  N   UNL     1       2.718   4.457  20.273  0.00  0.00    +0.000 N 
ATOM      4  H   UNL     1       3.067   4.668  19.346  0.00  0.00    +0.000 HD
ENDROOT
BRANCH   2   5
ATOM      5  C   UNL     1       3.594   2.195  19.887  0.00  0.00    +0.000 C 
BRANCH   5   6
ATOM      6  O   UNL     1       2.565   1.516  19.163  0.00  0.00    +0.000 OA
BRANCH   6   7
ATOM      7  C   UNL     1       2.009   2.295  18.194  0.00  0.00    +0.000 C 
ATOM      8  O   UNL     1       0.889   2.786  18.264  0.00  0.00    +0.000 OA
BRANCH   7   9
ATOM      9  C   UNL     1       3.022   2.603  17.109  0.00  0.00    +0.000 C 
BRANCH   9  10
ATOM     10  O   UNL     1       3.351   3.977  17.055  0.00  0.00    +0.000 OA
BRANCH  10  11
ATOM     11  C   UNL     1       4.657   4.265  16.756  0.00  0.00    +0.000 A 
ATOM     12  C   UNL     1       5.273   4.097  15.510  0.00  0.00    +0.000 A 
ATOM     13  C   UNL     1       6.617   4.442  15.335  0.00  0.00    +0.000 A 
ATOM     14  C   UNL     1       7.352   4.951  16.403  0.00  0.00    +0.000 A 
ATOM     15  C   UNL     1       6.739   5.113  17.644  0.00  0.00    +0.000 A 
ATOM     16 BR   UNL     1       7.732   5.806  19.096  0.00  0.00    +0.000 Br
ATOM     17  C   UNL     1       5.402   4.769  17.823  0.00  0.00    +0.000 A 
ENDBRANCH  10  11
ENDBRANCH   9  10
ENDBRANCH   7   9
ENDBRANCH   6   7
ENDBRANCH   5   6
ENDBRANCH   2   5
BRANCH   3  18
ATOM     18  C   UNL     1       2.100   5.532  21.020  0.00  0.00    +0.000 C 
BRANCH  18  19
ATOM     19  C   UNL     1       1.987   6.785  20.188  0.00  0.00    +0.000 A 
ATOM     20  C   UNL     1       2.483   6.808  18.864  0.00  0.00    +0.000 A 
ATOM     21  C   UNL     1       2.383   7.960  18.075  0.00  0.00    +0.000 A 
ATOM     22  C   UNL     1       1.783   9.068  18.631  0.00  0.00    +0.000 A 
ATOM     23  C   UNL     1       1.293   9.055  19.915  0.00  0.00    +0.000 A 
ATOM     24  C   UNL     1       1.375   7.934  20.717  0.00  0.00    +0.000 A 
ATOM     25  O   UNL     1       0.743  10.247  20.273  0.00  0.00    +0.000 OA
ATOM     26  C   UNL     1       0.962  11.017  19.072  0.00  0.00    +0.000 C 
ATOM     27  O   UNL     1       1.600  10.268  18.018  0.00  0.00    +0.000 OA
ENDBRANCH  18  19
ENDBRANCH   3  18
TORSDOF 8
ENDMDL
MODEL 2
REMARK VINA RESULT:      -7.2      6.189      7.685
REMARK  Name = 
REMARK  8 active torsions:
REMARK  status: ('A' for Active; 'I' for Inactive)
REMARK    1  A    between atoms: C_2  and  C_3
REMARK    2  A    between atoms: C_3  and  O_4
REMARK    3  A    between atoms: O_4  and  C_5
REMARK    4  A    between atoms: C_5  and  C_7
REMARK    5  A    between atoms: C_7  and  O_8
REMARK    6  A    between atoms: O_8  and  C_9
REMARK    7  A    between atoms: N_16  and  C_17
REMARK    8  A    between atoms: C_17  and  C_18
REMARK                            x       y       z     vdW  Elec       q    Type
REMARK                         _______ _______ _______ _____ _____    ______ ____
ROOT
ATOM      1  O   UNL     1       8.471   7.195  18.887  0.00  0.00    +0.000 OA
ATOM      2  C   UNL     1       7.976   7.977  18.080  0.00  0.00    +0.000 C 
ATOM      3  N   UNL     1       8.279   9.319  18.066  0.00  0.00    +0.000 N 
ATOM      4  H   UNL     1       7.919   9.913  17.329  0.00  0.00    +0.000 HD
ENDROOT
BRANCH   2   5
ATOM      5  C   UNL     1       6.991   7.523  16.994  0.00  0.00    +0.000 C 
BRANCH   5   6
ATOM      6  O   UNL     1       7.582   6.429  16.289  0.00  0.00    +0.000 OA
BRANCH   6   7
ATOM      7  C   UNL     1       6.656   5.531  15.851  0.00  0.00    +0.000 C 
ATOM      8  O   UNL     1       5.954   5.694  14.859  0.00  0.00    +0.000 OA
BRANCH   7   9
ATOM      9  C   UNL     1       6.734   4.248  16.654  0.00  0.00    +0.000 C 
BRANCH   9  10
ATOM     10  O   UNL     1       6.143   4.376  17.932  0.00  0.00    +0.000 OA
BRANCH  10  11
ATOM     11  C   UNL     1       4.775   4.452  17.950  0.00  0.00    +0.000 A 
ATOM     12  C   UNL     1       3.892   3.566  17.321  0.00  0.00    +0.000 A 
ATOM     13  C   UNL     1       2.511   3.752  17.427  0.00  0.00    +0.000 A 
ATOM     14  C   UNL     1       2.004   4.824  18.158  0.00  0.00    +0.000 A 
ATOM     15  C   UNL     1       2.884   5.709  18.779  0.00  0.00    +0.000 A 
ATOM     16 BR   UNL     1       2.201   7.165  19.773  0.00  0.00    +0.000 Br
ATOM     17  C   UNL     1       4.261   5.529  18.674  0.00  0.00    +0.000 A 
ENDBRANCH  10  11
ENDBRANCH   9  10
ENDBRANCH   7   9
ENDBRANCH   6   7
ENDBRANCH   5   6
ENDBRANCH   2   5
BRANCH   3  18
ATOM     18  C   UNL     1       9.191   9.910  19.021  0.00  0.00    +0.000 C 
BRANCH  18  19
ATOM     19  C   UNL     1       9.604  11.298  18.601  0.00  0.00    +0.000 A 
ATOM     20  C   UNL     1       8.751  12.400  18.846  0.00  0.00    +0.000 A 
ATOM     21  C   UNL     1       9.119  13.696  18.468  0.00  0.00    +0.000 A 
ATOM     22  C   UNL     1      10.340  13.862  17.853  0.00  0.00    +0.000 A 
ATOM     23  C   UNL     1      11.179  12.800  17.614  0.00  0.00    +0.000 A 
ATOM     24  C   UNL     1      10.845  11.510  17.977  0.00  0.00    +0.000 A 
ATOM     25  O   UNL     1      12.331  13.176  16.997  0.00  0.00    +0.000 OA
ATOM     26  C   UNL     1      12.111  14.596  16.856  0.00  0.00    +0.000 C 
ATOM     27  O   UNL     1      10.861  15.041  17.418  0.00  0.00    +0.000 OA
ENDBRANCH  18  19
ENDBRANCH   3  18
TORSDOF 8
ENDMDL
MODEL 3
REMARK VINA RESULT:      -7.2      2.797      5.473
REMARK  Name = 
REMARK  8 active torsions:
REMARK  status: ('A' for Active; 'I' for Inactive)
REMARK    1  A    between atoms: C_2  and  C_3
REMARK    2  A    between atoms: C_3  and  O_4
REMARK    3  A    between atoms: O_4  and  C_5
REMARK    4  A    between atoms: C_5  and  C_7
REMARK    5  A    between atoms: C_7  and  O_8
REMARK    6  A    between atoms: O_8  and  C_9
REMARK    7  A    between atoms: N_16  and  C_17
REMARK    8  A    between atoms: C_17  and  C_18
REMARK                            x       y       z     vdW  Elec       q    Type
REMARK                         _______ _______ _______ _____ _____    ______ ____
ROOT
ATOM      1  O   UNL     1       2.352   2.543  16.898  0.00  0.00    +0.000 OA
ATOM      2  C   UNL     1       2.982   2.537  17.952  0.00  0.00    +0.000 C 
ATOM      3  N   UNL     1       4.205   3.153  18.088  0.00  0.00    +0.000 N 
ATOM      4  H   UNL     1       4.650   3.204  18.996  0.00  0.00    +0.000 HD
ENDROOT
BRANCH   2   5
ATOM      5  C   UNL     1       2.450   1.865  19.225  0.00  0.00    +0.000 C 
BRANCH   5   6
ATOM      6  O   UNL     1       3.250   2.304  20.326  0.00  0.00    +0.000 OA
BRANCH   6   7
ATOM      7  C   UNL     1       2.507   2.882  21.311  0.00  0.00    +0.000 C 
ATOM      8  O   UNL     1       1.946   2.260  22.204  0.00  0.00    +0.000 OA
BRANCH   7   9
ATOM      9  C   UNL     1       2.613   4.392  21.243  0.00  0.00    +0.000 C 
BRANCH   9  10
ATOM     10  O   UNL     1       1.504   4.981  20.592  0.00  0.00    +0.000 OA
BRANCH  10  11
ATOM     11  C   UNL     1       1.758   6.152  19.927  0.00  0.00    +0.000 A 
ATOM     12  C   UNL     1       2.421   6.274  18.700  0.00  0.00    +0.000 A 
ATOM     13  C   UNL     1       2.606   7.534  18.121  0.00  0.00    +0.000 A 
ATOM     14  C   UNL     1       2.132   8.675  18.764  0.00  0.00    +0.000 A 
ATOM     15  C   UNL     1       1.476   8.551  19.987  0.00  0.00    +0.000 A 
ATOM     16 BR   UNL     1       0.830  10.097  20.864  0.00  0.00    +0.000 Br
ATOM     17  C   UNL     1       1.292   7.300  20.570  0.00  0.00    +0.000 A 
ENDBRANCH  10  11
ENDBRANCH   9  10
ENDBRANCH   7   9
ENDBRANCH   6   7
ENDBRANCH   5   6
ENDBRANCH   2   5
BRANCH   3  18
ATOM     18  C   UNL     1       4.848   3.835  16.985  0.00  0.00    +0.000 C 
BRANCH  18  19
ATOM     19  C   UNL     1       5.839   4.860  17.475  0.00  0.00    +0.000 A 
ATOM     20  C   UNL     1       6.734   4.543  18.523  0.00  0.00    +0.000 A 
ATOM     21  C   UNL     1       7.664   5.479  18.987  0.00  0.00    +0.000 A 
ATOM     22  C   UNL     1       7.680   6.719  18.387  0.00  0.00    +0.000 A 
ATOM     23  C   UNL     1       6.818   7.037  17.365  0.00  0.00    +0.000 A 
ATOM     24  C   UNL     1       5.892   6.134  16.883  0.00  0.00    +0.000 A 
ATOM     25  O   UNL     1       6.995   8.309  16.914  0.00  0.00    +0.000 OA
ATOM     26  C   UNL     1       8.054   8.760  17.785  0.00  0.00    +0.000 C 
ATOM     27  O   UNL     1       8.509   7.749  18.706  0.00  0.00    +0.000 OA
ENDBRANCH  18  19
ENDBRANCH   3  18
TORSDOF 8
ENDMDL
MODEL 4
REMARK VINA RESULT:      -7.0      1.683      2.725
REMARK  Name = 
REMARK  8 active torsions:
REMARK  status: ('A' for Active; 'I' for Inactive)
REMARK    1  A    between atoms: C_2  and  C_3
REMARK    2  A    between atoms: C_3  and  O_4
REMARK    3  A    between atoms: O_4  and  C_5
REMARK    4  A    between atoms: C_5  and  C_7
REMARK    5  A    between atoms: C_7  and  O_8
REMARK    6  A    between atoms: O_8  and  C_9
REMARK    7  A    between atoms: N_16  and  C_17
REMARK    8  A    between atoms: C_17  and  C_18
REMARK                            x       y       z     vdW  Elec       q    Type
REMARK                         _______ _______ _______ _____ _____    ______ ____
ROOT
ATOM      1  O   UNL     1       1.357   5.130  17.446  0.00  0.00    +0.000 OA
ATOM      2  C   UNL     1       1.756   4.898  18.584  0.00  0.00    +0.000 C 
ATOM      3  N   UNL     1       2.428   5.832  19.338  0.00  0.00    +0.000 N 
ATOM      4  H   UNL     1       2.661   5.633  20.303  0.00  0.00    +0.000 HD
ENDROOT
BRANCH   2   5
ATOM      5  C   UNL     1       1.517   3.552  19.281  0.00  0.00    +0.000 C 
BRANCH   5   6
ATOM      6  O   UNL     1       1.965   3.668  20.634  0.00  0.00    +0.000 OA
BRANCH   6   7
ATOM      7  C   UNL     1       2.947   2.773  20.934  0.00  0.00    +0.000 C 
ATOM      8  O   UNL     1       3.067   2.222  22.022  0.00  0.00    +0.000 OA
BRANCH   7   9
ATOM      9  C   UNL     1       3.757   2.433  19.699  0.00  0.00    +0.000 C 
BRANCH   9  10
ATOM     10  O   UNL     1       4.981   3.138  19.648  0.00  0.00    +0.000 OA
BRANCH  10  11
ATOM     11  C   UNL     1       5.198   3.871  18.509  0.00  0.00    +0.000 A 
ATOM     12  C   UNL     1       4.621   3.634  17.256  0.00  0.00    +0.000 A 
ATOM     13  C   UNL     1       4.920   4.468  16.174  0.00  0.00    +0.000 A 
ATOM     14  C   UNL     1       5.797   5.538  16.337  0.00  0.00    +0.000 A 
ATOM     15  C   UNL     1       6.374   5.769  17.585  0.00  0.00    +0.000 A 
ATOM     16 BR   UNL     1       7.563   7.221  17.812  0.00  0.00    +0.000 Br
ATOM     17  C   UNL     1       6.081   4.940  18.665  0.00  0.00    +0.000 A 
ENDBRANCH  10  11
ENDBRANCH   9  10
ENDBRANCH   7   9
ENDBRANCH   6   7
ENDBRANCH   5   6
ENDBRANCH   2   5
BRANCH   3  18
ATOM     18  C   UNL     1       2.734   7.153  18.830  0.00  0.00    +0.000 C 
BRANCH  18  19
ATOM     19  C   UNL     1       1.858   8.202  19.466  0.00  0.00    +0.000 A 
ATOM     20  C   UNL     1       1.411   9.311  18.710  0.00  0.00    +0.000 A 
ATOM     21  C   UNL     1       0.593  10.293  19.282  0.00  0.00    +0.000 A 
ATOM     22  C   UNL     1       0.236  10.140  20.603  0.00  0.00    +0.000 A 
ATOM     23  C   UNL     1       0.660   9.064  21.346  0.00  0.00    +0.000 A 
ATOM     24  C   UNL     1       1.465   8.079  20.810  0.00  0.00    +0.000 A 
ATOM     25  O   UNL     1       0.200   9.103  22.626  0.00  0.00    +0.000 OA
ATOM     26  C   UNL     1      -0.547  10.338  22.608  0.00  0.00    +0.000 C 
ATOM     27  O   UNL     1      -0.547  10.989  21.321  0.00  0.00    +0.000 OA
ENDBRANCH  18  19
ENDBRANCH   3  18
TORSDOF 8
ENDMDL
MODEL 5
REMARK VINA RESULT:      -6.9      5.795      7.313
REMARK  Name = 
REMARK  8 active torsions:
REMARK  status: ('A' for Active; 'I' for Inactive)
REMARK    1  A    between atoms: C_2  and  C_3
REMARK    2  A    between atoms: C_3  and  O_4
REMARK    3  A    between atoms: O_4  and  C_5
REMARK    4  A    between atoms: C_5  and  C_7
REMARK    5  A    between atoms: C_7  and  O_8
REMARK    6  A    between atoms: O_8  and  C_9
REMARK    7  A    between atoms: N_16  and  C_17
REMARK    8  A    between atoms: C_17  and  C_18
REMARK                            x       y       z     vdW  Elec       q    Type
REMARK                         _______ _______ _______ _____ _____    ______ ____
ROOT
ATOM      1  O   UNL     1       6.423   7.609  17.423  0.00  0.00    +0.000 OA
ATOM      2  C   UNL     1       7.462   7.413  18.047  0.00  0.00    +0.000 C 
ATOM      3  N   UNL     1       8.426   8.381  18.204  0.00  0.00    +0.000 N 
ATOM      4  H   UNL     1       9.226   8.209  18.801  0.00  0.00    +0.000 HD
ENDROOT
BRANCH   2   5
ATOM      5  C   UNL     1       7.769   6.075  18.734  0.00  0.00    +0.000 C 
BRANCH   5   6
ATOM      6  O   UNL     1       6.703   5.169  18.437  0.00  0.00    +0.000 OA
BRANCH   6   7
ATOM      7  C   UNL     1       6.886   4.522  17.253  0.00  0.00    +0.000 C 
ATOM      8  O   UNL     1       7.982   4.270  16.767  0.00  0.00    +0.000 OA
BRANCH   7   9
ATOM      9  C   UNL     1       5.564   4.014  16.712  0.00  0.00    +0.000 C 
BRANCH   9  10
ATOM     10  O   UNL     1       4.605   5.044  16.581  0.00  0.00    +0.000 OA
BRANCH  10  11
ATOM     11  C   UNL     1       3.687   5.135  17.596  0.00  0.00    +0.000 A 
ATOM     12  C   UNL     1       3.518   6.227  18.456  0.00  0.00    +0.000 A 
ATOM     13  C   UNL     1       2.532   6.196  19.448  0.00  0.00    +0.000 A 
ATOM     14  C   UNL     1       1.715   5.076  19.587  0.00  0.00    +0.000 A 
ATOM     15  C   UNL     1       1.889   3.989  18.733  0.00  0.00    +0.000 A 
ATOM     16 BR   UNL     1       0.781   2.468  18.916  0.00  0.00    +0.000 Br
ATOM     17  C   UNL     1       2.870   4.014  17.745  0.00  0.00    +0.000 A 
ENDBRANCH  10  11
ENDBRANCH   9  10
ENDBRANCH   7   9
ENDBRANCH   6   7
ENDBRANCH   5   6
ENDBRANCH   2   5
BRANCH   3  18
ATOM     18  C   UNL     1       8.293   9.700  17.622  0.00  0.00    +0.000 C 
BRANCH  18  19
ATOM     19  C   UNL     1       9.030  10.736  18.432  0.00  0.00    +0.000 A 
ATOM     20  C   UNL     1       9.329  10.495  19.793  0.00  0.00    +0.000 A 
ATOM     21  C   UNL     1      10.018  11.442  20.560  0.00  0.00    +0.000 A 
ATOM     22  C   UNL     1      10.395  12.615  19.943  0.00  0.00    +0.000 A 
ATOM     23  C   UNL     1      10.114  12.857  18.620  0.00  0.00    +0.000 A 
ATOM     24  C   UNL     1       9.439  11.942  17.837  0.00  0.00    +0.000 A 
ATOM     25  O   UNL     1      10.569  14.071  18.206  0.00  0.00    +0.000 OA
ATOM     26  C   UNL     1      11.152  14.572  19.428  0.00  0.00    +0.000 C 
ATOM     27  O   UNL     1      11.065  13.644  20.528  0.00  0.00    +0.000 OA
ENDBRANCH  18  19
ENDBRANCH   3  18
TORSDOF 8
ENDMDL
MODEL 6
REMARK VINA RESULT:      -6.9      1.432      1.701
REMARK  Name = 
REMARK  8 active torsions:
REMARK  status: ('A' for Active; 'I' for Inactive)
REMARK    1  A    between atoms: C_2  and  C_3
REMARK    2  A    between atoms: C_3  and  O_4
REMARK    3  A    between atoms: O_4  and  C_5
REMARK    4  A    between atoms: C_5  and  C_7
REMARK    5  A    between atoms: C_7  and  O_8
REMARK    6  A    between atoms: O_8  and  C_9
REMARK    7  A    between atoms: N_16  and  C_17
REMARK    8  A    between atoms: C_17  and  C_18
REMARK                            x       y       z     vdW  Elec       q    Type
REMARK                         _______ _______ _______ _____ _____    ______ ____
ROOT
ATOM      1  O   UNL     1       2.006   3.255  22.152  0.00  0.00    +0.000 OA
ATOM      2  C   UNL     1       2.536   3.427  21.058  0.00  0.00    +0.000 C 
ATOM      3  N   UNL     1       2.553   4.649  20.427  0.00  0.00    +0.000 N 
ATOM      4  H   UNL     1       3.078   4.771  19.569  0.00  0.00    +0.000 HD
ENDROOT
BRANCH   2   5
ATOM      5  C   UNL     1       3.255   2.299  20.305  0.00  0.00    +0.000 C 
BRANCH   5   6
ATOM      6  O   UNL     1       2.347   1.764  19.338  0.00  0.00    +0.000 OA
BRANCH   6   7
ATOM      7  C   UNL     1       2.388   2.440  18.157  0.00  0.00    +0.000 C 
ATOM      8  O   UNL     1       1.405   2.917  17.602  0.00  0.00    +0.000 OA
BRANCH   7   9
ATOM      9  C   UNL     1       3.821   2.663  17.717  0.00  0.00    +0.000 C 
BRANCH   9  10
ATOM     10  O   UNL     1       4.275   3.970  18.004  0.00  0.00    +0.000 OA
BRANCH  10  11
ATOM     11  C   UNL     1       5.230   4.469  17.156  0.00  0.00    +0.000 A 
ATOM     12  C   UNL     1       6.209   5.413  17.483  0.00  0.00    +0.000 A 
ATOM     13  C   UNL     1       7.135   5.831  16.522  0.00  0.00    +0.000 A 
ATOM     14  C   UNL     1       7.085   5.311  15.231  0.00  0.00    +0.000 A 
ATOM     15  C   UNL     1       6.106   4.374  14.906  0.00  0.00    +0.000 A 
ATOM     16 BR   UNL     1       6.035   3.663  13.155  0.00  0.00    +0.000 Br
ATOM     17  C   UNL     1       5.180   3.956  15.859  0.00  0.00    +0.000 A 
ENDBRANCH  10  11
ENDBRANCH   9  10
ENDBRANCH   7   9
ENDBRANCH   6   7
ENDBRANCH   5   6
ENDBRANCH   2   5
BRANCH   3  18
ATOM     18  C   UNL     1       1.922   5.819  21.002  0.00  0.00    +0.000 C 
BRANCH  18  19
ATOM     19  C   UNL     1       1.976   6.992  20.056  0.00  0.00    +0.000 A 
ATOM     20  C   UNL     1       2.572   6.854  18.781  0.00  0.00    +0.000 A 
ATOM     21  C   UNL     1       2.627   7.930  17.888  0.00  0.00    +0.000 A 
ATOM     22  C   UNL     1       2.077   9.127  18.293  0.00  0.00    +0.000 A 
ATOM     23  C   UNL     1       1.491   9.272  19.527  0.00  0.00    +0.000 A 
ATOM     24  C   UNL     1       1.420   8.228  20.428  0.00  0.00    +0.000 A 
ATOM     25  O   UNL     1       1.013  10.529  19.731  0.00  0.00    +0.000 OA
ATOM     26  C   UNL     1       1.386  11.164  18.489  0.00  0.00    +0.000 C 
ATOM     27  O   UNL     1       2.040  10.274  17.563  0.00  0.00    +0.000 OA
ENDBRANCH  18  19
ENDBRANCH   3  18
TORSDOF 8
ENDMDL
MODEL 7
REMARK VINA RESULT:      -6.8      1.887      3.124
REMARK  Name = 
REMARK  8 active torsions:
REMARK  status: ('A' for Active; 'I' for Inactive)
REMARK    1  A    between atoms: C_2  and  C_3
REMARK    2  A    between atoms: C_3  and  O_4
REMARK    3  A    between atoms: O_4  and  C_5
REMARK    4  A    between atoms: C_5  and  C_7
REMARK    5  A    between atoms: C_7  and  O_8
REMARK    6  A    between atoms: O_8  and  C_9
REMARK    7  A    between atoms: N_16  and  C_17
REMARK    8  A    between atoms: C_17  and  C_18
REMARK                            x       y       z     vdW  Elec       q    Type
REMARK                         _______ _______ _______ _____ _____    ______ ____
ROOT
ATOM      1  O   UNL     1       1.993   5.486  17.972  0.00  0.00    +0.000 OA
ATOM      2  C   UNL     1       2.241   6.070  19.024  0.00  0.00    +0.000 C 
ATOM      3  N   UNL     1       2.393   7.435  19.096  0.00  0.00    +0.000 N 
ATOM      4  H   UNL     1       2.506   7.887  19.995  0.00  0.00    +0.000 HD
ENDROOT
BRANCH   2   5
ATOM      5  C   UNL     1       2.376   5.331  20.363  0.00  0.00    +0.000 C 
BRANCH   5   6
ATOM      6  O   UNL     1       2.006   3.966  20.155  0.00  0.00    +0.000 OA
BRANCH   6   7
ATOM      7  C   UNL     1       2.901   3.096  20.700  0.00  0.00    +0.000 C 
ATOM      8  O   UNL     1       2.836   2.672  21.848  0.00  0.00    +0.000 OA
BRANCH   7   9
ATOM      9  C   UNL     1       3.876   2.603  19.650  0.00  0.00    +0.000 C 
BRANCH   9  10
ATOM     10  O   UNL     1       5.059   3.376  19.609  0.00  0.00    +0.000 OA
BRANCH  10  11
ATOM     11  C   UNL     1       5.274   4.073  18.448  0.00  0.00    +0.000 A 
ATOM     12  C   UNL     1       4.714   3.783  17.198  0.00  0.00    +0.000 A 
ATOM     13  C   UNL     1       5.009   4.584  16.090  0.00  0.00    +0.000 A 
ATOM     14  C   UNL     1       5.865   5.675  16.225  0.00  0.00    +0.000 A 
ATOM     15  C   UNL     1       6.424   5.959  17.469  0.00  0.00    +0.000 A 
ATOM     16 BR   UNL     1       7.585   7.440  17.656  0.00  0.00    +0.000 Br
ATOM     17  C   UNL     1       6.136   5.163  18.574  0.00  0.00    +0.000 A 
ENDBRANCH  10  11
ENDBRANCH   9  10
ENDBRANCH   7   9
ENDBRANCH   6   7
ENDBRANCH   5   6
ENDBRANCH   2   5
BRANCH   3  18
ATOM     18  C   UNL     1       2.294   8.281  17.925  0.00  0.00    +0.000 C 
BRANCH  18  19
ATOM     19  C   UNL     1       1.406   9.473  18.182  0.00  0.00    +0.000 A 
ATOM     20  C   UNL     1       1.974  10.740  18.454  0.00  0.00    +0.000 A 
ATOM     21  C   UNL     1       1.167  11.858  18.689  0.00  0.00    +0.000 A 
ATOM     22  C   UNL     1      -0.199  11.683  18.644  0.00  0.00    +0.000 A 
ATOM     23  C   UNL     1      -0.762  10.459  18.375  0.00  0.00    +0.000 A 
ATOM     24  C   UNL     1       0.008   9.338  18.137  0.00  0.00    +0.000 A 
ATOM     25  O   UNL     1      -2.122  10.500  18.379  0.00  0.00    +0.000 OA
ATOM     26  C   UNL     1      -2.349  11.889  18.701  0.00  0.00    +0.000 C 
ATOM     27  O   UNL     1      -1.133  12.651  18.847  0.00  0.00    +0.000 OA
ENDBRANCH  18  19
ENDBRANCH   3  18
TORSDOF 8
ENDMDL
MODEL 8
REMARK VINA RESULT:      -6.8      6.149      7.600
REMARK  Name = 
REMARK  8 active torsions:
REMARK  status: ('A' for Active; 'I' for Inactive)
REMARK    1  A    between atoms: C_2  and  C_3
REMARK    2  A    between atoms: C_3  and  O_4
REMARK    3  A    between atoms: O_4  and  C_5
REMARK    4  A    between atoms: C_5  and  C_7
REMARK    5  A    between atoms: C_7  and  O_8
REMARK    6  A    between atoms: O_8  and  C_9
REMARK    7  A    between atoms: N_16  and  C_17
REMARK    8  A    between atoms: C_17  and  C_18
REMARK                            x       y       z     vdW  Elec       q    Type
REMARK                         _______ _______ _______ _____ _____    ______ ____
ROOT
ATOM      1  O   UNL     1       8.622   7.494  18.986  0.00  0.00    +0.000 OA
ATOM      2  C   UNL     1       8.151   8.208  18.105  0.00  0.00    +0.000 C 
ATOM      3  N   UNL     1       8.397   9.559  18.036  0.00  0.00    +0.000 N 
ATOM      4  H   UNL     1       8.065  10.096  17.244  0.00  0.00    +0.000 HD
ENDROOT
BRANCH   2   5
ATOM      5  C   UNL     1       7.266   7.652  16.981  0.00  0.00    +0.000 C 
BRANCH   5   6
ATOM      6  O   UNL     1       6.912   6.308  17.319  0.00  0.00    +0.000 OA
BRANCH   6   7
ATOM      7  C   UNL     1       5.575   6.076  17.199  0.00  0.00    +0.000 C 
ATOM      8  O   UNL     1       4.711   6.926  17.377  0.00  0.00    +0.000 OA
BRANCH   7   9
ATOM      9  C   UNL     1       5.320   4.684  16.659  0.00  0.00    +0.000 C 
BRANCH   9  10
ATOM     10  O   UNL     1       5.038   3.752  17.684  0.00  0.00    +0.000 OA
BRANCH  10  11
ATOM     11  C   UNL     1       3.732   3.698  18.096  0.00  0.00    +0.000 A 
ATOM     12  C   UNL     1       2.607   3.937  17.299  0.00  0.00    +0.000 A 
ATOM     13  C   UNL     1       1.323   3.838  17.844  0.00  0.00    +0.000 A 
ATOM     14  C   UNL     1       1.157   3.504  19.186  0.00  0.00    +0.000 A 
ATOM     15  C   UNL     1       2.279   3.271  19.980  0.00  0.00    +0.000 A 
ATOM     16 BR   UNL     1       2.059   2.815  21.801  0.00  0.00    +0.000 Br
ATOM     17  C   UNL     1       3.560   3.371  19.442  0.00  0.00    +0.000 A 
ENDBRANCH  10  11
ENDBRANCH   9  10
ENDBRANCH   7   9
ENDBRANCH   6   7
ENDBRANCH   5   6
ENDBRANCH   2   5
BRANCH   3  18
ATOM     18  C   UNL     1       9.213  10.242  19.017  0.00  0.00    +0.000 C 
BRANCH  18  19
ATOM     19  C   UNL     1       9.721  11.560  18.488  0.00  0.00    +0.000 A 
ATOM     20  C   UNL     1      10.945  11.620  17.781  0.00  0.00    +0.000 A 
ATOM     21  C   UNL     1      11.430  12.833  17.277  0.00  0.00    +0.000 A 
ATOM     22  C   UNL     1      10.673  13.964  17.492  0.00  0.00    +0.000 A 
ATOM     23  C   UNL     1       9.481  13.917  18.173  0.00  0.00    +0.000 A 
ATOM     24  C   UNL     1       8.975  12.736  18.679  0.00  0.00    +0.000 A 
ATOM     25  O   UNL     1       8.893  15.139  18.277  0.00  0.00    +0.000 OA
ATOM     26  C   UNL     1       9.865  15.965  17.601  0.00  0.00    +0.000 C 
ATOM     27  O   UNL     1      10.985  15.222  17.079  0.00  0.00    +0.000 OA
ENDBRANCH  18  19
ENDBRANCH   3  18
TORSDOF 8
ENDMDL
MODEL 9
REMARK VINA RESULT:      -6.8      5.790      7.475
REMARK  Name = 
REMARK  8 active torsions:
REMARK  status: ('A' for Active; 'I' for Inactive)
REMARK    1  A    between atoms: C_2  and  C_3
REMARK    2  A    between atoms: C_3  and  O_4
REMARK    3  A    between atoms: O_4  and  C_5
REMARK    4  A    between atoms: C_5  and  C_7
REMARK    5  A    between atoms: C_7  and  O_8
REMARK    6  A    between atoms: O_8  and  C_9
REMARK    7  A    between atoms: N_16  and  C_17
REMARK    8  A    between atoms: C_17  and  C_18
REMARK                            x       y       z     vdW  Elec       q    Type
REMARK                         _______ _______ _______ _____ _____    ______ ____
ROOT
ATOM      1  O   UNL     1       7.733   7.192  16.669  0.00  0.00    +0.000 OA
ATOM      2  C   UNL     1       7.896   7.311  17.880  0.00  0.00    +0.000 C 
ATOM      3  N   UNL     1       8.261   8.502  18.465  0.00  0.00    +0.000 N 
ATOM      4  H   UNL     1       8.297   8.582  19.474  0.00  0.00    +0.000 HD
ENDROOT
BRANCH   2   5
ATOM      5  C   UNL     1       7.680   6.148  18.857  0.00  0.00    +0.000 C 
BRANCH   5   6
ATOM      6  O   UNL     1       7.894   4.926  18.146  0.00  0.00    +0.000 OA
BRANCH   6   7
ATOM      7  C   UNL     1       6.812   4.560  17.404  0.00  0.00    +0.000 C 
ATOM      8  O   UNL     1       6.880   4.035  16.299  0.00  0.00    +0.000 OA
BRANCH   7   9
ATOM      9  C   UNL     1       5.534   4.735  18.201  0.00  0.00    +0.000 C 
BRANCH   9  10
ATOM     10  O   UNL     1       4.986   3.500  18.616  0.00  0.00    +0.000 OA
BRANCH  10  11
ATOM     11  C   UNL     1       3.966   3.579  19.529  0.00  0.00    +0.000 A 
ATOM     12  C   UNL     1       3.499   2.533  20.335  0.00  0.00    +0.000 A 
ATOM     13  C   UNL     1       2.454   2.751  21.237  0.00  0.00    +0.000 A 
ATOM     14  C   UNL     1       1.867   4.011  21.336  0.00  0.00    +0.000 A 
ATOM     15  C   UNL     1       2.330   5.049  20.530  0.00  0.00    +0.000 A 
ATOM     16 BR   UNL     1       1.539   6.761  20.663  0.00  0.00    +0.000 Br
ATOM     17  C   UNL     1       3.369   4.837  19.628  0.00  0.00    +0.000 A 
ENDBRANCH  10  11
ENDBRANCH   9  10
ENDBRANCH   7   9
ENDBRANCH   6   7
ENDBRANCH   5   6
ENDBRANCH   2   5
BRANCH   3  18
ATOM     18  C   UNL     1       8.502   9.698  17.686  0.00  0.00    +0.000 C 
BRANCH  18  19
ATOM     19  C   UNL     1       9.158  10.771  18.517  0.00  0.00    +0.000 A 
ATOM     20  C   UNL     1       9.428  10.547  19.888  0.00  0.00    +0.000 A 
ATOM     21  C   UNL     1      10.041  11.529  20.674  0.00  0.00    +0.000 A 
ATOM     22  C   UNL     1      10.375  12.719  20.067  0.00  0.00    +0.000 A 
ATOM     23  C   UNL     1      10.123  12.947  18.735  0.00  0.00    +0.000 A 
ATOM     24  C   UNL     1       9.522  11.997  17.933  0.00  0.00    +0.000 A 
ATOM     25  O   UNL     1      10.527  14.182  18.333  0.00  0.00    +0.000 OA
ATOM     26  C   UNL     1      11.044  14.714  19.572  0.00  0.00    +0.000 C 
ATOM     27  O   UNL     1      10.973  13.782  20.670  0.00  0.00    +0.000 OA
ENDBRANCH  18  19
ENDBRANCH   3  18
TORSDOF 8
ENDMDL
