MODEL 1
REMARK VINA RESULT:      -6.9      0.000      0.000
REMARK  Name = 
REMARK  8 active torsions:
REMARK  status: ('A' for Active; 'I' for Inactive)
REMARK    1  A    between atoms: C_1  and  C_2
REMARK    2  A    between atoms: C_2  and  C_3
REMARK    3  A    between atoms: C_3  and  N_4
REMARK    4  A    between atoms: N_4  and  C_5
REMARK    5  A    between atoms: N_4  and  C_8
REMARK    6  A    between atoms: C_5  and  C_6
REMARK    7  A    between atoms: C_6  and  C_7
REMARK    8  A    between atoms: C_8  and  C_9
REMARK                            x       y       z     vdW  Elec       q    Type
REMARK                         _______ _______ _______ _____ _____    ______ ____
ROOT
ATOM      1  C   UNL     1       4.373   3.714  17.720  0.00  0.00    +0.000 C 
ATOM      2  O   UNL     1       3.492   3.383  16.929  0.00  0.00    +0.000 OA
ATOM      3  N   UNL     1       5.597   4.284  17.301  0.00  0.00    +0.000 N 
ATOM      4  C   UNL     1       6.557   4.857  18.256  0.00  0.00    +0.000 C 
ATOM      5  C   UNL     1       7.349   6.058  17.776  0.00  0.00    +0.000 C 
ATOM      6  O   UNL     1       7.904   6.831  18.554  0.00  0.00    +0.000 OA
ATOM      7  N   UNL     1       7.557   6.149  16.435  0.00  0.00    +0.000 N 
ATOM      8  C   UNL     1       6.977   5.269  15.517  0.00  0.00    +0.000 A 
ATOM      9  C   UNL     1       7.379   5.378  14.181  0.00  0.00    +0.000 A 
ATOM     10  C   UNL     1       6.829   4.534  13.222  0.00  0.00    +0.000 A 
ATOM     11  C   UNL     1       5.874   3.596  13.596  0.00  0.00    +0.000 A 
ATOM     12  C   UNL     1       5.457   3.505  14.931  0.00  0.00    +0.000 A 
ATOM     13  C   UNL     1       5.999   4.339  15.918  0.00  0.00    +0.000 A 
ATOM     14  H   UNL     1       8.172   6.891  16.125  0.00  0.00    +0.000 HD
ENDROOT
BRANCH   1  15
ATOM     15  C   UNL     1       4.155   3.649  19.254  0.00  0.00    +0.000 C 
BRANCH  15  16
ATOM     16  N   UNL     1       3.033   4.445  19.827  0.00  0.00    +0.000 NA
BRANCH  16  17
ATOM     17  C   UNL     1       3.382   5.879  19.685  0.00  0.00    +0.000 C 
BRANCH  17  19
ATOM     18  C   UNL     1       3.538   7.330  17.595  0.00  0.00    +0.000 C 
ATOM     19  C   UNL     1       2.622   6.671  18.613  0.00  0.00    +0.000 C 
ENDBRANCH  17  19
ENDBRANCH  16  17
BRANCH  16  20
ATOM     20  C   UNL     1       1.707   4.126  19.265  0.00  0.00    +0.000 C 
BRANCH  20  21
ATOM     21  C   UNL     1       0.931   2.993  19.950  0.00  0.00    +0.000 C 
ATOM     22  C   UNL     1       1.333   2.853  21.411  0.00  0.00    +0.000 C 
ENDBRANCH  20  21
ENDBRANCH  16  20
ENDBRANCH  15  16
ENDBRANCH   1  15
TORSDOF 6
ENDMDL
MODEL 2
REMARK VINA RESULT:      -6.8      1.959      6.172
REMARK  Name = 
REMARK  8 active torsions:
REMARK  status: ('A' for Active; 'I' for Inactive)
REMARK    1  A    between atoms: C_1  and  C_2
REMARK    2  A    between atoms: C_2  and  C_3
REMARK    3  A    between atoms: C_3  and  N_4
REMARK    4  A    between atoms: N_4  and  C_5
REMARK    5  A    between atoms: N_4  and  C_8
REMARK    6  A    between atoms: C_5  and  C_6
REMARK    7  A    between atoms: C_6  and  C_7
REMARK    8  A    between atoms: C_8  and  C_9
REMARK                            x       y       z     vdW  Elec       q    Type
REMARK                         _______ _______ _______ _____ _____    ______ ____
ROOT
ATOM      1  C   UNL     1       4.390   5.371  17.678  0.00  0.00    +0.000 C 
ATOM      2  O   UNL     1       4.997   4.303  17.628  0.00  0.00    +0.000 OA
ATOM      3  N   UNL     1       3.264   5.568  18.509  0.00  0.00    +0.000 N 
ATOM      4  C   UNL     1       2.668   6.896  18.712  0.00  0.00    +0.000 C 
ATOM      5  C   UNL     1       2.081   7.169  20.084  0.00  0.00    +0.000 C 
ATOM      6  O   UNL     1       1.879   8.309  20.496  0.00  0.00    +0.000 OA
ATOM      7  N   UNL     1       1.630   6.088  20.775  0.00  0.00    +0.000 N 
ATOM      8  C   UNL     1       1.803   4.775  20.325  0.00  0.00    +0.000 A 
ATOM      9  C   UNL     1       1.173   3.759  21.052  0.00  0.00    +0.000 A 
ATOM     10  C   UNL     1       1.317   2.434  20.656  0.00  0.00    +0.000 A 
ATOM     11  C   UNL     1       2.096   2.127  19.547  0.00  0.00    +0.000 A 
ATOM     12  C   UNL     1       2.744   3.146  18.834  0.00  0.00    +0.000 A 
ATOM     13  C   UNL     1       2.612   4.490  19.209  0.00  0.00    +0.000 A 
ATOM     14  H   UNL     1       1.144   6.279  21.642  0.00  0.00    +0.000 HD
ENDROOT
BRANCH   1  15
ATOM     15  C   UNL     1       4.894   6.629  16.924  0.00  0.00    +0.000 C 
BRANCH  15  16
ATOM     16  N   UNL     1       5.915   6.432  15.856  0.00  0.00    +0.000 NA
BRANCH  16  17
ATOM     17  C   UNL     1       7.200   6.105  16.518  0.00  0.00    +0.000 C 
BRANCH  17  19
ATOM     18  C   UNL     1       7.894   6.058  18.971  0.00  0.00    +0.000 C 
ATOM     19  C   UNL     1       7.561   6.923  17.766  0.00  0.00    +0.000 C 
ENDBRANCH  17  19
ENDBRANCH  16  17
BRANCH  16  20
ATOM     20  C   UNL     1       5.540   5.444  14.827  0.00  0.00    +0.000 C 
BRANCH  20  21
ATOM     21  C   UNL     1       6.611   4.410  14.453  0.00  0.00    +0.000 C 
ATOM     22  C   UNL     1       6.283   3.727  13.134  0.00  0.00    +0.000 C 
ENDBRANCH  20  21
ENDBRANCH  16  20
ENDBRANCH  15  16
ENDBRANCH   1  15
TORSDOF 6
ENDMDL
MODEL 3
REMARK VINA RESULT:      -6.7      1.876      6.095
REMARK  Name = 
REMARK  8 active torsions:
REMARK  status: ('A' for Active; 'I' for Inactive)
REMARK    1  A    between atoms: C_1  and  C_2
REMARK    2  A    between atoms: C_2  and  C_3
REMARK    3  A    between atoms: C_3  and  N_4
REMARK    4  A    between atoms: N_4  and  C_5
REMARK    5  A    between atoms: N_4  and  C_8
REMARK    6  A    between atoms: C_5  and  C_6
REMARK    7  A    between atoms: C_6  and  C_7
REMARK    8  A    between atoms: C_8  and  C_9
REMARK                            x       y       z     vdW  Elec       q    Type
REMARK                         _______ _______ _______ _____ _____    ______ ____
ROOT
ATOM      1  C   UNL     1       4.727   4.765  17.302  0.00  0.00    +0.000 C 
ATOM      2  O   UNL     1       5.467   3.823  17.578  0.00  0.00    +0.000 OA
ATOM      3  N   UNL     1       3.659   5.164  18.140  0.00  0.00    +0.000 N 
ATOM      4  C   UNL     1       2.907   6.405  17.906  0.00  0.00    +0.000 C 
ATOM      5  C   UNL     1       2.409   7.133  19.140  0.00  0.00    +0.000 C 
ATOM      6  O   UNL     1       2.089   8.320  19.117  0.00  0.00    +0.000 OA
ATOM      7  N   UNL     1       2.171   6.368  20.239  0.00  0.00    +0.000 N 
ATOM      8  C   UNL     1       2.482   5.006  20.296  0.00  0.00    +0.000 A 
ATOM      9  C   UNL     1       2.062   4.298  21.427  0.00  0.00    +0.000 A 
ATOM     10  C   UNL     1       2.350   2.943  21.542  0.00  0.00    +0.000 A 
ATOM     11  C   UNL     1       3.066   2.303  20.537  0.00  0.00    +0.000 A 
ATOM     12  C   UNL     1       3.505   3.021  19.415  0.00  0.00    +0.000 A 
ATOM     13  C   UNL     1       3.223   4.386  19.272  0.00  0.00    +0.000 A 
ATOM     14  H   UNL     1       1.740   6.835  21.027  0.00  0.00    +0.000 HD
ENDROOT
BRANCH   1  15
ATOM     15  C   UNL     1       4.988   5.673  16.073  0.00  0.00    +0.000 C 
BRANCH  15  16
ATOM     16  N   UNL     1       6.405   5.921  15.686  0.00  0.00    +0.000 NA
BRANCH  16  17
ATOM     17  C   UNL     1       7.165   6.208  16.926  0.00  0.00    +0.000 C 
BRANCH  17  19
ATOM     18  C   UNL     1       8.349   7.991  18.311  0.00  0.00    +0.000 C 
ATOM     19  C   UNL     1       7.166   7.663  17.414  0.00  0.00    +0.000 C 
ENDBRANCH  17  19
ENDBRANCH  16  17
BRANCH  16  20
ATOM     20  C   UNL     1       7.017   4.847  14.882  0.00  0.00    +0.000 C 
BRANCH  20  21
ATOM     21  C   UNL     1       6.050   3.941  14.106  0.00  0.00    +0.000 C 
ATOM     22  C   UNL     1       6.502   3.756  12.665  0.00  0.00    +0.000 C 
ENDBRANCH  20  21
ENDBRANCH  16  20
ENDBRANCH  15  16
ENDBRANCH   1  15
TORSDOF 6
ENDMDL
MODEL 4
REMARK VINA RESULT:      -6.6      1.682      6.079
REMARK  Name = 
REMARK  8 active torsions:
REMARK  status: ('A' for Active; 'I' for Inactive)
REMARK    1  A    between atoms: C_1  and  C_2
REMARK    2  A    between atoms: C_2  and  C_3
REMARK    3  A    between atoms: C_3  and  N_4
REMARK    4  A    between atoms: N_4  and  C_5
REMARK    5  A    between atoms: N_4  and  C_8
REMARK    6  A    between atoms: C_5  and  C_6
REMARK    7  A    between atoms: C_6  and  C_7
REMARK    8  A    between atoms: C_8  and  C_9
REMARK                            x       y       z     vdW  Elec       q    Type
REMARK                         _______ _______ _______ _____ _____    ______ ____
ROOT
ATOM      1  C   UNL     1       4.345   3.779  17.021  0.00  0.00    +0.000 C 
ATOM      2  O   UNL     1       4.690   2.656  17.386  0.00  0.00    +0.000 OA
ATOM      3  N   UNL     1       3.403   4.555  17.734  0.00  0.00    +0.000 N 
ATOM      4  C   UNL     1       3.145   5.964  17.406  0.00  0.00    +0.000 C 
ATOM      5  C   UNL     1       2.808   6.876  18.571  0.00  0.00    +0.000 C 
ATOM      6  O   UNL     1       2.917   8.099  18.500  0.00  0.00    +0.000 OA
ATOM      7  N   UNL     1       2.219   6.290  19.647  0.00  0.00    +0.000 N 
ATOM      8  C   UNL     1       2.040   4.907  19.753  0.00  0.00    +0.000 A 
ATOM      9  C   UNL     1       1.296   4.438  20.842  0.00  0.00    +0.000 A 
ATOM     10  C   UNL     1       1.092   3.072  21.004  0.00  0.00    +0.000 A 
ATOM     11  C   UNL     1       1.641   2.181  20.088  0.00  0.00    +0.000 A 
ATOM     12  C   UNL     1       2.404   2.653  19.012  0.00  0.00    +0.000 A 
ATOM     13  C   UNL     1       2.620   4.025  18.823  0.00  0.00    +0.000 A 
ATOM     14  H   UNL     1       1.899   6.913  20.379  0.00  0.00    +0.000 HD
ENDROOT
BRANCH   1  15
ATOM     15  C   UNL     1       5.018   4.485  15.815  0.00  0.00    +0.000 C 
BRANCH  15  16
ATOM     16  N   UNL     1       6.507   4.473  15.750  0.00  0.00    +0.000 NA
BRANCH  16  17
ATOM     17  C   UNL     1       6.895   4.644  14.330  0.00  0.00    +0.000 C 
BRANCH  17  19
ATOM     18  C   UNL     1       6.850   3.722  11.953  0.00  0.00    +0.000 C 
ATOM     19  C   UNL     1       6.153   3.778  13.303  0.00  0.00    +0.000 C 
ENDBRANCH  17  19
ENDBRANCH  16  17
BRANCH  16  20
ATOM     20  C   UNL     1       7.166   5.449  16.639  0.00  0.00    +0.000 C 
BRANCH  20  21
ATOM     21  C   UNL     1       7.684   4.908  17.979  0.00  0.00    +0.000 C 
ATOM     22  C   UNL     1       7.787   6.014  19.019  0.00  0.00    +0.000 C 
ENDBRANCH  20  21
ENDBRANCH  16  20
ENDBRANCH  15  16
ENDBRANCH   1  15
TORSDOF 6
ENDMDL
MODEL 5
REMARK VINA RESULT:      -6.6      2.029      5.933
REMARK  Name = 
REMARK  8 active torsions:
REMARK  status: ('A' for Active; 'I' for Inactive)
REMARK    1  A    between atoms: C_1  and  C_2
REMARK    2  A    between atoms: C_2  and  C_3
REMARK    3  A    between atoms: C_3  and  N_4
REMARK    4  A    between atoms: N_4  and  C_5
REMARK    5  A    between atoms: N_4  and  C_8
REMARK    6  A    between atoms: C_5  and  C_6
REMARK    7  A    between atoms: C_6  and  C_7
REMARK    8  A    between atoms: C_8  and  C_9
REMARK                            x       y       z     vdW  Elec       q    Type
REMARK                         _______ _______ _______ _____ _____    ______ ____
ROOT
ATOM      1  C   UNL     1       5.394   4.798  18.848  0.00  0.00    +0.000 C 
ATOM      2  O   UNL     1       5.840   3.679  19.093  0.00  0.00    +0.000 OA
ATOM      3  N   UNL     1       4.026   5.121  19.000  0.00  0.00    +0.000 N 
ATOM      4  C   UNL     1       3.535   6.503  18.898  0.00  0.00    +0.000 C 
ATOM      5  C   UNL     1       2.365   6.870  19.790  0.00  0.00    +0.000 C 
ATOM      6  O   UNL     1       2.089   8.036  20.065  0.00  0.00    +0.000 OA
ATOM      7  N   UNL     1       1.529   5.856  20.139  0.00  0.00    +0.000 N 
ATOM      8  C   UNL     1       1.782   4.520  19.814  0.00  0.00    +0.000 A 
ATOM      9  C   UNL     1       0.780   3.587  20.104  0.00  0.00    +0.000 A 
ATOM     10  C   UNL     1       0.979   2.243  19.811  0.00  0.00    +0.000 A 
ATOM     11  C   UNL     1       2.180   1.833  19.243  0.00  0.00    +0.000 A 
ATOM     12  C   UNL     1       3.191   2.766  18.974  0.00  0.00    +0.000 A 
ATOM     13  C   UNL     1       3.013   4.128  19.255  0.00  0.00    +0.000 A 
ATOM     14  H   UNL     1       0.692   6.117  20.645  0.00  0.00    +0.000 HD
ENDROOT
BRANCH   1  15
ATOM     15  C   UNL     1       6.324   5.982  18.476  0.00  0.00    +0.000 C 
BRANCH  15  16
ATOM     16  N   UNL     1       6.468   6.319  17.032  0.00  0.00    +0.000 NA
BRANCH  16  17
ATOM     17  C   UNL     1       7.494   7.383  16.920  0.00  0.00    +0.000 C 
BRANCH  17  19
ATOM     18  C   UNL     1       8.448   9.366  18.207  0.00  0.00    +0.000 C 
ATOM     19  C   UNL     1       8.116   7.883  18.231  0.00  0.00    +0.000 C 
ENDBRANCH  17  19
ENDBRANCH  16  17
BRANCH  16  20
ATOM     20  C   UNL     1       6.751   5.164  16.159  0.00  0.00    +0.000 C 
BRANCH  20  21
ATOM     21  C   UNL     1       5.703   4.850  15.082  0.00  0.00    +0.000 C 
ATOM     22  C   UNL     1       6.292   3.996  13.970  0.00  0.00    +0.000 C 
ENDBRANCH  20  21
ENDBRANCH  16  20
ENDBRANCH  15  16
ENDBRANCH   1  15
TORSDOF 6
ENDMDL
MODEL 6
REMARK VINA RESULT:      -6.6      0.816      2.566
REMARK  Name = 
REMARK  8 active torsions:
REMARK  status: ('A' for Active; 'I' for Inactive)
REMARK    1  A    between atoms: C_1  and  C_2
REMARK    2  A    between atoms: C_2  and  C_3
REMARK    3  A    between atoms: C_3  and  N_4
REMARK    4  A    between atoms: N_4  and  C_5
REMARK    5  A    between atoms: N_4  and  C_8
REMARK    6  A    between atoms: C_5  and  C_6
REMARK    7  A    between atoms: C_6  and  C_7
REMARK    8  A    between atoms: C_8  and  C_9
REMARK                            x       y       z     vdW  Elec       q    Type
REMARK                         _______ _______ _______ _____ _____    ______ ____
ROOT
ATOM      1  C   UNL     1       4.103   4.341  17.473  0.00  0.00    +0.000 C 
ATOM      2  O   UNL     1       3.253   3.988  16.658  0.00  0.00    +0.000 OA
ATOM      3  N   UNL     1       5.403   4.746  17.089  0.00  0.00    +0.000 N 
ATOM      4  C   UNL     1       6.344   5.351  18.042  0.00  0.00    +0.000 C 
ATOM      5  C   UNL     1       7.278   6.409  17.486  0.00  0.00    +0.000 C 
ATOM      6  O   UNL     1       7.850   7.224  18.207  0.00  0.00    +0.000 OA
ATOM      7  N   UNL     1       7.588   6.309  16.165  0.00  0.00    +0.000 N 
ATOM      8  C   UNL     1       6.992   5.372  15.316  0.00  0.00    +0.000 A 
ATOM      9  C   UNL     1       7.495   5.275  14.014  0.00  0.00    +0.000 A 
ATOM     10  C   UNL     1       6.936   4.366  13.123  0.00  0.00    +0.000 A 
ATOM     11  C   UNL     1       5.871   3.568  13.529  0.00  0.00    +0.000 A 
ATOM     12  C   UNL     1       5.356   3.685  14.827  0.00  0.00    +0.000 A 
ATOM     13  C   UNL     1       5.904   4.589  15.746  0.00  0.00    +0.000 A 
ATOM     14  H   UNL     1       8.291   6.950  15.819  0.00  0.00    +0.000 HD
ENDROOT
BRANCH   1  15
ATOM     15  C   UNL     1       3.774   4.492  18.981  0.00  0.00    +0.000 C 
BRANCH  15  16
ATOM     16  N   UNL     1       2.561   5.276  19.347  0.00  0.00    +0.000 NA
BRANCH  16  17
ATOM     17  C   UNL     1       2.041   4.727  20.622  0.00  0.00    +0.000 C 
BRANCH  17  19
ATOM     18  C   UNL     1       0.740   2.803  19.571  0.00  0.00    +0.000 C 
ATOM     19  C   UNL     1       1.724   3.226  20.650  0.00  0.00    +0.000 C 
ENDBRANCH  17  19
ENDBRANCH  16  17
BRANCH  16  20
ATOM     20  C   UNL     1       2.769   6.735  19.401  0.00  0.00    +0.000 C 
BRANCH  20  21
ATOM     21  C   UNL     1       2.847   7.462  18.051  0.00  0.00    +0.000 C 
ATOM     22  C   UNL     1       1.883   8.637  18.000  0.00  0.00    +0.000 C 
ENDBRANCH  20  21
ENDBRANCH  16  20
ENDBRANCH  15  16
ENDBRANCH   1  15
TORSDOF 6
ENDMDL
MODEL 7
REMARK VINA RESULT:      -6.6      1.354      2.576
REMARK  Name = 
REMARK  8 active torsions:
REMARK  status: ('A' for Active; 'I' for Inactive)
REMARK    1  A    between atoms: C_1  and  C_2
REMARK    2  A    between atoms: C_2  and  C_3
REMARK    3  A    between atoms: C_3  and  N_4
REMARK    4  A    between atoms: N_4  and  C_5
REMARK    5  A    between atoms: N_4  and  C_8
REMARK    6  A    between atoms: C_5  and  C_6
REMARK    7  A    between atoms: C_6  and  C_7
REMARK    8  A    between atoms: C_8  and  C_9
REMARK                            x       y       z     vdW  Elec       q    Type
REMARK                         _______ _______ _______ _____ _____    ______ ____
ROOT
ATOM      1  C   UNL     1       3.889   5.073  18.102  0.00  0.00    +0.000 C 
ATOM      2  O   UNL     1       2.966   4.838  17.324  0.00  0.00    +0.000 OA
ATOM      3  N   UNL     1       5.232   5.189  17.677  0.00  0.00    +0.000 N 
ATOM      4  C   UNL     1       6.296   5.663  18.574  0.00  0.00    +0.000 C 
ATOM      5  C   UNL     1       7.404   6.477  17.933  0.00  0.00    +0.000 C 
ATOM      6  O   UNL     1       8.140   7.213  18.588  0.00  0.00    +0.000 OA
ATOM      7  N   UNL     1       7.656   6.228  16.620  0.00  0.00    +0.000 N 
ATOM      8  C   UNL     1       6.869   5.369  15.847  0.00  0.00    +0.000 A 
ATOM      9  C   UNL     1       7.312   5.086  14.551  0.00  0.00    +0.000 A 
ATOM     10  C   UNL     1       6.565   4.244  13.733  0.00  0.00    +0.000 A 
ATOM     11  C   UNL     1       5.377   3.700  14.207  0.00  0.00    +0.000 A 
ATOM     12  C   UNL     1       4.925   4.004  15.498  0.00  0.00    +0.000 A 
ATOM     13  C   UNL     1       5.661   4.845  16.344  0.00  0.00    +0.000 A 
ATOM     14  H   UNL     1       8.462   6.694  16.221  0.00  0.00    +0.000 HD
ENDROOT
BRANCH   1  15
ATOM     15  C   UNL     1       3.631   5.389  19.599  0.00  0.00    +0.000 C 
BRANCH  15  16
ATOM     16  N   UNL     1       2.226   5.311  20.089  0.00  0.00    +0.000 NA
BRANCH  16  17
ATOM     17  C   UNL     1       2.054   3.995  20.749  0.00  0.00    +0.000 C 
BRANCH  17  19
ATOM     18  C   UNL     1       1.262   2.315  19.002  0.00  0.00    +0.000 C 
ATOM     19  C   UNL     1       0.902   3.116  20.243  0.00  0.00    +0.000 C 
ENDBRANCH  17  19
ENDBRANCH  16  17
BRANCH  16  20
ATOM     20  C   UNL     1       1.816   6.435  20.952  0.00  0.00    +0.000 C 
BRANCH  20  21
ATOM     21  C   UNL     1       1.702   7.808  20.273  0.00  0.00    +0.000 C 
ATOM     22  C   UNL     1       0.918   8.786  21.135  0.00  0.00    +0.000 C 
ENDBRANCH  20  21
ENDBRANCH  16  20
ENDBRANCH  15  16
ENDBRANCH   1  15
TORSDOF 6
ENDMDL
MODEL 8
REMARK VINA RESULT:      -6.5      2.150      6.065
REMARK  Name = 
REMARK  8 active torsions:
REMARK  status: ('A' for Active; 'I' for Inactive)
REMARK    1  A    between atoms: C_1  and  C_2
REMARK    2  A    between atoms: C_2  and  C_3
REMARK    3  A    between atoms: C_3  and  N_4
REMARK    4  A    between atoms: N_4  and  C_5
REMARK    5  A    between atoms: N_4  and  C_8
REMARK    6  A    between atoms: C_5  and  C_6
REMARK    7  A    between atoms: C_6  and  C_7
REMARK    8  A    between atoms: C_8  and  C_9
REMARK                            x       y       z     vdW  Elec       q    Type
REMARK                         _______ _______ _______ _____ _____    ______ ____
ROOT
ATOM      1  C   UNL     1       5.538   4.849  18.839  0.00  0.00    +0.000 C 
ATOM      2  O   UNL     1       6.019   3.719  18.911  0.00  0.00    +0.000 OA
ATOM      3  N   UNL     1       4.148   5.091  18.925  0.00  0.00    +0.000 N 
ATOM      4  C   UNL     1       3.599   6.450  19.037  0.00  0.00    +0.000 C 
ATOM      5  C   UNL     1       2.342   6.602  19.873  0.00  0.00    +0.000 C 
ATOM      6  O   UNL     1       1.987   7.685  20.334  0.00  0.00    +0.000 OA
ATOM      7  N   UNL     1       1.533   5.512  19.952  0.00  0.00    +0.000 N 
ATOM      8  C   UNL     1       1.878   4.271  19.410  0.00  0.00    +0.000 A 
ATOM      9  C   UNL     1       0.904   3.267  19.432  0.00  0.00    +0.000 A 
ATOM     10  C   UNL     1       1.194   2.009  18.914  0.00  0.00    +0.000 A 
ATOM     11  C   UNL     1       2.456   1.755  18.389  0.00  0.00    +0.000 A 
ATOM     12  C   UNL     1       3.437   2.757  18.388  0.00  0.00    +0.000 A 
ATOM     13  C   UNL     1       3.169   4.034  18.900  0.00  0.00    +0.000 A 
ATOM     14  H   UNL     1       0.645   5.645  20.422  0.00  0.00    +0.000 HD
ENDROOT
BRANCH   1  15
ATOM     15  C   UNL     1       6.435   6.113  18.777  0.00  0.00    +0.000 C 
BRANCH  15  16
ATOM     16  N   UNL     1       7.125   6.408  17.489  0.00  0.00    +0.000 NA
BRANCH  16  17
ATOM     17  C   UNL     1       6.226   5.983  16.391  0.00  0.00    +0.000 C 
BRANCH  17  19
ATOM     18  C   UNL     1       6.081   3.712  15.242  0.00  0.00    +0.000 C 
ATOM     19  C   UNL     1       6.820   5.037  15.339  0.00  0.00    +0.000 C 
ENDBRANCH  17  19
ENDBRANCH  16  17
BRANCH  16  20
ATOM     20  C   UNL     1       7.578   7.804  17.344  0.00  0.00    +0.000 C 
BRANCH  20  21
ATOM     21  C   UNL     1       8.475   8.350  18.464  0.00  0.00    +0.000 C 
ATOM     22  C   UNL     1       8.702   9.846  18.310  0.00  0.00    +0.000 C 
ENDBRANCH  20  21
ENDBRANCH  16  20
ENDBRANCH  15  16
ENDBRANCH   1  15
TORSDOF 6
ENDMDL
MODEL 9
REMARK VINA RESULT:      -6.5      1.309      1.616
REMARK  Name = 
REMARK  8 active torsions:
REMARK  status: ('A' for Active; 'I' for Inactive)
REMARK    1  A    between atoms: C_1  and  C_2
REMARK    2  A    between atoms: C_2  and  C_3
REMARK    3  A    between atoms: C_3  and  N_4
REMARK    4  A    between atoms: N_4  and  C_5
REMARK    5  A    between atoms: N_4  and  C_8
REMARK    6  A    between atoms: C_5  and  C_6
REMARK    7  A    between atoms: C_6  and  C_7
REMARK    8  A    between atoms: C_8  and  C_9
REMARK                            x       y       z     vdW  Elec       q    Type
REMARK                         _______ _______ _______ _____ _____    ______ ____
ROOT
ATOM      1  C   UNL     1       4.044   5.162  18.305  0.00  0.00    +0.000 C 
ATOM      2  O   UNL     1       3.084   4.880  17.590  0.00  0.00    +0.000 OA
ATOM      3  N   UNL     1       5.357   5.295  17.797  0.00  0.00    +0.000 N 
ATOM      4  C   UNL     1       6.459   5.823  18.614  0.00  0.00    +0.000 C 
ATOM      5  C   UNL     1       7.507   6.641  17.884  0.00  0.00    +0.000 C 
ATOM      6  O   UNL     1       8.261   7.415  18.471  0.00  0.00    +0.000 OA
ATOM      7  N   UNL     1       7.688   6.355  16.567  0.00  0.00    +0.000 N 
ATOM      8  C   UNL     1       6.880   5.452  15.870  0.00  0.00    +0.000 A 
ATOM      9  C   UNL     1       7.253   5.137  14.559  0.00  0.00    +0.000 A 
ATOM     10  C   UNL     1       6.482   4.252  13.813  0.00  0.00    +0.000 A 
ATOM     11  C   UNL     1       5.337   3.696  14.373  0.00  0.00    +0.000 A 
ATOM     12  C   UNL     1       4.954   4.032  15.679  0.00  0.00    +0.000 A 
ATOM     13  C   UNL     1       5.716   4.917  16.453  0.00  0.00    +0.000 A 
ATOM     14  H   UNL     1       8.457   6.826  16.107  0.00  0.00    +0.000 HD
ENDROOT
BRANCH   1  15
ATOM     15  C   UNL     1       3.866   5.521  19.803  0.00  0.00    +0.000 C 
BRANCH  15  16
ATOM     16  N   UNL     1       2.806   4.802  20.564  0.00  0.00    +0.000 NA
BRANCH  16  17
ATOM     17  C   UNL     1       1.601   5.666  20.579  0.00  0.00    +0.000 C 
BRANCH  17  19
ATOM     18  C   UNL     1       0.965   8.048  21.225  0.00  0.00    +0.000 C 
ATOM     19  C   UNL     1       1.823   7.164  20.335  0.00  0.00    +0.000 C 
ENDBRANCH  17  19
ENDBRANCH  16  17
BRANCH  16  20
ATOM     20  C   UNL     1       2.521   3.439  20.078  0.00  0.00    +0.000 C 
BRANCH  20  21
ATOM     21  C   UNL     1       1.044   3.021  20.049  0.00  0.00    +0.000 C 
ATOM     22  C   UNL     1       0.674   2.390  18.715  0.00  0.00    +0.000 C 
ENDBRANCH  20  21
ENDBRANCH  16  20
ENDBRANCH  15  16
ENDBRANCH   1  15
TORSDOF 6
ENDMDL
