MODEL 1
REMARK VINA RESULT:      -8.5      0.000      0.000
REMARK  Name = 
REMARK  7 active torsions:
REMARK  status: ('A' for Active; 'I' for Inactive)
REMARK    1  A    between atoms: C_1  and  C_2
REMARK    2  A    between atoms: C_4  and  C_5
REMARK    3  A    between atoms: N_8  and  C_9
REMARK    4  A    between atoms: C_9  and  N_11
REMARK    5  A    between atoms: C_14  and  N_15
REMARK    6  A    between atoms: N_15  and  C_16
REMARK    7  A    between atoms: C_20  and  C_21
REMARK                            x       y       z     vdW  Elec       q    Type
REMARK                         _______ _______ _______ _____ _____    ______ ____
ROOT
ATOM      1  N   UNL     1       3.534   5.527  18.660  0.00  0.00    +0.000 N 
ATOM      2  C   UNL     1       4.411   4.427  19.072  0.00  0.00    +0.000 C 
ATOM      3  C   UNL     1       5.880   4.789  18.901  0.00  0.00    +0.000 C 
ATOM      4  C   UNL     1       6.162   5.237  17.463  0.00  0.00    +0.000 C 
ATOM      5  C   UNL     1       5.236   6.410  17.102  0.00  0.00    +0.000 C 
ATOM      6  C   UNL     1       3.756   6.083  17.328  0.00  0.00    +0.000 C 
ENDROOT
BRANCH   1   7
ATOM      7  C   UNL     1       2.581   6.064  19.528  0.00  0.00    +0.000 C 
ATOM      8  S   UNL     1       1.992   5.112  20.777  0.00  0.00    +0.000 S 
BRANCH   7  16
ATOM      9  C   UNL     1       0.117   9.359  23.190  0.00  0.00    +0.000 C 
ATOM     10  C   UNL     1       0.558   9.454  21.761  0.00  0.00    +0.000 A 
ATOM     11  C   UNL     1       0.347  10.589  20.991  0.00  0.00    +0.000 A 
ATOM     12  C   UNL     1       0.789  10.588  19.672  0.00  0.00    +0.000 A 
ATOM     13  C   UNL     1       0.562  11.797  18.810  0.00  0.00    +0.000 C 
ATOM     14  N   UNL     1       1.421   9.523  19.105  0.00  0.00    +0.000 NA
ATOM     15  C   UNL     1       1.621   8.417  19.862  0.00  0.00    +0.000 A 
ATOM     16  N   UNL     1       2.258   7.365  19.183  0.00  0.00    +0.000 N 
ATOM     17  C   UNL     1       1.198   8.360  21.178  0.00  0.00    +0.000 A 
ATOM     18  H   UNL     1       2.401   7.606  18.211  0.00  0.00    +0.000 HD
ENDBRANCH   7  16
ENDBRANCH   1   7
BRANCH   4  19
ATOM     19  N   UNL     1       5.948   4.128  16.528  0.00  0.00    +0.000 N 
ATOM     20  H   UNL     1       5.172   3.511  16.750  0.00  0.00    +0.000 HD
BRANCH  19  21
ATOM     21  C   UNL     1       6.234   4.172  15.171  0.00  0.00    +0.000 A 
ATOM     22  C   UNL     1       7.391   4.854  14.765  0.00  0.00    +0.000 A 
ATOM     23  C   UNL     1       7.724   4.993  13.415  0.00  0.00    +0.000 A 
ATOM     24  C   UNL     1       6.891   4.458  12.439  0.00  0.00    +0.000 A 
ATOM     25  C   UNL     1       5.712   3.799  12.808  0.00  0.00    +0.000 A 
ATOM     26  C   UNL     1       5.389   3.681  14.174  0.00  0.00    +0.000 A 
BRANCH  25  27
ATOM     27  C   UNL     1       4.788   3.204  11.779  0.00  0.00    +0.000 C 
ATOM     28  F   UNL     1       4.614   3.987  10.678  0.00  0.00    +0.000 F 
ATOM     29  F   UNL     1       5.235   2.003  11.314  0.00  0.00    +0.000 F 
ATOM     30  F   UNL     1       3.539   2.968  12.270  0.00  0.00    +0.000 F 
ENDBRANCH  25  27
ENDBRANCH  19  21
ENDBRANCH   4  19
TORSDOF 5
ENDMDL
MODEL 2
REMARK VINA RESULT:      -8.1      3.064      4.616
REMARK  Name = 
REMARK  7 active torsions:
REMARK  status: ('A' for Active; 'I' for Inactive)
REMARK    1  A    between atoms: C_1  and  C_2
REMARK    2  A    between atoms: C_4  and  C_5
REMARK    3  A    between atoms: N_8  and  C_9
REMARK    4  A    between atoms: C_9  and  N_11
REMARK    5  A    between atoms: C_14  and  N_15
REMARK    6  A    between atoms: N_15  and  C_16
REMARK    7  A    between atoms: C_20  and  C_21
REMARK                            x       y       z     vdW  Elec       q    Type
REMARK                         _______ _______ _______ _____ _____    ______ ____
ROOT
ATOM      1  N   UNL     1       1.568   8.823  19.233  0.00  0.00    +0.000 N 
ATOM      2  C   UNL     1       2.327   8.559  18.007  0.00  0.00    +0.000 C 
ATOM      3  C   UNL     1       2.238   7.095  17.598  0.00  0.00    +0.000 C 
ATOM      4  C   UNL     1       2.679   6.185  18.749  0.00  0.00    +0.000 C 
ATOM      5  C   UNL     1       1.827   6.486  19.994  0.00  0.00    +0.000 C 
ATOM      6  C   UNL     1       1.855   7.969  20.382  0.00  0.00    +0.000 C 
ENDROOT
BRANCH   1   7
ATOM      7  C   UNL     1       0.567   9.797  19.276  0.00  0.00    +0.000 C 
ATOM      8  S   UNL     1       0.390  10.720  20.665  0.00  0.00    +0.000 S 
BRANCH   7  16
ATOM      9  C   UNL     1      -4.420  12.132  19.164  0.00  0.00    +0.000 C 
ATOM     10  C   UNL     1      -3.532  11.410  18.197  0.00  0.00    +0.000 A 
ATOM     11  C   UNL     1      -3.916  11.146  16.890  0.00  0.00    +0.000 A 
ATOM     12  C   UNL     1      -3.027  10.468  16.061  0.00  0.00    +0.000 A 
ATOM     13  C   UNL     1      -3.420  10.154  14.646  0.00  0.00    +0.000 C 
ATOM     14  N   UNL     1      -1.798  10.054  16.477  0.00  0.00    +0.000 NA
ATOM     15  C   UNL     1      -1.431  10.314  17.756  0.00  0.00    +0.000 A 
ATOM     16  N   UNL     1      -0.157   9.829  18.096  0.00  0.00    +0.000 N 
ATOM     17  C   UNL     1      -2.276  10.980  18.625  0.00  0.00    +0.000 A 
ATOM     18  H   UNL     1       0.241   9.308  17.326  0.00  0.00    +0.000 HD
ENDBRANCH   7  16
ENDBRANCH   1   7
BRANCH   4  19
ATOM     19  N   UNL     1       4.097   6.394  19.055  0.00  0.00    +0.000 N 
ATOM     20  H   UNL     1       4.309   6.608  20.026  0.00  0.00    +0.000 HD
BRANCH  19  21
ATOM     21  C   UNL     1       5.148   5.771  18.397  0.00  0.00    +0.000 A 
ATOM     22  C   UNL     1       6.310   5.492  19.132  0.00  0.00    +0.000 A 
ATOM     23  C   UNL     1       7.435   4.917  18.535  0.00  0.00    +0.000 A 
ATOM     24  C   UNL     1       7.421   4.622  17.176  0.00  0.00    +0.000 A 
ATOM     25  C   UNL     1       6.290   4.918  16.406  0.00  0.00    +0.000 A 
ATOM     26  C   UNL     1       5.171   5.509  17.026  0.00  0.00    +0.000 A 
BRANCH  25  27
ATOM     27  C   UNL     1       6.237   4.609  14.933  0.00  0.00    +0.000 C 
ATOM     28  F   UNL     1       7.323   5.052  14.240  0.00  0.00    +0.000 F 
ATOM     29  F   UNL     1       6.159   3.270  14.688  0.00  0.00    +0.000 F 
ATOM     30  F   UNL     1       5.153   5.162  14.321  0.00  0.00    +0.000 F 
ENDBRANCH  25  27
ENDBRANCH  19  21
ENDBRANCH   4  19
TORSDOF 5
ENDMDL
MODEL 3
REMARK VINA RESULT:      -8.1      4.964      9.633
REMARK  Name = 
REMARK  7 active torsions:
REMARK  status: ('A' for Active; 'I' for Inactive)
REMARK    1  A    between atoms: C_1  and  C_2
REMARK    2  A    between atoms: C_4  and  C_5
REMARK    3  A    between atoms: N_8  and  C_9
REMARK    4  A    between atoms: C_9  and  N_11
REMARK    5  A    between atoms: C_14  and  N_15
REMARK    6  A    between atoms: N_15  and  C_16
REMARK    7  A    between atoms: C_20  and  C_21
REMARK                            x       y       z     vdW  Elec       q    Type
REMARK                         _______ _______ _______ _____ _____    ______ ____
ROOT
ATOM      1  N   UNL     1       5.239   5.351  18.100  0.00  0.00    +0.000 N 
ATOM      2  C   UNL     1       4.629   4.785  19.307  0.00  0.00    +0.000 C 
ATOM      3  C   UNL     1       3.123   4.627  19.150  0.00  0.00    +0.000 C 
ATOM      4  C   UNL     1       2.478   5.960  18.756  0.00  0.00    +0.000 C 
ATOM      5  C   UNL     1       3.136   6.486  17.470  0.00  0.00    +0.000 C 
ATOM      6  C   UNL     1       4.660   6.591  17.590  0.00  0.00    +0.000 C 
ENDROOT
BRANCH   1   7
ATOM      7  C   UNL     1       6.276   4.697  17.432  0.00  0.00    +0.000 C 
ATOM      8  S   UNL     1       7.809   4.696  18.113  0.00  0.00    +0.000 S 
BRANCH   7  16
ATOM      9  C   UNL     1       8.815   5.915  12.699  0.00  0.00    +0.000 C 
ATOM     10  C   UNL     1       7.638   5.093  13.124  0.00  0.00    +0.000 A 
ATOM     11  C   UNL     1       6.843   4.408  12.216  0.00  0.00    +0.000 A 
ATOM     12  C   UNL     1       5.768   3.669  12.701  0.00  0.00    +0.000 A 
ATOM     13  C   UNL     1       4.880   2.929  11.741  0.00  0.00    +0.000 C 
ATOM     14  N   UNL     1       5.464   3.588  14.026  0.00  0.00    +0.000 NA
ATOM     15  C   UNL     1       6.244   4.261  14.907  0.00  0.00    +0.000 A 
ATOM     16  N   UNL     1       5.837   4.135  16.245  0.00  0.00    +0.000 N 
ATOM     17  C   UNL     1       7.323   5.016  14.481  0.00  0.00    +0.000 A 
ATOM     18  H   UNL     1       4.980   3.601  16.306  0.00  0.00    +0.000 HD
ENDBRANCH   7  16
ENDBRANCH   1   7
BRANCH   4  19
ATOM     19  N   UNL     1       2.632   6.943  19.832  0.00  0.00    +0.000 N 
ATOM     20  H   UNL     1       3.589   7.141  20.112  0.00  0.00    +0.000 HD
BRANCH  19  21
ATOM     21  C   UNL     1       1.772   8.008  20.060  0.00  0.00    +0.000 A 
ATOM     22  C   UNL     1       1.486   8.864  18.985  0.00  0.00    +0.000 A 
ATOM     23  C   UNL     1       0.674   9.990  19.141  0.00  0.00    +0.000 A 
ATOM     24  C   UNL     1       0.139  10.289  20.389  0.00  0.00    +0.000 A 
ATOM     25  C   UNL     1       0.430   9.475  21.490  0.00  0.00    +0.000 A 
ATOM     26  C   UNL     1       1.261   8.351  21.314  0.00  0.00    +0.000 A 
BRANCH  25  27
ATOM     27  C   UNL     1      -0.134   9.766  22.856  0.00  0.00    +0.000 C 
ATOM     28  F   UNL     1       0.712   9.455  23.877  0.00  0.00    +0.000 F 
ATOM     29  F   UNL     1      -0.445  11.083  23.018  0.00  0.00    +0.000 F 
ATOM     30  F   UNL     1      -1.285   9.080  23.103  0.00  0.00    +0.000 F 
ENDBRANCH  25  27
ENDBRANCH  19  21
ENDBRANCH   4  19
TORSDOF 5
ENDMDL
MODEL 4
REMARK VINA RESULT:      -7.9      5.033      7.569
REMARK  Name = 
REMARK  7 active torsions:
REMARK  status: ('A' for Active; 'I' for Inactive)
REMARK    1  A    between atoms: C_1  and  C_2
REMARK    2  A    between atoms: C_4  and  C_5
REMARK    3  A    between atoms: N_8  and  C_9
REMARK    4  A    between atoms: C_9  and  N_11
REMARK    5  A    between atoms: C_14  and  N_15
REMARK    6  A    between atoms: N_15  and  C_16
REMARK    7  A    between atoms: C_20  and  C_21
REMARK                            x       y       z     vdW  Elec       q    Type
REMARK                         _______ _______ _______ _____ _____    ______ ____
ROOT
ATOM      1  N   UNL     1      -0.360  11.730  19.522  0.00  0.00    +0.000 N 
ATOM      2  C   UNL     1       1.097  11.788  19.669  0.00  0.00    +0.000 C 
ATOM      3  C   UNL     1       1.806  11.196  18.459  0.00  0.00    +0.000 C 
ATOM      4  C   UNL     1       1.316   9.770  18.189  0.00  0.00    +0.000 C 
ATOM      5  C   UNL     1      -0.212   9.780  18.012  0.00  0.00    +0.000 C 
ATOM      6  C   UNL     1      -0.938  10.429  19.195  0.00  0.00    +0.000 C 
ENDROOT
BRANCH   1   7
ATOM      7  C   UNL     1      -1.149  12.879  19.618  0.00  0.00    +0.000 C 
ATOM      8  S   UNL     1      -0.439  14.311  20.126  0.00  0.00    +0.000 S 
BRANCH   7  16
ATOM      9  C   UNL     1      -5.125  13.128  23.420  0.00  0.00    +0.000 C 
ATOM     10  C   UNL     1      -5.029  12.792  21.964  0.00  0.00    +0.000 A 
ATOM     11  C   UNL     1      -6.129  12.390  21.219  0.00  0.00    +0.000 A 
ATOM     12  C   UNL     1      -5.947  12.096  19.872  0.00  0.00    +0.000 A 
ATOM     13  C   UNL     1      -7.115  11.643  19.044  0.00  0.00    +0.000 C 
ATOM     14  N   UNL     1      -4.737  12.188  19.252  0.00  0.00    +0.000 NA
ATOM     15  C   UNL     1      -3.667  12.579  19.986  0.00  0.00    +0.000 A 
ATOM     16  N   UNL     1      -2.463  12.621  19.265  0.00  0.00    +0.000 N 
ATOM     17  C   UNL     1      -3.789  12.879  21.331  0.00  0.00    +0.000 A 
ATOM     18  H   UNL     1      -2.603  12.286  18.321  0.00  0.00    +0.000 HD
ENDBRANCH   7  16
ENDBRANCH   1   7
BRANCH   4  19
ATOM     19  N   UNL     1       1.682   8.882  19.296  0.00  0.00    +0.000 N 
ATOM     20  H   UNL     1       1.127   8.984  20.142  0.00  0.00    +0.000 HD
BRANCH  19  21
ATOM     21  C   UNL     1       2.212   7.609  19.147  0.00  0.00    +0.000 A 
ATOM     22  C   UNL     1       3.056   7.372  18.051  0.00  0.00    +0.000 A 
ATOM     23  C   UNL     1       3.588   6.106  17.796  0.00  0.00    +0.000 A 
ATOM     24  C   UNL     1       3.271   5.041  18.632  0.00  0.00    +0.000 A 
ATOM     25  C   UNL     1       2.405   5.234  19.715  0.00  0.00    +0.000 A 
ATOM     26  C   UNL     1       1.870   6.516  19.948  0.00  0.00    +0.000 A 
BRANCH  25  27
ATOM     27  C   UNL     1       2.042   4.106  20.644  0.00  0.00    +0.000 C 
ATOM     28  F   UNL     1       2.594   2.910  20.296  0.00  0.00    +0.000 F 
ATOM     29  F   UNL     1       2.443   4.342  21.926  0.00  0.00    +0.000 F 
ATOM     30  F   UNL     1       0.699   3.893  20.709  0.00  0.00    +0.000 F 
ENDBRANCH  25  27
ENDBRANCH  19  21
ENDBRANCH   4  19
TORSDOF 5
ENDMDL
MODEL 5
REMARK VINA RESULT:      -7.9      5.358      7.066
REMARK  Name = 
REMARK  7 active torsions:
REMARK  status: ('A' for Active; 'I' for Inactive)
REMARK    1  A    between atoms: C_1  and  C_2
REMARK    2  A    between atoms: C_4  and  C_5
REMARK    3  A    between atoms: N_8  and  C_9
REMARK    4  A    between atoms: C_9  and  N_11
REMARK    5  A    between atoms: C_14  and  N_15
REMARK    6  A    between atoms: N_15  and  C_16
REMARK    7  A    between atoms: C_20  and  C_21
REMARK                            x       y       z     vdW  Elec       q    Type
REMARK                         _______ _______ _______ _____ _____    ______ ____
ROOT
ATOM      1  N   UNL     1       0.846   9.842  18.737  0.00  0.00    +0.000 N 
ATOM      2  C   UNL     1       0.684   8.865  19.818  0.00  0.00    +0.000 C 
ATOM      3  C   UNL     1       1.995   8.160  20.137  0.00  0.00    +0.000 C 
ATOM      4  C   UNL     1       2.586   7.523  18.875  0.00  0.00    +0.000 C 
ATOM      5  C   UNL     1       2.763   8.601  17.793  0.00  0.00    +0.000 C 
ATOM      6  C   UNL     1       1.465   9.363  17.504  0.00  0.00    +0.000 C 
ENDROOT
BRANCH   1   7
ATOM      7  C   UNL     1       0.493  11.183  18.907  0.00  0.00    +0.000 C 
ATOM      8  S   UNL     1       1.697  12.350  18.885  0.00  0.00    +0.000 S 
BRANCH   7  16
ATOM      9  C   UNL     1      -2.958  10.143  14.743  0.00  0.00    +0.000 C 
ATOM     10  C   UNL     1      -3.069  10.622  16.157  0.00  0.00    +0.000 A 
ATOM     11  C   UNL     1      -4.285  10.969  16.731  0.00  0.00    +0.000 A 
ATOM     12  C   UNL     1      -4.294  11.406  18.052  0.00  0.00    +0.000 A 
ATOM     13  C   UNL     1      -5.592  11.802  18.696  0.00  0.00    +0.000 C 
ATOM     14  N   UNL     1      -3.164  11.506  18.806  0.00  0.00    +0.000 NA
ATOM     15  C   UNL     1      -1.981  11.168  18.238  0.00  0.00    +0.000 A 
ATOM     16  N   UNL     1      -0.873  11.326  19.086  0.00  0.00    +0.000 N 
ATOM     17  C   UNL     1      -1.911  10.732  16.927  0.00  0.00    +0.000 A 
ATOM     18  H   UNL     1      -1.157  11.731  19.969  0.00  0.00    +0.000 HD
ENDBRANCH   7  16
ENDBRANCH   1   7
BRANCH   4  19
ATOM     19  N   UNL     1       1.710   6.458  18.379  0.00  0.00    +0.000 N 
ATOM     20  H   UNL     1       1.324   6.605  17.451  0.00  0.00    +0.000 HD
BRANCH  19  21
ATOM     21  C   UNL     1       1.834   5.115  18.706  0.00  0.00    +0.000 A 
ATOM     22  C   UNL     1       1.786   4.177  17.663  0.00  0.00    +0.000 A 
ATOM     23  C   UNL     1       1.848   2.804  17.908  0.00  0.00    +0.000 A 
ATOM     24  C   UNL     1       1.947   2.339  19.215  0.00  0.00    +0.000 A 
ATOM     25  C   UNL     1       1.964   3.245  20.282  0.00  0.00    +0.000 A 
ATOM     26  C   UNL     1       1.888   4.626  20.013  0.00  0.00    +0.000 A 
BRANCH  25  27
ATOM     27  C   UNL     1       2.074   2.779  21.710  0.00  0.00    +0.000 C 
ATOM     28  F   UNL     1       3.036   1.835  21.906  0.00  0.00    +0.000 F 
ATOM     29  F   UNL     1       2.373   3.798  22.565  0.00  0.00    +0.000 F 
ATOM     30  F   UNL     1       0.916   2.234  22.174  0.00  0.00    +0.000 F 
ENDBRANCH  25  27
ENDBRANCH  19  21
ENDBRANCH   4  19
TORSDOF 5
ENDMDL
MODEL 6
REMARK VINA RESULT:      -7.9      5.079      7.467
REMARK  Name = 
REMARK  7 active torsions:
REMARK  status: ('A' for Active; 'I' for Inactive)
REMARK    1  A    between atoms: C_1  and  C_2
REMARK    2  A    between atoms: C_4  and  C_5
REMARK    3  A    between atoms: N_8  and  C_9
REMARK    4  A    between atoms: C_9  and  N_11
REMARK    5  A    between atoms: C_14  and  N_15
REMARK    6  A    between atoms: N_15  and  C_16
REMARK    7  A    between atoms: C_20  and  C_21
REMARK                            x       y       z     vdW  Elec       q    Type
REMARK                         _______ _______ _______ _____ _____    ______ ____
ROOT
ATOM      1  N   UNL     1       0.437  11.254  20.277  0.00  0.00    +0.000 N 
ATOM      2  C   UNL     1       0.256  10.105  19.385  0.00  0.00    +0.000 C 
ATOM      3  C   UNL     1      -0.409   8.939  20.104  0.00  0.00    +0.000 C 
ATOM      4  C   UNL     1       0.375   8.565  21.366  0.00  0.00    +0.000 C 
ATOM      5  C   UNL     1       0.503   9.800  22.274  0.00  0.00    +0.000 C 
ATOM      6  C   UNL     1       1.114  11.003  21.546  0.00  0.00    +0.000 C 
ENDROOT
BRANCH   1   7
ATOM      7  C   UNL     1      -0.078  12.513  19.957  0.00  0.00    +0.000 C 
ATOM      8  S   UNL     1       0.886  13.595  19.113  0.00  0.00    +0.000 S 
BRANCH   7  16
ATOM      9  C   UNL     1      -4.350  11.015  16.821  0.00  0.00    +0.000 C 
ATOM     10  C   UNL     1      -4.153  11.640  18.168  0.00  0.00    +0.000 A 
ATOM     11  C   UNL     1      -5.216  12.036  18.968  0.00  0.00    +0.000 A 
ATOM     12  C   UNL     1      -4.939  12.609  20.204  0.00  0.00    +0.000 A 
ATOM     13  C   UNL     1      -6.068  13.061  21.085  0.00  0.00    +0.000 C 
ATOM     14  N   UNL     1      -3.671  12.797  20.665  0.00  0.00    +0.000 NA
ATOM     15  C   UNL     1      -2.637  12.409  19.878  0.00  0.00    +0.000 A 
ATOM     16  N   UNL     1      -1.371  12.664  20.429  0.00  0.00    +0.000 N 
ATOM     17  C   UNL     1      -2.854  11.838  18.636  0.00  0.00    +0.000 A 
ATOM     18  H   UNL     1      -1.459  13.158  21.308  0.00  0.00    +0.000 HD
ENDBRANCH   7  16
ENDBRANCH   1   7
BRANCH   4  19
ATOM     19  N   UNL     1       1.707   8.065  21.015  0.00  0.00    +0.000 N 
ATOM     20  H   UNL     1       2.435   8.237  21.703  0.00  0.00    +0.000 HD
BRANCH  19  21
ATOM     21  C   UNL     1       1.951   6.941  20.239  0.00  0.00    +0.000 A 
ATOM     22  C   UNL     1       2.544   7.127  18.981  0.00  0.00    +0.000 A 
ATOM     23  C   UNL     1       2.774   6.056  18.114  0.00  0.00    +0.000 A 
ATOM     24  C   UNL     1       2.400   4.770  18.489  0.00  0.00    +0.000 A 
ATOM     25  C   UNL     1       1.776   4.554  19.723  0.00  0.00    +0.000 A 
ATOM     26  C   UNL     1       1.542   5.649  20.577  0.00  0.00    +0.000 A 
BRANCH  25  27
ATOM     27  C   UNL     1       1.361   3.175  20.164  0.00  0.00    +0.000 C 
ATOM     28  F   UNL     1       0.285   2.683  19.488  0.00  0.00    +0.000 F 
ATOM     29  F   UNL     1       2.355   2.257  19.998  0.00  0.00    +0.000 F 
ATOM     30  F   UNL     1       1.028   3.126  21.483  0.00  0.00    +0.000 F 
ENDBRANCH  25  27
ENDBRANCH  19  21
ENDBRANCH   4  19
TORSDOF 5
ENDMDL
MODEL 7
REMARK VINA RESULT:      -7.9      5.044      7.538
REMARK  Name = 
REMARK  7 active torsions:
REMARK  status: ('A' for Active; 'I' for Inactive)
REMARK    1  A    between atoms: C_1  and  C_2
REMARK    2  A    between atoms: C_4  and  C_5
REMARK    3  A    between atoms: N_8  and  C_9
REMARK    4  A    between atoms: C_9  and  N_11
REMARK    5  A    between atoms: C_14  and  N_15
REMARK    6  A    between atoms: N_15  and  C_16
REMARK    7  A    between atoms: C_20  and  C_21
REMARK                            x       y       z     vdW  Elec       q    Type
REMARK                         _______ _______ _______ _____ _____    ______ ____
ROOT
ATOM      1  N   UNL     1       0.277  11.093  20.129  0.00  0.00    +0.000 N 
ATOM      2  C   UNL     1       0.132   9.885  19.311  0.00  0.00    +0.000 C 
ATOM      3  C   UNL     1      -0.431   8.725  20.120  0.00  0.00    +0.000 C 
ATOM      4  C   UNL     1       0.422   8.471  21.367  0.00  0.00    +0.000 C 
ATOM      5  C   UNL     1       0.510   9.762  22.198  0.00  0.00    +0.000 C 
ATOM      6  C   UNL     1       1.017  10.955  21.381  0.00  0.00    +0.000 C 
ENDROOT
BRANCH   1   7
ATOM      7  C   UNL     1      -0.326  12.298  19.763  0.00  0.00    +0.000 C 
ATOM      8  S   UNL     1       0.646  13.609  19.377  0.00  0.00    +0.000 S 
BRANCH   7  16
ATOM      9  C   UNL     1      -3.075  10.743  15.251  0.00  0.00    +0.000 C 
ATOM     10  C   UNL     1      -3.420  11.174  16.643  0.00  0.00    +0.000 A 
ATOM     11  C   UNL     1      -4.732  11.296  17.080  0.00  0.00    +0.000 A 
ATOM     12  C   UNL     1      -4.959  11.705  18.390  0.00  0.00    +0.000 A 
ATOM     13  C   UNL     1      -6.367  11.861  18.887  0.00  0.00    +0.000 C 
ATOM     14  N   UNL     1      -3.951  11.987  19.262  0.00  0.00    +0.000 NA
ATOM     15  C   UNL     1      -2.673  11.866  18.828  0.00  0.00    +0.000 A 
ATOM     16  N   UNL     1      -1.707  12.201  19.791  0.00  0.00    +0.000 N 
ATOM     17  C   UNL     1      -2.388  11.470  17.534  0.00  0.00    +0.000 A 
ATOM     18  H   UNL     1      -2.150  12.537  20.636  0.00  0.00    +0.000 HD
ENDBRANCH   7  16
ENDBRANCH   1   7
BRANCH   4  19
ATOM     19  N   UNL     1       1.768   8.032  20.988  0.00  0.00    +0.000 N 
ATOM     20  H   UNL     1       2.514   8.309  21.620  0.00  0.00    +0.000 HD
BRANCH  19  21
ATOM     21  C   UNL     1       2.053   6.864  20.295  0.00  0.00    +0.000 A 
ATOM     22  C   UNL     1       2.489   6.978  18.966  0.00  0.00    +0.000 A 
ATOM     23  C   UNL     1       2.745   5.852  18.180  0.00  0.00    +0.000 A 
ATOM     24  C   UNL     1       2.555   4.581  18.710  0.00  0.00    +0.000 A 
ATOM     25  C   UNL     1       2.090   4.431  20.022  0.00  0.00    +0.000 A 
ATOM     26  C   UNL     1       1.827   5.579  20.793  0.00  0.00    +0.000 A 
BRANCH  25  27
ATOM     27  C   UNL     1       1.877   3.070  20.631  0.00  0.00    +0.000 C 
ATOM     28  F   UNL     1       0.723   2.964  21.347  0.00  0.00    +0.000 F 
ATOM     29  F   UNL     1       1.823   2.084  19.691  0.00  0.00    +0.000 F 
ATOM     30  F   UNL     1       2.879   2.715  21.483  0.00  0.00    +0.000 F 
ENDBRANCH  25  27
ENDBRANCH  19  21
ENDBRANCH   4  19
TORSDOF 5
ENDMDL
MODEL 8
REMARK VINA RESULT:      -7.9      5.112      7.366
REMARK  Name = 
REMARK  7 active torsions:
REMARK  status: ('A' for Active; 'I' for Inactive)
REMARK    1  A    between atoms: C_1  and  C_2
REMARK    2  A    between atoms: C_4  and  C_5
REMARK    3  A    between atoms: N_8  and  C_9
REMARK    4  A    between atoms: C_9  and  N_11
REMARK    5  A    between atoms: C_14  and  N_15
REMARK    6  A    between atoms: N_15  and  C_16
REMARK    7  A    between atoms: C_20  and  C_21
REMARK                            x       y       z     vdW  Elec       q    Type
REMARK                         _______ _______ _______ _____ _____    ______ ____
ROOT
ATOM      1  N   UNL     1       0.417  10.986  19.710  0.00  0.00    +0.000 N 
ATOM      2  C   UNL     1       0.203   9.644  19.159  0.00  0.00    +0.000 C 
ATOM      3  C   UNL     1      -0.381   8.699  20.199  0.00  0.00    +0.000 C 
ATOM      4  C   UNL     1       0.497   8.667  21.454  0.00  0.00    +0.000 C 
ATOM      5  C   UNL     1       0.657  10.095  22.002  0.00  0.00    +0.000 C 
ATOM      6  C   UNL     1       1.186  11.073  20.948  0.00  0.00    +0.000 C 
ENDROOT
BRANCH   1   7
ATOM      7  C   UNL     1      -0.151  12.116  19.117  0.00  0.00    +0.000 C 
ATOM      8  S   UNL     1       0.026  13.604  19.871  0.00  0.00    +0.000 S 
BRANCH   7  16
ATOM      9  C   UNL     1      -5.643  11.714  19.057  0.00  0.00    +0.000 C 
ATOM     10  C   UNL     1      -4.525  11.522  18.079  0.00  0.00    +0.000 A 
ATOM     11  C   UNL     1      -4.743  11.108  16.772  0.00  0.00    +0.000 A 
ATOM     12  C   UNL     1      -3.644  10.954  15.933  0.00  0.00    +0.000 A 
ATOM     13  C   UNL     1      -3.848  10.494  14.518  0.00  0.00    +0.000 C 
ATOM     14  N   UNL     1      -2.366  11.194  16.337  0.00  0.00    +0.000 NA
ATOM     15  C   UNL     1      -2.160  11.595  17.615  0.00  0.00    +0.000 A 
ATOM     16  N   UNL     1      -0.809  11.794  17.943  0.00  0.00    +0.000 N 
ATOM     17  C   UNL     1      -3.215  11.760  18.495  0.00  0.00    +0.000 A 
ATOM     18  H   UNL     1      -0.215  11.537  17.166  0.00  0.00    +0.000 HD
ENDBRANCH   7  16
ENDBRANCH   1   7
BRANCH   4  19
ATOM     19  N   UNL     1       1.814   8.102  21.146  0.00  0.00    +0.000 N 
ATOM     20  H   UNL     1       2.525   8.232  21.860  0.00  0.00    +0.000 HD
BRANCH  19  21
ATOM     21  C   UNL     1       2.028   6.971  20.370  0.00  0.00    +0.000 A 
ATOM     22  C   UNL     1       2.606   7.143  19.103  0.00  0.00    +0.000 A 
ATOM     23  C   UNL     1       2.806   6.066  18.237  0.00  0.00    +0.000 A 
ATOM     24  C   UNL     1       2.415   4.788  18.620  0.00  0.00    +0.000 A 
ATOM     25  C   UNL     1       1.804   4.586  19.863  0.00  0.00    +0.000 A 
ATOM     26  C   UNL     1       1.601   5.688  20.717  0.00  0.00    +0.000 A 
BRANCH  25  27
ATOM     27  C   UNL     1       1.371   3.216  20.314  0.00  0.00    +0.000 C 
ATOM     28  F   UNL     1       0.210   2.791  19.742  0.00  0.00    +0.000 F 
ATOM     29  F   UNL     1       2.298   2.259  20.028  0.00  0.00    +0.000 F 
ATOM     30  F   UNL     1       1.171   3.146  21.660  0.00  0.00    +0.000 F 
ENDBRANCH  25  27
ENDBRANCH  19  21
ENDBRANCH   4  19
TORSDOF 5
ENDMDL
MODEL 9
REMARK VINA RESULT:      -7.8      4.006      6.506
REMARK  Name = 
REMARK  7 active torsions:
REMARK  status: ('A' for Active; 'I' for Inactive)
REMARK    1  A    between atoms: C_1  and  C_2
REMARK    2  A    between atoms: C_4  and  C_5
REMARK    3  A    between atoms: N_8  and  C_9
REMARK    4  A    between atoms: C_9  and  N_11
REMARK    5  A    between atoms: C_14  and  N_15
REMARK    6  A    between atoms: N_15  and  C_16
REMARK    7  A    between atoms: C_20  and  C_21
REMARK                            x       y       z     vdW  Elec       q    Type
REMARK                         _______ _______ _______ _____ _____    ______ ____
ROOT
ATOM      1  N   UNL     1       0.408   9.868  19.410  0.00  0.00    +0.000 N 
ATOM      2  C   UNL     1       0.207   9.240  20.719  0.00  0.00    +0.000 C 
ATOM      3  C   UNL     1       1.491   8.610  21.240  0.00  0.00    +0.000 C 
ATOM      4  C   UNL     1       2.065   7.626  20.216  0.00  0.00    +0.000 C 
ATOM      5  C   UNL     1       2.283   8.349  18.877  0.00  0.00    +0.000 C 
ATOM      6  C   UNL     1       1.013   9.042  18.369  0.00  0.00    +0.000 C 
ENDROOT
BRANCH   1   7
ATOM      7  C   UNL     1       0.100  11.213  19.192  0.00  0.00    +0.000 C 
ATOM      8  S   UNL     1       1.351  12.302  18.943  0.00  0.00    +0.000 S 
BRANCH   7  16
ATOM      9  C   UNL     1      -2.986  10.192  14.746  0.00  0.00    +0.000 C 
ATOM     10  C   UNL     1      -3.206  10.729  16.126  0.00  0.00    +0.000 A 
ATOM     11  C   UNL     1      -4.451  11.158  16.567  0.00  0.00    +0.000 A 
ATOM     12  C   UNL     1      -4.564  11.644  17.866  0.00  0.00    +0.000 A 
ATOM     13  C   UNL     1      -5.894  12.130  18.366  0.00  0.00    +0.000 C 
ATOM     14  N   UNL     1      -3.507  11.716  18.723  0.00  0.00    +0.000 NA
ATOM     15  C   UNL     1      -2.295  11.297  18.285  0.00  0.00    +0.000 A 
ATOM     16  N   UNL     1      -1.266  11.432  19.232  0.00  0.00    +0.000 N 
ATOM     17  C   UNL     1      -2.123  10.809  17.002  0.00  0.00    +0.000 A 
ATOM     18  H   UNL     1      -1.611  11.883  20.068  0.00  0.00    +0.000 HD
ENDBRANCH   7  16
ENDBRANCH   1   7
BRANCH   4  19
ATOM     19  N   UNL     1       1.155   6.493  20.027  0.00  0.00    +0.000 N 
ATOM     20  H   UNL     1       0.288   6.703  19.540  0.00  0.00    +0.000 HD
BRANCH  19  21
ATOM     21  C   UNL     1       1.555   5.173  19.871  0.00  0.00    +0.000 A 
ATOM     22  C   UNL     1       1.183   4.252  20.862  0.00  0.00    +0.000 A 
ATOM     23  C   UNL     1       1.590   2.917  20.811  0.00  0.00    +0.000 A 
ATOM     24  C   UNL     1       2.395   2.479  19.765  0.00  0.00    +0.000 A 
ATOM     25  C   UNL     1       2.812   3.378  18.777  0.00  0.00    +0.000 A 
ATOM     26  C   UNL     1       2.400   4.723  18.854  0.00  0.00    +0.000 A 
BRANCH  25  27
ATOM     27  C   UNL     1       3.679   2.939  17.627  0.00  0.00    +0.000 C 
ATOM     28  F   UNL     1       4.939   3.458  17.661  0.00  0.00    +0.000 F 
ATOM     29  F   UNL     1       3.836   1.586  17.584  0.00  0.00    +0.000 F 
ATOM     30  F   UNL     1       3.163   3.291  16.417  0.00  0.00    +0.000 F 
ENDBRANCH  25  27
ENDBRANCH  19  21
ENDBRANCH   4  19
TORSDOF 5
ENDMDL
