MODEL 1
REMARK VINA RESULT:      -8.8      0.000      0.000
REMARK  Name = 
REMARK  7 active torsions:
REMARK  status: ('A' for Active; 'I' for Inactive)
REMARK    1  A    between atoms: C_1  and  C_2
REMARK    2  A    between atoms: C_2  and  S_3
REMARK    3  A    between atoms: C_2  and  C_10
REMARK    4  A    between atoms: S_3  and  C_4
REMARK    5  A    between atoms: N_8  and  C_9
REMARK    6  A    between atoms: C_14  and  N_15
REMARK    7  A    between atoms: C_16  and  C_18
REMARK                            x       y       z     vdW  Elec       q    Type
REMARK                         _______ _______ _______ _____ _____    ______ ____
ROOT
ATOM      1  C   UNL     1       6.369   6.281  17.419  0.00  0.00    +0.000 A 
ATOM      2  C   UNL     1       6.929   5.473  18.420  0.00  0.00    +0.000 A 
ATOM      3  C   UNL     1       7.981   5.939  19.198  0.00  0.00    +0.000 A 
ATOM      4  C   UNL     1       8.483   7.226  19.007  0.00  0.00    +0.000 A 
ATOM      5  C   UNL     1       7.952   8.089  18.036  0.00  0.00    +0.000 A 
ATOM      6  C   UNL     1       6.877   7.603  17.261  0.00  0.00    +0.000 A 
ENDROOT
BRANCH   5   7
ATOM      7  N   UNL     1       8.467   9.412  17.811  0.00  0.00    +0.000 N 
ATOM      8  C   UNL     1       9.078  10.212  18.777  0.00  0.00    +0.000 C 
ATOM      9  O   UNL     1       9.241   9.885  19.956  0.00  0.00    +0.000 OA
ATOM     10  H   UNL     1       8.388   9.805  16.879  0.00  0.00    +0.000 HD
BRANCH   8  11
ATOM     11  C   UNL     1       9.582  11.585  18.417  0.00  0.00    +0.000 A 
ATOM     12  C   UNL     1      10.687  11.625  17.563  0.00  0.00    +0.000 A 
ATOM     13  C   UNL     1      11.207  12.844  17.162  0.00  0.00    +0.000 A 
ATOM     14  C   UNL     1      10.560  14.009  17.545  0.00  0.00    +0.000 A 
ATOM     15  C   UNL     1      11.019  15.237  17.043  0.00  0.00    +0.000 A 
ATOM     16  C   UNL     1      10.292  16.395  17.273  0.00  0.00    +0.000 A 
ATOM     17  C   UNL     1       9.141  16.317  18.047  0.00  0.00    +0.000 A 
ATOM     18 CL   UNL     1       8.178  17.731  18.250  0.00  0.00    +0.000 Cl
ATOM     19  C   UNL     1       8.731  15.101  18.618  0.00  0.00    +0.000 A 
ATOM     20  C   UNL     1       9.409  13.907  18.373  0.00  0.00    +0.000 A 
ATOM     21  N   UNL     1       8.948  12.709  18.851  0.00  0.00    +0.000 NA
ENDBRANCH   8  11
ENDBRANCH   5   7
BRANCH   1  23
ATOM     22  C   UNL     1       4.906   6.725  15.363  0.00  0.00    +0.000 C 
ATOM     23  C   UNL     1       5.289   5.729  16.475  0.00  0.00    +0.000 C 
BRANCH  23  24
ATOM     24  S   UNL     1       5.788   4.133  15.698  0.00  0.00    +0.000 S 
BRANCH  24  25
ATOM     25  C   UNL     1       6.804   4.701  14.405  0.00  0.00    +0.000 A 
ATOM     26  N   UNL     1       7.816   5.527  14.523  0.00  0.00    +0.000 NA
ATOM     27  N   UNL     1       8.388   5.680  13.280  0.00  0.00    +0.000 NA
ATOM     28  C   UNL     1       7.706   4.940  12.437  0.00  0.00    +0.000 A 
ATOM     29  N   UNL     1       6.693   4.303  13.097  0.00  0.00    +0.000 N 
ATOM     30  C   UNL     1       5.750   3.406  12.493  0.00  0.00    +0.000 C 
ENDBRANCH  24  25
ENDBRANCH  23  24
ENDBRANCH   1  23
TORSDOF 5
ENDMDL
MODEL 2
REMARK VINA RESULT:      -8.8      8.291      9.381
REMARK  Name = 
REMARK  7 active torsions:
REMARK  status: ('A' for Active; 'I' for Inactive)
REMARK    1  A    between atoms: C_1  and  C_2
REMARK    2  A    between atoms: C_2  and  S_3
REMARK    3  A    between atoms: C_2  and  C_10
REMARK    4  A    between atoms: S_3  and  C_4
REMARK    5  A    between atoms: N_8  and  C_9
REMARK    6  A    between atoms: C_14  and  N_15
REMARK    7  A    between atoms: C_16  and  C_18
REMARK                            x       y       z     vdW  Elec       q    Type
REMARK                         _______ _______ _______ _____ _____    ______ ____
ROOT
ATOM      1  C   UNL     1       2.656   6.617  19.442  0.00  0.00    +0.000 A 
ATOM      2  C   UNL     1       2.808   6.904  18.076  0.00  0.00    +0.000 A 
ATOM      3  C   UNL     1       2.279   8.070  17.537  0.00  0.00    +0.000 A 
ATOM      4  C   UNL     1       1.606   8.981  18.351  0.00  0.00    +0.000 A 
ATOM      5  C   UNL     1       1.441   8.761  19.726  0.00  0.00    +0.000 A 
ATOM      6  C   UNL     1       1.992   7.576  20.260  0.00  0.00    +0.000 A 
ENDROOT
BRANCH   5   7
ATOM      7  N   UNL     1       0.734   9.678  20.579  0.00  0.00    +0.000 N 
ATOM      8  C   UNL     1       0.836  11.068  20.521  0.00  0.00    +0.000 C 
ATOM      9  O   UNL     1       1.559  11.686  19.735  0.00  0.00    +0.000 OA
ATOM     10  H   UNL     1       0.109   9.296  21.279  0.00  0.00    +0.000 HD
BRANCH   8  11
ATOM     11  C   UNL     1       0.039  11.927  21.470  0.00  0.00    +0.000 A 
ATOM     12  C   UNL     1       0.412  13.271  21.537  0.00  0.00    +0.000 A 
ATOM     13  C   UNL     1      -0.277  14.139  22.366  0.00  0.00    +0.000 A 
ATOM     14  C   UNL     1      -1.389  13.673  23.050  0.00  0.00    +0.000 A 
ATOM     15  C   UNL     1      -2.154  14.582  23.800  0.00  0.00    +0.000 A 
ATOM     16  C   UNL     1      -3.359  14.179  24.354  0.00  0.00    +0.000 A 
ATOM     17  C   UNL     1      -3.760  12.858  24.194  0.00  0.00    +0.000 A 
ATOM     18 CL   UNL     1      -5.303  12.379  24.789  0.00  0.00    +0.000 Cl
ATOM     19  C   UNL     1      -2.950  11.932  23.516  0.00  0.00    +0.000 A 
ATOM     20  C   UNL     1      -1.754  12.307  22.906  0.00  0.00    +0.000 A 
ATOM     21  N   UNL     1      -1.019  11.422  22.163  0.00  0.00    +0.000 NA
ENDBRANCH   8  11
ENDBRANCH   5   7
BRANCH   1  23
ATOM     22  C   UNL     1       2.031   4.548  20.818  0.00  0.00    +0.000 C 
ATOM     23  C   UNL     1       3.132   5.275  20.020  0.00  0.00    +0.000 C 
BRANCH  23  24
ATOM     24  S   UNL     1       3.770   4.138  18.716  0.00  0.00    +0.000 S 
BRANCH  24  25
ATOM     25  C   UNL     1       5.448   4.596  18.674  0.00  0.00    +0.000 A 
ATOM     26  N   UNL     1       6.174   4.968  19.701  0.00  0.00    +0.000 NA
ATOM     27  N   UNL     1       7.458   5.192  19.257  0.00  0.00    +0.000 NA
ATOM     28  C   UNL     1       7.478   4.948  17.967  0.00  0.00    +0.000 A 
ATOM     29  N   UNL     1       6.233   4.571  17.549  0.00  0.00    +0.000 N 
ATOM     30  C   UNL     1       5.885   4.221  16.202  0.00  0.00    +0.000 C 
ENDBRANCH  24  25
ENDBRANCH  23  24
ENDBRANCH   1  23
TORSDOF 5
ENDMDL
MODEL 3
REMARK VINA RESULT:      -8.7      5.685      6.824
REMARK  Name = 
REMARK  7 active torsions:
REMARK  status: ('A' for Active; 'I' for Inactive)
REMARK    1  A    between atoms: C_1  and  C_2
REMARK    2  A    between atoms: C_2  and  S_3
REMARK    3  A    between atoms: C_2  and  C_10
REMARK    4  A    between atoms: S_3  and  C_4
REMARK    5  A    between atoms: N_8  and  C_9
REMARK    6  A    between atoms: C_14  and  N_15
REMARK    7  A    between atoms: C_16  and  C_18
REMARK                            x       y       z     vdW  Elec       q    Type
REMARK                         _______ _______ _______ _____ _____    ______ ____
ROOT
ATOM      1  C   UNL     1       4.411   5.227  17.241  0.00  0.00    +0.000 A 
ATOM      2  C   UNL     1       3.621   4.066  17.208  0.00  0.00    +0.000 A 
ATOM      3  C   UNL     1       2.360   4.054  17.789  0.00  0.00    +0.000 A 
ATOM      4  C   UNL     1       1.852   5.202  18.397  0.00  0.00    +0.000 A 
ATOM      5  C   UNL     1       2.584   6.397  18.445  0.00  0.00    +0.000 A 
ATOM      6  C   UNL     1       3.861   6.396  17.842  0.00  0.00    +0.000 A 
ENDROOT
BRANCH   5   7
ATOM      7  N   UNL     1       2.087   7.585  19.084  0.00  0.00    +0.000 N 
ATOM      8  C   UNL     1       1.829   8.796  18.439  0.00  0.00    +0.000 C 
ATOM      9  O   UNL     1       2.009   9.001  17.236  0.00  0.00    +0.000 OA
ATOM     10  H   UNL     1       1.904   7.552  20.081  0.00  0.00    +0.000 HD
BRANCH   8  11
ATOM     11  C   UNL     1       1.304   9.974  19.220  0.00  0.00    +0.000 A 
ATOM     12  C   UNL     1       0.811   9.690  20.495  0.00  0.00    +0.000 A 
ATOM     13  C   UNL     1       0.328  10.713  21.292  0.00  0.00    +0.000 A 
ATOM     14  C   UNL     1       0.427  12.020  20.841  0.00  0.00    +0.000 A 
ATOM     15  C   UNL     1       0.042  13.065  21.698  0.00  0.00    +0.000 A 
ATOM     16  C   UNL     1       0.287  14.381  21.337  0.00  0.00    +0.000 A 
ATOM     17  C   UNL     1       0.868  14.638  20.101  0.00  0.00    +0.000 A 
ATOM     18 CL   UNL     1       1.270  16.262  19.693  0.00  0.00    +0.000 Cl
ATOM     19  C   UNL     1       1.173  13.594  19.212  0.00  0.00    +0.000 A 
ATOM     20  C   UNL     1       0.984  12.255  19.555  0.00  0.00    +0.000 A 
ATOM     21  N   UNL     1       1.375  11.240  18.724  0.00  0.00    +0.000 NA
ENDBRANCH   8  11
ENDBRANCH   5   7
BRANCH   1  23
ATOM     22  C   UNL     1       6.903   5.204  17.838  0.00  0.00    +0.000 C 
ATOM     23  C   UNL     1       5.852   5.212  16.709  0.00  0.00    +0.000 C 
BRANCH  23  24
ATOM     24  S   UNL     1       6.171   3.781  15.591  0.00  0.00    +0.000 S 
BRANCH  24  25
ATOM     25  C   UNL     1       6.991   4.570  14.274  0.00  0.00    +0.000 A 
ATOM     26  N   UNL     1       7.900   5.509  14.382  0.00  0.00    +0.000 NA
ATOM     27  N   UNL     1       8.337   5.827  13.115  0.00  0.00    +0.000 NA
ATOM     28  C   UNL     1       7.678   5.069  12.268  0.00  0.00    +0.000 A 
ATOM     29  N   UNL     1       6.814   4.259  12.950  0.00  0.00    +0.000 N 
ATOM     30  C   UNL     1       5.938   3.295  12.348  0.00  0.00    +0.000 C 
ENDBRANCH  24  25
ENDBRANCH  23  24
ENDBRANCH   1  23
TORSDOF 5
ENDMDL
MODEL 4
REMARK VINA RESULT:      -8.6      8.077     10.883
REMARK  Name = 
REMARK  7 active torsions:
REMARK  status: ('A' for Active; 'I' for Inactive)
REMARK    1  A    between atoms: C_1  and  C_2
REMARK    2  A    between atoms: C_2  and  S_3
REMARK    3  A    between atoms: C_2  and  C_10
REMARK    4  A    between atoms: S_3  and  C_4
REMARK    5  A    between atoms: N_8  and  C_9
REMARK    6  A    between atoms: C_14  and  N_15
REMARK    7  A    between atoms: C_16  and  C_18
REMARK                            x       y       z     vdW  Elec       q    Type
REMARK                         _______ _______ _______ _____ _____    ______ ____
ROOT
ATOM      1  C   UNL     1      -0.452  11.122  20.841  0.00  0.00    +0.000 A 
ATOM      2  C   UNL     1      -0.692  11.045  22.222  0.00  0.00    +0.000 A 
ATOM      3  C   UNL     1      -0.199   9.981  22.966  0.00  0.00    +0.000 A 
ATOM      4  C   UNL     1       0.558   8.983  22.352  0.00  0.00    +0.000 A 
ATOM      5  C   UNL     1       0.849   9.015  20.980  0.00  0.00    +0.000 A 
ATOM      6  C   UNL     1       0.349  10.108  20.241  0.00  0.00    +0.000 A 
ENDROOT
BRANCH   5   7
ATOM      7  N   UNL     1       1.611   7.987  20.326  0.00  0.00    +0.000 N 
ATOM      8  C   UNL     1       2.075   8.044  19.011  0.00  0.00    +0.000 C 
ATOM      9  O   UNL     1       1.876   8.985  18.239  0.00  0.00    +0.000 OA
ATOM     10  H   UNL     1       1.837   7.149  20.852  0.00  0.00    +0.000 HD
BRANCH   8  11
ATOM     11  C   UNL     1       2.870   6.900  18.437  0.00  0.00    +0.000 A 
ATOM     12  C   UNL     1       2.418   5.619  18.763  0.00  0.00    +0.000 A 
ATOM     13  C   UNL     1       3.074   4.507  18.263  0.00  0.00    +0.000 A 
ATOM     14  C   UNL     1       4.118   4.689  17.369  0.00  0.00    +0.000 A 
ATOM     15  C   UNL     1       4.707   3.560  16.775  0.00  0.00    +0.000 A 
ATOM     16  C   UNL     1       5.634   3.719  15.757  0.00  0.00    +0.000 A 
ATOM     17  C   UNL     1       6.000   5.007  15.381  0.00  0.00    +0.000 A 
ATOM     18 CL   UNL     1       7.072   5.211  14.049  0.00  0.00    +0.000 Cl
ATOM     19  C   UNL     1       5.472   6.130  16.037  0.00  0.00    +0.000 A 
ATOM     20  C   UNL     1       4.504   6.015  17.033  0.00  0.00    +0.000 A 
ATOM     21  N   UNL     1       3.921   7.117  17.599  0.00  0.00    +0.000 NA
ENDBRANCH   8  11
ENDBRANCH   5   7
BRANCH   1  23
ATOM     22  C   UNL     1      -0.367  13.582  20.128  0.00  0.00    +0.000 C 
ATOM     23  C   UNL     1      -1.096  12.230  19.992  0.00  0.00    +0.000 C 
BRANCH  23  24
ATOM     24  S   UNL     1      -1.186  11.781  18.206  0.00  0.00    +0.000 S 
BRANCH  24  25
ATOM     25  C   UNL     1      -2.907  11.632  17.993  0.00  0.00    +0.000 A 
ATOM     26  N   UNL     1      -3.823  11.901  18.891  0.00  0.00    +0.000 NA
ATOM     27  N   UNL     1      -5.058  11.707  18.313  0.00  0.00    +0.000 NA
ATOM     28  C   UNL     1      -4.857  11.324  17.073  0.00  0.00    +0.000 A 
ATOM     29  N   UNL     1      -3.515  11.258  16.822  0.00  0.00    +0.000 N 
ATOM     30  C   UNL     1      -2.928  10.882  15.568  0.00  0.00    +0.000 C 
ENDBRANCH  24  25
ENDBRANCH  23  24
ENDBRANCH   1  23
TORSDOF 5
ENDMDL
MODEL 5
REMARK VINA RESULT:      -8.6      8.344      9.452
REMARK  Name = 
REMARK  7 active torsions:
REMARK  status: ('A' for Active; 'I' for Inactive)
REMARK    1  A    between atoms: C_1  and  C_2
REMARK    2  A    between atoms: C_2  and  S_3
REMARK    3  A    between atoms: C_2  and  C_10
REMARK    4  A    between atoms: S_3  and  C_4
REMARK    5  A    between atoms: N_8  and  C_9
REMARK    6  A    between atoms: C_14  and  N_15
REMARK    7  A    between atoms: C_16  and  C_18
REMARK                            x       y       z     vdW  Elec       q    Type
REMARK                         _______ _______ _______ _____ _____    ______ ____
ROOT
ATOM      1  C   UNL     1       2.390   7.311  19.407  0.00  0.00    +0.000 A 
ATOM      2  C   UNL     1       2.717   7.774  18.123  0.00  0.00    +0.000 A 
ATOM      3  C   UNL     1       2.220   8.987  17.662  0.00  0.00    +0.000 A 
ATOM      4  C   UNL     1       1.404   9.771  18.479  0.00  0.00    +0.000 A 
ATOM      5  C   UNL     1       1.060   9.372  19.779  0.00  0.00    +0.000 A 
ATOM      6  C   UNL     1       1.580   8.141  20.235  0.00  0.00    +0.000 A 
ENDROOT
BRANCH   5   7
ATOM      7  N   UNL     1       0.206  10.156  20.629  0.00  0.00    +0.000 N 
ATOM      8  C   UNL     1       0.413  11.495  20.959  0.00  0.00    +0.000 C 
ATOM      9  O   UNL     1       1.368  12.174  20.571  0.00  0.00    +0.000 OA
ATOM     10  H   UNL     1      -0.616   9.711  21.024  0.00  0.00    +0.000 HD
BRANCH   8  11
ATOM     11  C   UNL     1      -0.559  12.213  21.861  0.00  0.00    +0.000 A 
ATOM     12  C   UNL     1      -1.766  11.554  22.104  0.00  0.00    +0.000 A 
ATOM     13  C   UNL     1      -2.711  12.128  22.937  0.00  0.00    +0.000 A 
ATOM     14  C   UNL     1      -2.400  13.311  23.590  0.00  0.00    +0.000 A 
ATOM     15  C   UNL     1      -3.313  13.832  24.522  0.00  0.00    +0.000 A 
ATOM     16  C   UNL     1      -2.956  14.916  25.309  0.00  0.00    +0.000 A 
ATOM     17  C   UNL     1      -1.709  15.499  25.116  0.00  0.00    +0.000 A 
ATOM     18 CL   UNL     1      -1.219  16.779  26.160  0.00  0.00    +0.000 Cl
ATOM     19  C   UNL     1      -0.833  15.028  24.124  0.00  0.00    +0.000 A 
ATOM     20  C   UNL     1      -1.136  13.912  23.344  0.00  0.00    +0.000 A 
ATOM     21  N   UNL     1      -0.237  13.398  22.448  0.00  0.00    +0.000 NA
ENDBRANCH   8  11
ENDBRANCH   5   7
BRANCH   1  23
ATOM     22  C   UNL     1       1.766   5.207  20.729  0.00  0.00    +0.000 C 
ATOM     23  C   UNL     1       2.835   5.917  19.876  0.00  0.00    +0.000 C 
BRANCH  23  24
ATOM     24  S   UNL     1       3.298   4.819  18.468  0.00  0.00    +0.000 S 
BRANCH  24  25
ATOM     25  C   UNL     1       5.034   4.925  18.527  0.00  0.00    +0.000 A 
ATOM     26  N   UNL     1       5.750   5.315  19.554  0.00  0.00    +0.000 NA
ATOM     27  N   UNL     1       7.080   5.203  19.214  0.00  0.00    +0.000 NA
ATOM     28  C   UNL     1       7.136   4.746  17.984  0.00  0.00    +0.000 A 
ATOM     29  N   UNL     1       5.870   4.556  17.505  0.00  0.00    +0.000 N 
ATOM     30  C   UNL     1       5.549   4.058  16.197  0.00  0.00    +0.000 C 
ENDBRANCH  24  25
ENDBRANCH  23  24
ENDBRANCH   1  23
TORSDOF 5
ENDMDL
MODEL 6
REMARK VINA RESULT:      -8.4      9.267     11.850
REMARK  Name = 
REMARK  7 active torsions:
REMARK  status: ('A' for Active; 'I' for Inactive)
REMARK    1  A    between atoms: C_1  and  C_2
REMARK    2  A    between atoms: C_2  and  S_3
REMARK    3  A    between atoms: C_2  and  C_10
REMARK    4  A    between atoms: S_3  and  C_4
REMARK    5  A    between atoms: N_8  and  C_9
REMARK    6  A    between atoms: C_14  and  N_15
REMARK    7  A    between atoms: C_16  and  C_18
REMARK                            x       y       z     vdW  Elec       q    Type
REMARK                         _______ _______ _______ _____ _____    ______ ____
ROOT
ATOM      1  C   UNL     1      -2.122  11.389  18.609  0.00  0.00    +0.000 A 
ATOM      2  C   UNL     1      -2.111  12.199  19.756  0.00  0.00    +0.000 A 
ATOM      3  C   UNL     1      -1.173  11.991  20.759  0.00  0.00    +0.000 A 
ATOM      4  C   UNL     1      -0.215  10.985  20.631  0.00  0.00    +0.000 A 
ATOM      5  C   UNL     1      -0.161  10.157  19.500  0.00  0.00    +0.000 A 
ATOM      6  C   UNL     1      -1.116  10.387  18.486  0.00  0.00    +0.000 A 
ENDROOT
BRANCH   5   7
ATOM      7  N   UNL     1       0.805   9.102  19.357  0.00  0.00    +0.000 N 
ATOM      8  C   UNL     1       1.750   9.011  18.334  0.00  0.00    +0.000 C 
ATOM      9  O   UNL     1       1.864   9.823  17.412  0.00  0.00    +0.000 OA
ATOM     10  H   UNL     1       0.812   8.362  20.050  0.00  0.00    +0.000 HD
BRANCH   8  11
ATOM     11  C   UNL     1       2.716   7.855  18.295  0.00  0.00    +0.000 A 
ATOM     12  C   UNL     1       2.552   6.888  19.289  0.00  0.00    +0.000 A 
ATOM     13  C   UNL     1       3.380   5.780  19.318  0.00  0.00    +0.000 A 
ATOM     14  C   UNL     1       4.305   5.605  18.300  0.00  0.00    +0.000 A 
ATOM     15  C   UNL     1       5.065   4.425  18.268  0.00  0.00    +0.000 A 
ATOM     16  C   UNL     1       5.871   4.150  17.175  0.00  0.00    +0.000 A 
ATOM     17  C   UNL     1       5.946   5.084  16.149  0.00  0.00    +0.000 A 
ATOM     18 CL   UNL     1       6.863   4.702  14.742  0.00  0.00    +0.000 Cl
ATOM     19  C   UNL     1       5.250   6.302  16.225  0.00  0.00    +0.000 A 
ATOM     20  C   UNL     1       4.394   6.596  17.285  0.00  0.00    +0.000 A 
ATOM     21  N   UNL     1       3.643   7.741  17.304  0.00  0.00    +0.000 NA
ENDBRANCH   8  11
ENDBRANCH   5   7
BRANCH   1  23
ATOM     22  C   UNL     1      -2.796  11.033  16.163  0.00  0.00    +0.000 C 
ATOM     23  C   UNL     1      -3.230  11.534  17.555  0.00  0.00    +0.000 C 
BRANCH  23  24
ATOM     24  S   UNL     1      -4.780  10.663  18.043  0.00  0.00    +0.000 S 
BRANCH  24  25
ATOM     25  C   UNL     1      -5.946  11.942  17.860  0.00  0.00    +0.000 A 
ATOM     26  N   UNL     1      -5.972  12.832  16.897  0.00  0.00    +0.000 NA
ATOM     27  N   UNL     1      -7.078  13.630  17.084  0.00  0.00    +0.000 NA
ATOM     28  C   UNL     1      -7.698  13.201  18.159  0.00  0.00    +0.000 A 
ATOM     29  N   UNL     1      -7.022  12.138  18.688  0.00  0.00    +0.000 N 
ATOM     30  C   UNL     1      -7.414  11.411  19.861  0.00  0.00    +0.000 C 
ENDBRANCH  24  25
ENDBRANCH  23  24
ENDBRANCH   1  23
TORSDOF 5
ENDMDL
MODEL 7
REMARK VINA RESULT:      -8.4      6.802      8.071
REMARK  Name = 
REMARK  7 active torsions:
REMARK  status: ('A' for Active; 'I' for Inactive)
REMARK    1  A    between atoms: C_1  and  C_2
REMARK    2  A    between atoms: C_2  and  S_3
REMARK    3  A    between atoms: C_2  and  C_10
REMARK    4  A    between atoms: S_3  and  C_4
REMARK    5  A    between atoms: N_8  and  C_9
REMARK    6  A    between atoms: C_14  and  N_15
REMARK    7  A    between atoms: C_16  and  C_18
REMARK                            x       y       z     vdW  Elec       q    Type
REMARK                         _______ _______ _______ _____ _____    ______ ____
ROOT
ATOM      1  C   UNL     1       4.532   5.738  17.657  0.00  0.00    +0.000 A 
ATOM      2  C   UNL     1       4.302   4.582  18.420  0.00  0.00    +0.000 A 
ATOM      3  C   UNL     1       3.297   4.558  19.379  0.00  0.00    +0.000 A 
ATOM      4  C   UNL     1       2.490   5.677  19.583  0.00  0.00    +0.000 A 
ATOM      5  C   UNL     1       2.657   6.853  18.837  0.00  0.00    +0.000 A 
ATOM      6  C   UNL     1       3.676   6.859  17.861  0.00  0.00    +0.000 A 
ENDROOT
BRANCH   5   7
ATOM      7  N   UNL     1       1.848   8.023  19.045  0.00  0.00    +0.000 N 
ATOM      8  C   UNL     1       1.335   8.437  20.275  0.00  0.00    +0.000 C 
ATOM      9  O   UNL     1       1.502   7.839  21.341  0.00  0.00    +0.000 OA
ATOM     10  H   UNL     1       1.627   8.602  18.242  0.00  0.00    +0.000 HD
BRANCH   8  11
ATOM     11  C   UNL     1       0.499   9.688  20.366  0.00  0.00    +0.000 A 
ATOM     12  C   UNL     1       0.210  10.319  19.154  0.00  0.00    +0.000 A 
ATOM     13  C   UNL     1      -0.568  11.463  19.139  0.00  0.00    +0.000 A 
ATOM     14  C   UNL     1      -1.125  11.912  20.326  0.00  0.00    +0.000 A 
ATOM     15  C   UNL     1      -2.007  13.005  20.292  0.00  0.00    +0.000 A 
ATOM     16  C   UNL     1      -2.705  13.367  21.433  0.00  0.00    +0.000 A 
ATOM     17  C   UNL     1      -2.473  12.663  22.609  0.00  0.00    +0.000 A 
ATOM     18 CL   UNL     1      -3.413  13.041  24.003  0.00  0.00    +0.000 Cl
ATOM     19  C   UNL     1      -1.528  11.627  22.659  0.00  0.00    +0.000 A 
ATOM     20  C   UNL     1      -0.838  11.202  21.524  0.00  0.00    +0.000 A 
ATOM     21  N   UNL     1       0.009  10.127  21.558  0.00  0.00    +0.000 NA
ENDBRANCH   8  11
ENDBRANCH   5   7
BRANCH   1  23
ATOM     22  C   UNL     1       7.016   6.292  17.360  0.00  0.00    +0.000 C 
ATOM     23  C   UNL     1       5.717   5.813  16.682  0.00  0.00    +0.000 C 
BRANCH  23  24
ATOM     24  S   UNL     1       6.042   4.199  15.850  0.00  0.00    +0.000 S 
BRANCH  24  25
ATOM     25  C   UNL     1       6.895   4.729  14.428  0.00  0.00    +0.000 A 
ATOM     26  N   UNL     1       7.906   5.564  14.400  0.00  0.00    +0.000 NA
ATOM     27  N   UNL     1       8.327   5.679  13.094  0.00  0.00    +0.000 NA
ATOM     28  C   UNL     1       7.557   4.907  12.361  0.00  0.00    +0.000 A 
ATOM     29  N   UNL     1       6.635   4.288  13.156  0.00  0.00    +0.000 N 
ATOM     30  C   UNL     1       5.635   3.366  12.696  0.00  0.00    +0.000 C 
ENDBRANCH  24  25
ENDBRANCH  23  24
ENDBRANCH   1  23
TORSDOF 5
ENDMDL
MODEL 8
REMARK VINA RESULT:      -8.4      8.893     11.761
REMARK  Name = 
REMARK  7 active torsions:
REMARK  status: ('A' for Active; 'I' for Inactive)
REMARK    1  A    between atoms: C_1  and  C_2
REMARK    2  A    between atoms: C_2  and  S_3
REMARK    3  A    between atoms: C_2  and  C_10
REMARK    4  A    between atoms: S_3  and  C_4
REMARK    5  A    between atoms: N_8  and  C_9
REMARK    6  A    between atoms: C_14  and  N_15
REMARK    7  A    between atoms: C_16  and  C_18
REMARK                            x       y       z     vdW  Elec       q    Type
REMARK                         _______ _______ _______ _____ _____    ______ ____
ROOT
ATOM      1  C   UNL     1      -1.336  11.391  18.259  0.00  0.00    +0.000 A 
ATOM      2  C   UNL     1      -0.736  12.487  18.900  0.00  0.00    +0.000 A 
ATOM      3  C   UNL     1       0.621  12.475  19.196  0.00  0.00    +0.000 A 
ATOM      4  C   UNL     1       1.411  11.381  18.843  0.00  0.00    +0.000 A 
ATOM      5  C   UNL     1       0.874  10.266  18.183  0.00  0.00    +0.000 A 
ATOM      6  C   UNL     1      -0.505  10.297  17.881  0.00  0.00    +0.000 A 
ENDROOT
BRANCH   5   7
ATOM      7  N   UNL     1       1.666   9.121  17.827  0.00  0.00    +0.000 N 
ATOM      8  C   UNL     1       2.052   8.107  18.705  0.00  0.00    +0.000 C 
ATOM      9  O   UNL     1       1.769   8.074  19.905  0.00  0.00    +0.000 OA
ATOM     10  H   UNL     1       1.974   9.031  16.865  0.00  0.00    +0.000 HD
BRANCH   8  11
ATOM     11  C   UNL     1       2.884   6.951  18.210  0.00  0.00    +0.000 A 
ATOM     12  C   UNL     1       2.451   5.680  18.593  0.00  0.00    +0.000 A 
ATOM     13  C   UNL     1       3.141   4.558  18.168  0.00  0.00    +0.000 A 
ATOM     14  C   UNL     1       4.203   4.715  17.291  0.00  0.00    +0.000 A 
ATOM     15  C   UNL     1       4.830   3.570  16.770  0.00  0.00    +0.000 A 
ATOM     16  C   UNL     1       5.778   3.696  15.768  0.00  0.00    +0.000 A 
ATOM     17  C   UNL     1       6.126   4.969  15.333  0.00  0.00    +0.000 A 
ATOM     18 CL   UNL     1       7.226   5.126  14.017  0.00  0.00    +0.000 Cl
ATOM     19  C   UNL     1       5.559   6.114  15.916  0.00  0.00    +0.000 A 
ATOM     20  C   UNL     1       4.569   6.030  16.894  0.00  0.00    +0.000 A 
ATOM     21  N   UNL     1       3.950   7.148  17.387  0.00  0.00    +0.000 NA
ENDBRANCH   8  11
ENDBRANCH   5   7
BRANCH   1  23
ATOM     22  C   UNL     1      -3.375   9.920  17.767  0.00  0.00    +0.000 C 
ATOM     23  C   UNL     1      -2.856  11.346  18.038  0.00  0.00    +0.000 C 
BRANCH  23  24
ATOM     24  S   UNL     1      -3.791  12.058  19.459  0.00  0.00    +0.000 S 
BRANCH  24  25
ATOM     25  C   UNL     1      -5.354  12.300  18.734  0.00  0.00    +0.000 A 
ATOM     26  N   UNL     1      -5.595  12.479  17.457  0.00  0.00    +0.000 NA
ATOM     27  N   UNL     1      -6.958  12.577  17.289  0.00  0.00    +0.000 NA
ATOM     28  C   UNL     1      -7.511  12.456  18.474  0.00  0.00    +0.000 A 
ATOM     29  N   UNL     1      -6.541  12.281  19.421  0.00  0.00    +0.000 N 
ATOM     30  C   UNL     1      -6.780  12.107  20.825  0.00  0.00    +0.000 C 
ENDBRANCH  24  25
ENDBRANCH  23  24
ENDBRANCH   1  23
TORSDOF 5
ENDMDL
MODEL 9
REMARK VINA RESULT:      -8.3      6.067      7.897
REMARK  Name = 
REMARK  7 active torsions:
REMARK  status: ('A' for Active; 'I' for Inactive)
REMARK    1  A    between atoms: C_1  and  C_2
REMARK    2  A    between atoms: C_2  and  S_3
REMARK    3  A    between atoms: C_2  and  C_10
REMARK    4  A    between atoms: S_3  and  C_4
REMARK    5  A    between atoms: N_8  and  C_9
REMARK    6  A    between atoms: C_14  and  N_15
REMARK    7  A    between atoms: C_16  and  C_18
REMARK                            x       y       z     vdW  Elec       q    Type
REMARK                         _______ _______ _______ _____ _____    ______ ____
ROOT
ATOM      1  C   UNL     1       4.526   4.151  16.810  0.00  0.00    +0.000 A 
ATOM      2  C   UNL     1       3.891   3.014  17.333  0.00  0.00    +0.000 A 
ATOM      3  C   UNL     1       2.775   3.142  18.151  0.00  0.00    +0.000 A 
ATOM      4  C   UNL     1       2.259   4.404  18.447  0.00  0.00    +0.000 A 
ATOM      5  C   UNL     1       2.836   5.576  17.937  0.00  0.00    +0.000 A 
ATOM      6  C   UNL     1       3.964   5.428  17.100  0.00  0.00    +0.000 A 
ENDROOT
BRANCH   5   7
ATOM      7  N   UNL     1       2.331   6.886  18.245  0.00  0.00    +0.000 N 
ATOM      8  C   UNL     1       2.027   7.348  19.526  0.00  0.00    +0.000 C 
ATOM      9  O   UNL     1       2.143   6.682  20.558  0.00  0.00    +0.000 OA
ATOM     10  H   UNL     1       2.181   7.534  17.479  0.00  0.00    +0.000 HD
BRANCH   8  11
ATOM     11  C   UNL     1       1.504   8.748  19.722  0.00  0.00    +0.000 A 
ATOM     12  C   UNL     1       1.583   9.591  18.611  0.00  0.00    +0.000 A 
ATOM     13  C   UNL     1       1.108  10.888  18.693  0.00  0.00    +0.000 A 
ATOM     14  C   UNL     1       0.477  11.301  19.856  0.00  0.00    +0.000 A 
ATOM     15  C   UNL     1      -0.106  12.578  19.896  0.00  0.00    +0.000 A 
ATOM     16  C   UNL     1      -0.885  12.949  20.981  0.00  0.00    +0.000 A 
ATOM     17  C   UNL     1      -1.030  12.056  22.036  0.00  0.00    +0.000 A 
ATOM     18 CL   UNL     1      -2.080  12.470  23.337  0.00  0.00    +0.000 Cl
ATOM     19  C   UNL     1      -0.376  10.814  22.029  0.00  0.00    +0.000 A 
ATOM     20  C   UNL     1       0.379  10.385  20.939  0.00  0.00    +0.000 A 
ATOM     21  N   UNL     1       0.932   9.133  20.897  0.00  0.00    +0.000 NA
ENDBRANCH   8  11
ENDBRANCH   5   7
BRANCH   1  23
ATOM     22  C   UNL     1       5.592   3.542  14.561  0.00  0.00    +0.000 C 
ATOM     23  C   UNL     1       5.830   4.023  16.006  0.00  0.00    +0.000 C 
BRANCH  23  24
ATOM     24  S   UNL     1       6.780   5.603  15.958  0.00  0.00    +0.000 S 
BRANCH  24  25
ATOM     25  C   UNL     1       7.368   5.681  17.594  0.00  0.00    +0.000 A 
ATOM     26  N   UNL     1       7.510   4.667  18.414  0.00  0.00    +0.000 NA
ATOM     27  N   UNL     1       8.052   5.141  19.588  0.00  0.00    +0.000 NA
ATOM     28  C   UNL     1       8.224   6.435  19.450  0.00  0.00    +0.000 A 
ATOM     29  N   UNL     1       7.806   6.826  18.209  0.00  0.00    +0.000 N 
ATOM     30  C   UNL     1       7.853   8.170  17.708  0.00  0.00    +0.000 C 
ENDBRANCH  24  25
ENDBRANCH  23  24
ENDBRANCH   1  23
TORSDOF 5
ENDMDL
