MODEL 1
REMARK VINA RESULT:      -9.9      0.000      0.000
REMARK  Name = 
REMARK  7 active torsions:
REMARK  status: ('A' for Active; 'I' for Inactive)
REMARK    1  A    between atoms: C_1  and  C_2
REMARK    2  A    between atoms: N_18  and  O_19
REMARK    3  A    between atoms: N_22  and  C_23
REMARK    4  A    between atoms: C_23  and  C_24
REMARK    5  A    between atoms: C_27  and  C_28
REMARK    6  A    between atoms: C_29  and  C_30
REMARK    7  A    between atoms: N_32  and  O_33
REMARK                            x       y       z     vdW  Elec       q    Type
REMARK                         _______ _______ _______ _____ _____    ______ ____
ROOT
ATOM      1  C   UNL     1      -5.151  11.067  17.865  0.00  0.00    +0.000 C 
ATOM      2  C   UNL     1      -3.655  11.045  17.981  0.00  0.00    +0.000 A 
ATOM      3  C   UNL     1      -2.849  10.110  17.322  0.00  0.00    +0.000 A 
ATOM      4  C   UNL     1      -1.477  10.037  17.601  0.00  0.00    +0.000 A 
ATOM      5  C   UNL     1      -0.960  10.828  18.618  0.00  0.00    +0.000 A 
ATOM      6  C   UNL     1      -1.783  11.682  19.343  0.00  0.00    +0.000 A 
ATOM      7  C   UNL     1      -3.072  11.908  18.906  0.00  0.00    +0.000 A 
ATOM      8  C   UNL     1      -1.010  12.216  20.474  0.00  0.00    +0.000 C 
ATOM      9  C   UNL     1      -1.462  12.808  21.605  0.00  0.00    +0.000 C 
ATOM     10  N   UNL     1      -0.779  13.389  22.670  0.00  0.00    +0.000 N 
ATOM     11  C   UNL     1      -1.656  14.184  23.419  0.00  0.00    +0.000 A 
ATOM     12  C   UNL     1      -1.396  14.958  24.538  0.00  0.00    +0.000 A 
ATOM     13  C   UNL     1      -2.466  15.600  25.192  0.00  0.00    +0.000 A 
ATOM     14  C   UNL     1      -3.786  15.460  24.735  0.00  0.00    +0.000 A 
ATOM     15  C   UNL     1      -4.053  14.653  23.637  0.00  0.00    +0.000 A 
ATOM     16  C   UNL     1      -2.992  14.011  23.017  0.00  0.00    +0.000 A 
ATOM     17  C   UNL     1      -2.963  13.017  21.931  0.00  0.00    +0.000 C 
ATOM     18  N   UNL     1      -3.956  12.363  21.425  0.00  0.00    +0.000 NA
ATOM     19  C   UNL     1       0.427  11.805  20.194  0.00  0.00    +0.000 C 
ATOM     20  O   UNL     1       1.407  12.151  20.831  0.00  0.00    +0.000 OA
ATOM     21  N   UNL     1       0.368  10.939  19.083  0.00  0.00    +0.000 N 
ATOM     22  H   UNL     1       0.206  13.609  22.568  0.00  0.00    +0.000 HD
ENDROOT
BRANCH  18  23
ATOM     23  O   UNL     1      -5.212  12.820  21.805  0.00  0.00    +0.000 OA
ATOM     24  H   UNL     1      -5.582  12.042  22.263  0.00  0.00    +0.000 HD
ENDBRANCH  18  23
BRANCH  21  25
ATOM     25  C   UNL     1       1.504  10.297  18.428  0.00  0.00    +0.000 C 
BRANCH  25  26
ATOM     26  C   UNL     1       1.717   8.850  18.849  0.00  0.00    +0.000 A 
ATOM     27  C   UNL     1       1.418   8.449  20.155  0.00  0.00    +0.000 A 
ATOM     28  C   UNL     1       1.733   7.158  20.601  0.00  0.00    +0.000 A 
ATOM     29  C   UNL     1       2.356   6.229  19.757  0.00  0.00    +0.000 A 
ATOM     30  C   UNL     1       2.585   6.600  18.428  0.00  0.00    +0.000 A 
ATOM     31  C   UNL     1       2.257   7.890  17.978  0.00  0.00    +0.000 A 
BRANCH  29  32
ATOM     32  C   UNL     1       2.865   4.975  20.338  0.00  0.00    +0.000 C 
ATOM     33  C   UNL     1       3.166   3.855  19.661  0.00  0.00    +0.000 C 
BRANCH  33  34
ATOM     34  C   UNL     1       3.745   2.690  20.384  0.00  0.00    +0.000 C 
ATOM     35  O   UNL     1       3.325   2.276  21.457  0.00  0.00    +0.000 OA
ATOM     36  N   UNL     1       4.820   2.132  19.746  0.00  0.00    +0.000 N 
ATOM     37  H   UNL     1       5.252   2.473  18.897  0.00  0.00    +0.000 HD
BRANCH  36  38
ATOM     38  O   UNL     1       5.473   1.070  20.412  0.00  0.00    +0.000 OA
ATOM     39  H   UNL     1       6.121   0.766  19.739  0.00  0.00    +0.000 HD
ENDBRANCH  36  38
ENDBRANCH  33  34
ENDBRANCH  29  32
ENDBRANCH  25  26
ENDBRANCH  21  25
TORSDOF 6
ENDMDL
MODEL 2
REMARK VINA RESULT:      -9.0      0.997      1.297
REMARK  Name = 
REMARK  7 active torsions:
REMARK  status: ('A' for Active; 'I' for Inactive)
REMARK    1  A    between atoms: C_1  and  C_2
REMARK    2  A    between atoms: N_18  and  O_19
REMARK    3  A    between atoms: N_22  and  C_23
REMARK    4  A    between atoms: C_23  and  C_24
REMARK    5  A    between atoms: C_27  and  C_28
REMARK    6  A    between atoms: C_29  and  C_30
REMARK    7  A    between atoms: N_32  and  O_33
REMARK                            x       y       z     vdW  Elec       q    Type
REMARK                         _______ _______ _______ _____ _____    ______ ____
ROOT
ATOM      1  C   UNL     1      -5.266  11.127  18.141  0.00  0.00    +0.000 C 
ATOM      2  C   UNL     1      -3.766  11.182  18.171  0.00  0.00    +0.000 A 
ATOM      3  C   UNL     1      -2.953  10.297  17.455  0.00  0.00    +0.000 A 
ATOM      4  C   UNL     1      -1.565  10.292  17.654  0.00  0.00    +0.000 A 
ATOM      5  C   UNL     1      -1.031  11.099  18.650  0.00  0.00    +0.000 A 
ATOM      6  C   UNL     1      -1.854  11.903  19.431  0.00  0.00    +0.000 A 
ATOM      7  C   UNL     1      -3.176  12.066  19.072  0.00  0.00    +0.000 A 
ATOM      8  C   UNL     1      -1.045  12.464  20.523  0.00  0.00    +0.000 C 
ATOM      9  C   UNL     1      -1.460  13.022  21.685  0.00  0.00    +0.000 C 
ATOM     10  N   UNL     1      -0.747  13.627  22.717  0.00  0.00    +0.000 N 
ATOM     11  C   UNL     1      -1.619  14.368  23.524  0.00  0.00    +0.000 A 
ATOM     12  C   UNL     1      -1.334  15.144  24.636  0.00  0.00    +0.000 A 
ATOM     13  C   UNL     1      -2.396  15.723  25.358  0.00  0.00    +0.000 A 
ATOM     14  C   UNL     1      -3.732  15.520  24.977  0.00  0.00    +0.000 A 
ATOM     15  C   UNL     1      -4.020  14.711  23.885  0.00  0.00    +0.000 A 
ATOM     16  C   UNL     1      -2.966  14.130  23.198  0.00  0.00    +0.000 A 
ATOM     17  C   UNL     1      -2.949  13.150  22.099  0.00  0.00    +0.000 C 
ATOM     18  N   UNL     1      -3.934  12.450  21.643  0.00  0.00    +0.000 NA
ATOM     19  C   UNL     1       0.393  12.131  20.156  0.00  0.00    +0.000 C 
ATOM     20  O   UNL     1       1.389  12.522  20.740  0.00  0.00    +0.000 OA
ATOM     21  N   UNL     1       0.314  11.274  19.038  0.00  0.00    +0.000 N 
ATOM     22  H   UNL     1       0.218  13.898  22.560  0.00  0.00    +0.000 HD
ENDROOT
BRANCH  18  23
ATOM     23  O   UNL     1      -5.188  12.838  22.100  0.00  0.00    +0.000 OA
ATOM     24  H   UNL     1      -4.993  13.693  22.528  0.00  0.00    +0.000 HD
ENDBRANCH  18  23
BRANCH  21  25
ATOM     25  C   UNL     1       1.442  10.698  18.311  0.00  0.00    +0.000 C 
BRANCH  25  26
ATOM     26  C   UNL     1       1.802   9.289  18.757  0.00  0.00    +0.000 A 
ATOM     27  C   UNL     1       2.413   8.405  17.861  0.00  0.00    +0.000 A 
ATOM     28  C   UNL     1       2.629   7.064  18.208  0.00  0.00    +0.000 A 
ATOM     29  C   UNL     1       2.242   6.566  19.458  0.00  0.00    +0.000 A 
ATOM     30  C   UNL     1       1.703   7.464  20.385  0.00  0.00    +0.000 A 
ATOM     31  C   UNL     1       1.499   8.810  20.042  0.00  0.00    +0.000 A 
BRANCH  29  32
ATOM     32  C   UNL     1       2.285   5.110  19.685  0.00  0.00    +0.000 C 
ATOM     33  C   UNL     1       1.749   4.455  20.727  0.00  0.00    +0.000 C 
BRANCH  33  34
ATOM     34  C   UNL     1       1.811   2.970  20.775  0.00  0.00    +0.000 C 
ATOM     35  O   UNL     1       1.880   2.323  21.813  0.00  0.00    +0.000 OA
ATOM     36  N   UNL     1       1.812   2.383  19.538  0.00  0.00    +0.000 N 
ATOM     37  H   UNL     1       1.826   2.867  18.649  0.00  0.00    +0.000 HD
BRANCH  36  38
ATOM     38  O   UNL     1       1.949   0.977  19.501  0.00  0.00    +0.000 OA
ATOM     39  H   UNL     1       2.915   0.864  19.364  0.00  0.00    +0.000 HD
ENDBRANCH  36  38
ENDBRANCH  33  34
ENDBRANCH  29  32
ENDBRANCH  25  26
ENDBRANCH  21  25
TORSDOF 6
ENDMDL
MODEL 3
REMARK VINA RESULT:      -8.7      3.549      5.203
REMARK  Name = 
REMARK  7 active torsions:
REMARK  status: ('A' for Active; 'I' for Inactive)
REMARK    1  A    between atoms: C_1  and  C_2
REMARK    2  A    between atoms: N_18  and  O_19
REMARK    3  A    between atoms: N_22  and  C_23
REMARK    4  A    between atoms: C_23  and  C_24
REMARK    5  A    between atoms: C_27  and  C_28
REMARK    6  A    between atoms: C_29  and  C_30
REMARK    7  A    between atoms: N_32  and  O_33
REMARK                            x       y       z     vdW  Elec       q    Type
REMARK                         _______ _______ _______ _____ _____    ______ ____
ROOT
ATOM      1  C   UNL     1      -1.338  14.239  23.869  0.00  0.00    +0.000 C 
ATOM      2  C   UNL     1      -0.974  13.459  22.639  0.00  0.00    +0.000 A 
ATOM      3  C   UNL     1      -1.430  12.158  22.395  0.00  0.00    +0.000 A 
ATOM      4  C   UNL     1      -0.923  11.422  21.315  0.00  0.00    +0.000 A 
ATOM      5  C   UNL     1       0.114  11.964  20.566  0.00  0.00    +0.000 A 
ATOM      6  C   UNL     1       0.636  13.215  20.875  0.00  0.00    +0.000 A 
ATOM      7  C   UNL     1      -0.022  14.013  21.788  0.00  0.00    +0.000 A 
ATOM      8  C   UNL     1       1.844  13.422  20.062  0.00  0.00    +0.000 C 
ATOM      9  C   UNL     1       2.843  14.317  20.244  0.00  0.00    +0.000 C 
ATOM     10  N   UNL     1       3.968  14.601  19.474  0.00  0.00    +0.000 N 
ATOM     11  C   UNL     1       4.509  15.833  19.862  0.00  0.00    +0.000 A 
ATOM     12  C   UNL     1       5.604  16.508  19.349  0.00  0.00    +0.000 A 
ATOM     13  C   UNL     1       6.030  17.699  19.971  0.00  0.00    +0.000 A 
ATOM     14  C   UNL     1       5.370  18.204  21.103  0.00  0.00    +0.000 A 
ATOM     15  C   UNL     1       4.296  17.508  21.642  0.00  0.00    +0.000 A 
ATOM     16  C   UNL     1       3.903  16.327  21.032  0.00  0.00    +0.000 A 
ATOM     17  C   UNL     1       2.902  15.320  21.424  0.00  0.00    +0.000 C 
ATOM     18  N   UNL     1       2.281  15.215  22.552  0.00  0.00    +0.000 NA
ATOM     19  C   UNL     1       1.832  12.288  19.049  0.00  0.00    +0.000 C 
ATOM     20  O   UNL     1       2.600  12.160  18.110  0.00  0.00    +0.000 OA
ATOM     21  N   UNL     1       0.784  11.432  19.444  0.00  0.00    +0.000 N 
ATOM     22  H   UNL     1       4.017  14.259  18.520  0.00  0.00    +0.000 HD
ENDROOT
BRANCH  18  23
ATOM     23  O   UNL     1       2.418  16.308  23.400  0.00  0.00    +0.000 OA
ATOM     24  H   UNL     1       3.101  15.996  24.024  0.00  0.00    +0.000 HD
ENDBRANCH  18  23
BRANCH  21  25
ATOM     25  C   UNL     1       0.368  10.207  18.766  0.00  0.00    +0.000 C 
BRANCH  25  26
ATOM     26  C   UNL     1       1.248   9.005  19.079  0.00  0.00    +0.000 A 
ATOM     27  C   UNL     1       2.029   8.428  18.073  0.00  0.00    +0.000 A 
ATOM     28  C   UNL     1       2.740   7.242  18.305  0.00  0.00    +0.000 A 
ATOM     29  C   UNL     1       2.692   6.598  19.549  0.00  0.00    +0.000 A 
ATOM     30  C   UNL     1       1.976   7.213  20.580  0.00  0.00    +0.000 A 
ATOM     31  C   UNL     1       1.275   8.409  20.351  0.00  0.00    +0.000 A 
BRANCH  29  32
ATOM     32  C   UNL     1       3.270   5.248  19.669  0.00  0.00    +0.000 C 
ATOM     33  C   UNL     1       3.458   4.375  18.666  0.00  0.00    +0.000 C 
BRANCH  33  34
ATOM     34  C   UNL     1       4.126   3.074  18.936  0.00  0.00    +0.000 C 
ATOM     35  O   UNL     1       5.020   2.924  19.761  0.00  0.00    +0.000 OA
ATOM     36  N   UNL     1       3.665   2.051  18.152  0.00  0.00    +0.000 N 
ATOM     37  H   UNL     1       2.981   2.130  17.410  0.00  0.00    +0.000 HD
BRANCH  36  38
ATOM     38  O   UNL     1       4.308   0.800  18.296  0.00  0.00    +0.000 OA
ATOM     39  H   UNL     1       5.211   0.988  17.957  0.00  0.00    +0.000 HD
ENDBRANCH  36  38
ENDBRANCH  33  34
ENDBRANCH  29  32
ENDBRANCH  25  26
ENDBRANCH  21  25
TORSDOF 6
ENDMDL
MODEL 4
REMARK VINA RESULT:      -8.6      1.337      1.625
REMARK  Name = 
REMARK  7 active torsions:
REMARK  status: ('A' for Active; 'I' for Inactive)
REMARK    1  A    between atoms: C_1  and  C_2
REMARK    2  A    between atoms: N_18  and  O_19
REMARK    3  A    between atoms: N_22  and  C_23
REMARK    4  A    between atoms: C_23  and  C_24
REMARK    5  A    between atoms: C_27  and  C_28
REMARK    6  A    between atoms: C_29  and  C_30
REMARK    7  A    between atoms: N_32  and  O_33
REMARK                            x       y       z     vdW  Elec       q    Type
REMARK                         _______ _______ _______ _____ _____    ______ ____
ROOT
ATOM      1  C   UNL     1      -5.435  10.812  17.355  0.00  0.00    +0.000 C 
ATOM      2  C   UNL     1      -3.956  10.938  17.580  0.00  0.00    +0.000 A 
ATOM      3  C   UNL     1      -3.021  10.053  17.030  0.00  0.00    +0.000 A 
ATOM      4  C   UNL     1      -1.673  10.123  17.411  0.00  0.00    +0.000 A 
ATOM      5  C   UNL     1      -1.309  11.005  18.419  0.00  0.00    +0.000 A 
ATOM      6  C   UNL     1      -2.259  11.810  19.036  0.00  0.00    +0.000 A 
ATOM      7  C   UNL     1      -3.526  11.893  18.496  0.00  0.00    +0.000 A 
ATOM      8  C   UNL     1      -1.626  12.466  20.190  0.00  0.00    +0.000 C 
ATOM      9  C   UNL     1      -2.215  13.064  21.253  0.00  0.00    +0.000 C 
ATOM     10  N   UNL     1      -1.670  13.755  22.332  0.00  0.00    +0.000 N 
ATOM     11  C   UNL     1      -2.670  14.498  22.973  0.00  0.00    +0.000 A 
ATOM     12  C   UNL     1      -2.567  15.343  24.065  0.00  0.00    +0.000 A 
ATOM     13  C   UNL     1      -3.738  15.911  24.606  0.00  0.00    +0.000 A 
ATOM     14  C   UNL     1      -5.001  15.627  24.063  0.00  0.00    +0.000 A 
ATOM     15  C   UNL     1      -5.110  14.749  22.993  0.00  0.00    +0.000 A 
ATOM     16  C   UNL     1      -3.951  14.182  22.486  0.00  0.00    +0.000 A 
ATOM     17  C   UNL     1      -3.749  13.146  21.459  0.00  0.00    +0.000 C 
ATOM     18  N   UNL     1      -4.637  12.379  20.918  0.00  0.00    +0.000 NA
ATOM     19  C   UNL     1      -0.140  12.180  20.036  0.00  0.00    +0.000 C 
ATOM     20  O   UNL     1       0.753  12.646  20.723  0.00  0.00    +0.000 OA
ATOM     21  N   UNL     1      -0.036  11.262  18.971  0.00  0.00    +0.000 N 
ATOM     22  H   UNL     1      -0.705  14.062  22.289  0.00  0.00    +0.000 HD
ENDROOT
BRANCH  18  23
ATOM     23  O   UNL     1      -5.955  12.733  21.183  0.00  0.00    +0.000 OA
ATOM     24  H   UNL     1      -6.397  12.515  20.340  0.00  0.00    +0.000 HD
ENDBRANCH  18  23
BRANCH  21  25
ATOM     25  C   UNL     1       1.201  10.700  18.434  0.00  0.00    +0.000 C 
BRANCH  25  26
ATOM     26  C   UNL     1       1.584   9.362  19.049  0.00  0.00    +0.000 A 
ATOM     27  C   UNL     1       2.272   8.412  18.288  0.00  0.00    +0.000 A 
ATOM     28  C   UNL     1       2.514   7.126  18.790  0.00  0.00    +0.000 A 
ATOM     29  C   UNL     1       2.076   6.750  20.067  0.00  0.00    +0.000 A 
ATOM     30  C   UNL     1       1.457   7.721  20.861  0.00  0.00    +0.000 A 
ATOM     31  C   UNL     1       1.227   9.014  20.362  0.00  0.00    +0.000 A 
BRANCH  29  32
ATOM     32  C   UNL     1       2.156   5.331  20.454  0.00  0.00    +0.000 C 
ATOM     33  C   UNL     1       1.183   4.416  20.312  0.00  0.00    +0.000 C 
BRANCH  33  34
ATOM     34  C   UNL     1       1.444   2.999  20.682  0.00  0.00    +0.000 C 
ATOM     35  O   UNL     1       1.371   2.063  19.894  0.00  0.00    +0.000 OA
ATOM     36  N   UNL     1       1.753   2.828  22.005  0.00  0.00    +0.000 N 
ATOM     37  H   UNL     1       1.760   3.551  22.713  0.00  0.00    +0.000 HD
BRANCH  36  38
ATOM     38  O   UNL     1       1.936   1.498  22.448  0.00  0.00    +0.000 OA
ATOM     39  H   UNL     1       2.020   1.005  21.603  0.00  0.00    +0.000 HD
ENDBRANCH  36  38
ENDBRANCH  33  34
ENDBRANCH  29  32
ENDBRANCH  25  26
ENDBRANCH  21  25
TORSDOF 6
ENDMDL
MODEL 5
REMARK VINA RESULT:      -8.5      1.937      3.923
REMARK  Name = 
REMARK  7 active torsions:
REMARK  status: ('A' for Active; 'I' for Inactive)
REMARK    1  A    between atoms: C_1  and  C_2
REMARK    2  A    between atoms: N_18  and  O_19
REMARK    3  A    between atoms: N_22  and  C_23
REMARK    4  A    between atoms: C_23  and  C_24
REMARK    5  A    between atoms: C_27  and  C_28
REMARK    6  A    between atoms: C_29  and  C_30
REMARK    7  A    between atoms: N_32  and  O_33
REMARK                            x       y       z     vdW  Elec       q    Type
REMARK                         _______ _______ _______ _____ _____    ______ ____
ROOT
ATOM      1  C   UNL     1       0.018  15.505  22.638  0.00  0.00    +0.000 C 
ATOM      2  C   UNL     1       0.303  14.324  21.758  0.00  0.00    +0.000 A 
ATOM      3  C   UNL     1       1.554  14.088  21.175  0.00  0.00    +0.000 A 
ATOM      4  C   UNL     1       1.712  13.062  20.231  0.00  0.00    +0.000 A 
ATOM      5  C   UNL     1       0.588  12.366  19.808  0.00  0.00    +0.000 A 
ATOM      6  C   UNL     1      -0.671  12.672  20.313  0.00  0.00    +0.000 A 
ATOM      7  C   UNL     1      -0.774  13.518  21.398  0.00  0.00    +0.000 A 
ATOM      8  C   UNL     1      -1.672  11.932  19.532  0.00  0.00    +0.000 C 
ATOM      9  C   UNL     1      -3.005  12.151  19.439  0.00  0.00    +0.000 C 
ATOM     10  N   UNL     1      -4.004  11.445  18.773  0.00  0.00    +0.000 N 
ATOM     11  C   UNL     1      -5.260  11.833  19.257  0.00  0.00    +0.000 A 
ATOM     12  C   UNL     1      -6.516  11.370  18.899  0.00  0.00    +0.000 A 
ATOM     13  C   UNL     1      -7.657  11.985  19.453  0.00  0.00    +0.000 A 
ATOM     14  C   UNL     1      -7.541  13.058  20.350  0.00  0.00    +0.000 A 
ATOM     15  C   UNL     1      -6.284  13.548  20.680  0.00  0.00    +0.000 A 
ATOM     16  C   UNL     1      -5.173  12.947  20.110  0.00  0.00    +0.000 A 
ATOM     17  C   UNL     1      -3.745  13.304  20.165  0.00  0.00    +0.000 C 
ATOM     18  N   UNL     1      -3.214  14.393  20.613  0.00  0.00    +0.000 NA
ATOM     19  C   UNL     1      -0.867  10.951  18.693  0.00  0.00    +0.000 C 
ATOM     20  O   UNL     1      -1.325  10.067  17.990  0.00  0.00    +0.000 OA
ATOM     21  N   UNL     1       0.485  11.303  18.885  0.00  0.00    +0.000 N 
ATOM     22  H   UNL     1      -3.812  10.507  18.441  0.00  0.00    +0.000 HD
ENDROOT
BRANCH  18  23
ATOM     23  O   UNL     1      -4.080  15.217  21.323  0.00  0.00    +0.000 OA
ATOM     24  H   UNL     1      -3.702  16.101  21.155  0.00  0.00    +0.000 HD
ENDBRANCH  18  23
BRANCH  21  25
ATOM     25  C   UNL     1       1.643  10.635  18.297  0.00  0.00    +0.000 C 
BRANCH  25  26
ATOM     26  C   UNL     1       1.783   9.177  18.708  0.00  0.00    +0.000 A 
ATOM     27  C   UNL     1       1.478   8.785  20.015  0.00  0.00    +0.000 A 
ATOM     28  C   UNL     1       1.729   7.476  20.451  0.00  0.00    +0.000 A 
ATOM     29  C   UNL     1       2.292   6.521  19.595  0.00  0.00    +0.000 A 
ATOM     30  C   UNL     1       2.525   6.886  18.265  0.00  0.00    +0.000 A 
ATOM     31  C   UNL     1       2.260   8.194  17.826  0.00  0.00    +0.000 A 
BRANCH  29  32
ATOM     32  C   UNL     1       2.740   5.237  20.163  0.00  0.00    +0.000 C 
ATOM     33  C   UNL     1       3.141   4.161  19.468  0.00  0.00    +0.000 C 
BRANCH  33  34
ATOM     34  C   UNL     1       3.640   2.960  20.191  0.00  0.00    +0.000 C 
ATOM     35  O   UNL     1       3.072   2.459  21.155  0.00  0.00    +0.000 OA
ATOM     36  N   UNL     1       4.818   2.474  19.693  0.00  0.00    +0.000 N 
ATOM     37  H   UNL     1       5.365   2.885  18.947  0.00  0.00    +0.000 HD
BRANCH  36  38
ATOM     38  O   UNL     1       5.395   1.380  20.379  0.00  0.00    +0.000 OA
ATOM     39  H   UNL     1       5.282   0.646  19.736  0.00  0.00    +0.000 HD
ENDBRANCH  36  38
ENDBRANCH  33  34
ENDBRANCH  29  32
ENDBRANCH  25  26
ENDBRANCH  21  25
TORSDOF 6
ENDMDL
MODEL 6
REMARK VINA RESULT:      -8.5      1.699      2.166
REMARK  Name = 
REMARK  7 active torsions:
REMARK  status: ('A' for Active; 'I' for Inactive)
REMARK    1  A    between atoms: C_1  and  C_2
REMARK    2  A    between atoms: N_18  and  O_19
REMARK    3  A    between atoms: N_22  and  C_23
REMARK    4  A    between atoms: C_23  and  C_24
REMARK    5  A    between atoms: C_27  and  C_28
REMARK    6  A    between atoms: C_29  and  C_30
REMARK    7  A    between atoms: N_32  and  O_33
REMARK                            x       y       z     vdW  Elec       q    Type
REMARK                         _______ _______ _______ _____ _____    ______ ____
ROOT
ATOM      1  C   UNL     1      -4.486  10.756  16.119  0.00  0.00    +0.000 C 
ATOM      2  C   UNL     1      -3.271  10.986  16.969  0.00  0.00    +0.000 A 
ATOM      3  C   UNL     1      -2.076  10.275  16.804  0.00  0.00    +0.000 A 
ATOM      4  C   UNL     1      -1.035  10.417  17.733  0.00  0.00    +0.000 A 
ATOM      5  C   UNL     1      -1.255  11.183  18.870  0.00  0.00    +0.000 A 
ATOM      6  C   UNL     1      -2.480  11.804  19.083  0.00  0.00    +0.000 A 
ATOM      7  C   UNL     1      -3.404  11.842  18.058  0.00  0.00    +0.000 A 
ATOM      8  C   UNL     1      -2.487  12.351  20.448  0.00  0.00    +0.000 C 
ATOM      9  C   UNL     1      -3.544  12.742  21.198  0.00  0.00    +0.000 C 
ATOM     10  N   UNL     1      -3.604  13.326  22.461  0.00  0.00    +0.000 N 
ATOM     11  C   UNL     1      -4.875  13.878  22.668  0.00  0.00    +0.000 A 
ATOM     12  C   UNL     1      -5.359  14.572  23.764  0.00  0.00    +0.000 A 
ATOM     13  C   UNL     1      -6.717  14.949  23.792  0.00  0.00    +0.000 A 
ATOM     14  C   UNL     1      -7.584  14.626  22.737  0.00  0.00    +0.000 A 
ATOM     15  C   UNL     1      -7.109  13.897  21.655  0.00  0.00    +0.000 A 
ATOM     16  C   UNL     1      -5.776  13.514  21.651  0.00  0.00    +0.000 A 
ATOM     17  C   UNL     1      -5.019  12.652  20.729  0.00  0.00    +0.000 C 
ATOM     18  N   UNL     1      -5.481  11.887  19.795  0.00  0.00    +0.000 NA
ATOM     19  C   UNL     1      -1.049  12.228  20.926  0.00  0.00    +0.000 C 
ATOM     20  O   UNL     1      -0.600  12.677  21.967  0.00  0.00    +0.000 OA
ATOM     21  N   UNL     1      -0.379  11.478  19.937  0.00  0.00    +0.000 N 
ATOM     22  H   UNL     1      -2.764  13.724  22.864  0.00  0.00    +0.000 HD
ENDROOT
BRANCH  18  23
ATOM     23  O   UNL     1      -6.825  12.077  19.494  0.00  0.00    +0.000 OA
ATOM     24  H   UNL     1      -7.239  11.300  19.915  0.00  0.00    +0.000 HD
ENDBRANCH  18  23
BRANCH  21  25
ATOM     25  C   UNL     1       1.034  11.113  19.940  0.00  0.00    +0.000 C 
BRANCH  25  26
ATOM     26  C   UNL     1       1.279   9.613  19.866  0.00  0.00    +0.000 A 
ATOM     27  C   UNL     1       0.984   8.799  20.965  0.00  0.00    +0.000 A 
ATOM     28  C   UNL     1       1.327   7.440  20.966  0.00  0.00    +0.000 A 
ATOM     29  C   UNL     1       1.976   6.853  19.872  0.00  0.00    +0.000 A 
ATOM     30  C   UNL     1       2.203   7.644  18.741  0.00  0.00    +0.000 A 
ATOM     31  C   UNL     1       1.846   9.003  18.735  0.00  0.00    +0.000 A 
BRANCH  29  32
ATOM     32  C   UNL     1       2.512   5.488  20.015  0.00  0.00    +0.000 C 
ATOM     33  C   UNL     1       2.295   4.461  19.178  0.00  0.00    +0.000 C 
BRANCH  33  34
ATOM     34  C   UNL     1       2.971   3.158  19.420  0.00  0.00    +0.000 C 
ATOM     35  O   UNL     1       2.378   2.092  19.536  0.00  0.00    +0.000 OA
ATOM     36  N   UNL     1       4.332   3.261  19.527  0.00  0.00    +0.000 N 
ATOM     37  H   UNL     1       4.868   4.120  19.509  0.00  0.00    +0.000 HD
BRANCH  36  38
ATOM     38  O   UNL     1       5.037   2.076  19.836  0.00  0.00    +0.000 OA
ATOM     39  H   UNL     1       4.335   1.392  19.775  0.00  0.00    +0.000 HD
ENDBRANCH  36  38
ENDBRANCH  33  34
ENDBRANCH  29  32
ENDBRANCH  25  26
ENDBRANCH  21  25
TORSDOF 6
ENDMDL
MODEL 7
REMARK VINA RESULT:      -8.4      1.293      1.617
REMARK  Name = 
REMARK  7 active torsions:
REMARK  status: ('A' for Active; 'I' for Inactive)
REMARK    1  A    between atoms: C_1  and  C_2
REMARK    2  A    between atoms: N_18  and  O_19
REMARK    3  A    between atoms: N_22  and  C_23
REMARK    4  A    between atoms: C_23  and  C_24
REMARK    5  A    between atoms: C_27  and  C_28
REMARK    6  A    between atoms: C_29  and  C_30
REMARK    7  A    between atoms: N_32  and  O_33
REMARK                            x       y       z     vdW  Elec       q    Type
REMARK                         _______ _______ _______ _____ _____    ______ ____
ROOT
ATOM      1  C   UNL     1      -4.994  10.628  17.344  0.00  0.00    +0.000 C 
ATOM      2  C   UNL     1      -3.540  10.876  17.621  0.00  0.00    +0.000 A 
ATOM      3  C   UNL     1      -2.515  10.075  17.106  0.00  0.00    +0.000 A 
ATOM      4  C   UNL     1      -1.192  10.257  17.535  0.00  0.00    +0.000 A 
ATOM      5  C   UNL     1      -0.940  11.165  18.554  0.00  0.00    +0.000 A 
ATOM      6  C   UNL     1      -1.976  11.886  19.137  0.00  0.00    +0.000 A 
ATOM      7  C   UNL     1      -3.226  11.863  18.552  0.00  0.00    +0.000 A 
ATOM      8  C   UNL     1      -1.442  12.590  20.312  0.00  0.00    +0.000 C 
ATOM      9  C   UNL     1      -2.117  13.135  21.352  0.00  0.00    +0.000 C 
ATOM     10  N   UNL     1      -1.671  13.867  22.449  0.00  0.00    +0.000 N 
ATOM     11  C   UNL     1      -2.752  14.521  23.053  0.00  0.00    +0.000 A 
ATOM     12  C   UNL     1      -2.760  15.371  24.147  0.00  0.00    +0.000 A 
ATOM     13  C   UNL     1      -3.994  15.837  24.645  0.00  0.00    +0.000 A 
ATOM     14  C   UNL     1      -5.208  15.448  24.058  0.00  0.00    +0.000 A 
ATOM     15  C   UNL     1      -5.204  14.566  22.986  0.00  0.00    +0.000 A 
ATOM     16  C   UNL     1      -3.984  14.099  22.521  0.00  0.00    +0.000 A 
ATOM     17  C   UNL     1      -3.659  13.087  21.503  0.00  0.00    +0.000 C 
ATOM     18  N   UNL     1      -4.459  12.249  20.932  0.00  0.00    +0.000 NA
ATOM     19  C   UNL     1       0.067  12.430  20.211  0.00  0.00    +0.000 C 
ATOM     20  O   UNL     1       0.893  12.969  20.929  0.00  0.00    +0.000 OA
ATOM     21  N   UNL     1       0.286  11.527  19.151  0.00  0.00    +0.000 N 
ATOM     22  H   UNL     1      -0.734  14.254  22.440  0.00  0.00    +0.000 HD
ENDROOT
BRANCH  18  23
ATOM     23  O   UNL     1      -5.811  12.489  21.148  0.00  0.00    +0.000 OA
ATOM     24  H   UNL     1      -6.030  13.094  20.414  0.00  0.00    +0.000 HD
ENDBRANCH  18  23
BRANCH  21  25
ATOM     25  C   UNL     1       1.584  11.072  18.659  0.00  0.00    +0.000 C 
BRANCH  25  26
ATOM     26  C   UNL     1       1.837   9.588  18.880  0.00  0.00    +0.000 A 
ATOM     27  C   UNL     1       2.369   8.807  17.849  0.00  0.00    +0.000 A 
ATOM     28  C   UNL     1       2.483   7.416  17.986  0.00  0.00    +0.000 A 
ATOM     29  C   UNL     1       2.069   6.765  19.155  0.00  0.00    +0.000 A 
ATOM     30  C   UNL     1       1.610   7.550  20.217  0.00  0.00    +0.000 A 
ATOM     31  C   UNL     1       1.509   8.945  20.085  0.00  0.00    +0.000 A 
BRANCH  29  32
ATOM     32  C   UNL     1       2.001   5.293  19.159  0.00  0.00    +0.000 C 
ATOM     33  C   UNL     1       1.797   4.508  18.089  0.00  0.00    +0.000 C 
BRANCH  33  34
ATOM     34  C   UNL     1       1.831   3.028  18.243  0.00  0.00    +0.000 C 
ATOM     35  O   UNL     1       0.836   2.339  18.430  0.00  0.00    +0.000 OA
ATOM     36  N   UNL     1       3.093   2.502  18.182  0.00  0.00    +0.000 N 
ATOM     37  H   UNL     1       3.955   3.028  18.098  0.00  0.00    +0.000 HD
BRANCH  36  38
ATOM     38  O   UNL     1       3.213   1.111  18.399  0.00  0.00    +0.000 OA
ATOM     39  H   UNL     1       3.036   0.742  17.506  0.00  0.00    +0.000 HD
ENDBRANCH  36  38
ENDBRANCH  33  34
ENDBRANCH  29  32
ENDBRANCH  25  26
ENDBRANCH  21  25
TORSDOF 6
ENDMDL
MODEL 8
REMARK VINA RESULT:      -8.2      1.411      1.885
REMARK  Name = 
REMARK  7 active torsions:
REMARK  status: ('A' for Active; 'I' for Inactive)
REMARK    1  A    between atoms: C_1  and  C_2
REMARK    2  A    between atoms: N_18  and  O_19
REMARK    3  A    between atoms: N_22  and  C_23
REMARK    4  A    between atoms: C_23  and  C_24
REMARK    5  A    between atoms: C_27  and  C_28
REMARK    6  A    between atoms: C_29  and  C_30
REMARK    7  A    between atoms: N_32  and  O_33
REMARK                            x       y       z     vdW  Elec       q    Type
REMARK                         _______ _______ _______ _____ _____    ______ ____
ROOT
ATOM      1  C   UNL     1      -6.607  11.010  18.742  0.00  0.00    +0.000 C 
ATOM      2  C   UNL     1      -5.129  11.179  18.549  0.00  0.00    +0.000 A 
ATOM      3  C   UNL     1      -4.344  10.277  17.822  0.00  0.00    +0.000 A 
ATOM      4  C   UNL     1      -2.947  10.398  17.818  0.00  0.00    +0.000 A 
ATOM      5  C   UNL     1      -2.358  11.354  18.634  0.00  0.00    +0.000 A 
ATOM      6  C   UNL     1      -3.136  12.182  19.436  0.00  0.00    +0.000 A 
ATOM      7  C   UNL     1      -4.504  12.203  19.255  0.00  0.00    +0.000 A 
ATOM      8  C   UNL     1      -2.240  12.927  20.332  0.00  0.00    +0.000 C 
ATOM      9  C   UNL     1      -2.543  13.586  21.476  0.00  0.00    +0.000 C 
ATOM     10  N   UNL     1      -1.754  14.360  22.323  0.00  0.00    +0.000 N 
ATOM     11  C   UNL     1      -2.571  15.125  23.164  0.00  0.00    +0.000 A 
ATOM     12  C   UNL     1      -2.209  16.046  24.133  0.00  0.00    +0.000 A 
ATOM     13  C   UNL     1      -3.212  16.627  24.936  0.00  0.00    +0.000 A 
ATOM     14  C   UNL     1      -4.563  16.282  24.775  0.00  0.00    +0.000 A 
ATOM     15  C   UNL     1      -4.923  15.331  23.829  0.00  0.00    +0.000 A 
ATOM     16  C   UNL     1      -3.923  14.752  23.063  0.00  0.00    +0.000 A 
ATOM     17  C   UNL     1      -3.967  13.652  22.085  0.00  0.00    +0.000 C 
ATOM     18  N   UNL     1      -4.939  12.833  21.853  0.00  0.00    +0.000 NA
ATOM     19  C   UNL     1      -0.841  12.659  19.799  0.00  0.00    +0.000 C 
ATOM     20  O   UNL     1       0.186  13.188  20.188  0.00  0.00    +0.000 OA
ATOM     21  N   UNL     1      -0.994  11.672  18.803  0.00  0.00    +0.000 N 
ATOM     22  H   UNL     1      -0.848  14.681  22.001  0.00  0.00    +0.000 HD
ENDROOT
BRANCH  18  23
ATOM     23  O   UNL     1      -6.149  13.179  22.443  0.00  0.00    +0.000 OA
ATOM     24  H   UNL     1      -6.794  12.875  21.776  0.00  0.00    +0.000 HD
ENDBRANCH  18  23
BRANCH  21  25
ATOM     25  C   UNL     1       0.073  11.099  17.987  0.00  0.00    +0.000 C 
BRANCH  25  26
ATOM     26  C   UNL     1       0.813   9.954  18.662  0.00  0.00    +0.000 A 
ATOM     27  C   UNL     1       1.702   9.164  17.927  0.00  0.00    +0.000 A 
ATOM     28  C   UNL     1       2.289   8.024  18.494  0.00  0.00    +0.000 A 
ATOM     29  C   UNL     1       2.006   7.639  19.810  0.00  0.00    +0.000 A 
ATOM     30  C   UNL     1       1.179   8.469  20.574  0.00  0.00    +0.000 A 
ATOM     31  C   UNL     1       0.602   9.618  20.010  0.00  0.00    +0.000 A 
BRANCH  29  32
ATOM     32  C   UNL     1       2.468   6.320  20.278  0.00  0.00    +0.000 C 
ATOM     33  C   UNL     1       1.751   5.185  20.278  0.00  0.00    +0.000 C 
BRANCH  33  34
ATOM     34  C   UNL     1       2.387   3.912  20.713  0.00  0.00    +0.000 C 
ATOM     35  O   UNL     1       3.344   3.399  20.146  0.00  0.00    +0.000 OA
ATOM     36  N   UNL     1       1.781   3.343  21.801  0.00  0.00    +0.000 N 
ATOM     37  H   UNL     1       0.949   3.684  22.266  0.00  0.00    +0.000 HD
BRANCH  36  38
ATOM     38  O   UNL     1       2.280   2.090  22.224  0.00  0.00    +0.000 OA
ATOM     39  H   UNL     1       3.174   2.072  21.817  0.00  0.00    +0.000 HD
ENDBRANCH  36  38
ENDBRANCH  33  34
ENDBRANCH  29  32
ENDBRANCH  25  26
ENDBRANCH  21  25
TORSDOF 6
ENDMDL
MODEL 9
REMARK VINA RESULT:      -8.1      2.399      4.066
REMARK  Name = 
REMARK  7 active torsions:
REMARK  status: ('A' for Active; 'I' for Inactive)
REMARK    1  A    between atoms: C_1  and  C_2
REMARK    2  A    between atoms: N_18  and  O_19
REMARK    3  A    between atoms: N_22  and  C_23
REMARK    4  A    between atoms: C_23  and  C_24
REMARK    5  A    between atoms: C_27  and  C_28
REMARK    6  A    between atoms: C_29  and  C_30
REMARK    7  A    between atoms: N_32  and  O_33
REMARK                            x       y       z     vdW  Elec       q    Type
REMARK                         _______ _______ _______ _____ _____    ______ ____
ROOT
ATOM      1  C   UNL     1       4.284  15.799  19.412  0.00  0.00    +0.000 C 
ATOM      2  C   UNL     1       3.374  14.607  19.394  0.00  0.00    +0.000 A 
ATOM      3  C   UNL     1       3.199  13.794  18.268  0.00  0.00    +0.000 A 
ATOM      4  C   UNL     1       2.213  12.798  18.260  0.00  0.00    +0.000 A 
ATOM      5  C   UNL     1       1.346  12.710  19.341  0.00  0.00    +0.000 A 
ATOM      6  C   UNL     1       1.455  13.586  20.414  0.00  0.00    +0.000 A 
ATOM      7  C   UNL     1       2.564  14.402  20.508  0.00  0.00    +0.000 A 
ATOM      8  C   UNL     1       0.287  13.394  21.286  0.00  0.00    +0.000 C 
ATOM      9  C   UNL     1      -0.199  14.218  22.244  0.00  0.00    +0.000 C 
ATOM     10  N   UNL     1      -1.254  14.058  23.140  0.00  0.00    +0.000 N 
ATOM     11  C   UNL     1      -1.150  15.004  24.168  0.00  0.00    +0.000 A 
ATOM     12  C   UNL     1      -1.963  15.186  25.274  0.00  0.00    +0.000 A 
ATOM     13  C   UNL     1      -1.723  16.279  26.130  0.00  0.00    +0.000 A 
ATOM     14  C   UNL     1      -0.683  17.187  25.875  0.00  0.00    +0.000 A 
ATOM     15  C   UNL     1       0.109  17.028  24.746  0.00  0.00    +0.000 A 
ATOM     16  C   UNL     1      -0.154  15.960  23.901  0.00  0.00    +0.000 A 
ATOM     17  C   UNL     1       0.415  15.598  22.592  0.00  0.00    +0.000 C 
ATOM     18  N   UNL     1       1.174  16.313  21.830  0.00  0.00    +0.000 NA
ATOM     19  C   UNL     1      -0.386  12.133  20.766  0.00  0.00    +0.000 C 
ATOM     20  O   UNL     1      -1.326  11.557  21.286  0.00  0.00    +0.000 OA
ATOM     21  N   UNL     1       0.287  11.805  19.571  0.00  0.00    +0.000 N 
ATOM     22  H   UNL     1      -1.646  13.134  23.286  0.00  0.00    +0.000 HD
ENDROOT
BRANCH  18  23
ATOM     23  O   UNL     1       1.681  17.464  22.423  0.00  0.00    +0.000 OA
ATOM     24  H   UNL     1       1.256  17.444  23.301  0.00  0.00    +0.000 HD
ENDBRANCH  18  23
BRANCH  21  25
ATOM     25  C   UNL     1       0.011  10.656  18.713  0.00  0.00    +0.000 C 
BRANCH  25  26
ATOM     26  C   UNL     1       1.016   9.523  18.864  0.00  0.00    +0.000 A 
ATOM     27  C   UNL     1       1.834   9.164  17.788  0.00  0.00    +0.000 A 
ATOM     28  C   UNL     1       2.668   8.040  17.862  0.00  0.00    +0.000 A 
ATOM     29  C   UNL     1       2.709   7.240  19.012  0.00  0.00    +0.000 A 
ATOM     30  C   UNL     1       1.952   7.641  20.117  0.00  0.00    +0.000 A 
ATOM     31  C   UNL     1       1.128   8.775  20.047  0.00  0.00    +0.000 A 
BRANCH  29  32
ATOM     32  C   UNL     1       3.426   5.954  18.954  0.00  0.00    +0.000 C 
ATOM     33  C   UNL     1       2.878   4.755  18.699  0.00  0.00    +0.000 C 
BRANCH  33  34
ATOM     34  C   UNL     1       3.750   3.553  18.599  0.00  0.00    +0.000 C 
ATOM     35  O   UNL     1       4.012   2.986  17.546  0.00  0.00    +0.000 OA
ATOM     36  N   UNL     1       4.216   3.115  19.810  0.00  0.00    +0.000 N 
ATOM     37  H   UNL     1       3.978   3.500  20.715  0.00  0.00    +0.000 HD
BRANCH  36  38
ATOM     38  O   UNL     1       4.987   1.930  19.803  0.00  0.00    +0.000 OA
ATOM     39  H   UNL     1       5.551   2.042  20.600  0.00  0.00    +0.000 HD
ENDBRANCH  36  38
ENDBRANCH  33  34
ENDBRANCH  29  32
ENDBRANCH  25  26
ENDBRANCH  21  25
TORSDOF 6
ENDMDL
