MODEL 1
REMARK VINA RESULT:      -6.9      0.000      0.000
REMARK  Name = 
REMARK  6 active torsions:
REMARK  status: ('A' for Active; 'I' for Inactive)
REMARK    1  A    between atoms: C_1  and  C_2
REMARK    2  A    between atoms: C_2  and  C_3
REMARK    3  A    between atoms: C_3  and  C_4
REMARK    4  A    between atoms: C_3  and  S_5
REMARK    5  A    between atoms: S_5  and  C_6
REMARK    6  A    between atoms: N_12  and  C_13
REMARK                            x       y       z     vdW  Elec       q    Type
REMARK                         _______ _______ _______ _____ _____    ______ ____
ROOT
ATOM      1  C   UNL     1       2.364   6.318  19.931  0.00  0.00    +0.000 A 
ATOM      2  N   UNL     1       1.623   6.997  20.754  0.00  0.00    +0.000 NA
ATOM      3  C   UNL     1       1.213   8.225  20.339  0.00  0.00    +0.000 A 
ATOM      4  C   UNL     1       1.530   8.790  19.177  0.00  0.00    +0.000 A 
ATOM      5  C   UNL     1       2.405   8.068  18.235  0.00  0.00    +0.000 A 
ATOM      6  O   UNL     1       2.736   8.582  17.165  0.00  0.00    +0.000 OA
ATOM      7  N   UNL     1       2.769   6.787  18.668  0.00  0.00    +0.000 N 
ATOM      8  S   UNL     1       0.853  10.347  18.908  0.00  0.00    +0.000 S 
ATOM      9  C   UNL     1      -0.275  10.154  20.337  0.00  0.00    +0.000 C 
ATOM     10  C   UNL     1       0.355   9.079  21.227  0.00  0.00    +0.000 C 
ENDROOT
BRANCH   7  11
ATOM     11  C   UNL     1       3.638   6.032  17.821  0.00  0.00    +0.000 A 
ATOM     12  C   UNL     1       4.916   6.523  17.524  0.00  0.00    +0.000 A 
ATOM     13  C   UNL     1       5.826   5.734  16.821  0.00  0.00    +0.000 A 
ATOM     14  C   UNL     1       5.455   4.463  16.383  0.00  0.00    +0.000 A 
ATOM     15  C   UNL     1       4.161   3.997  16.611  0.00  0.00    +0.000 A 
ATOM     16  C   UNL     1       3.250   4.782  17.319  0.00  0.00    +0.000 A 
ENDBRANCH   7  11
BRANCH   1  17
ATOM     17  S   UNL     1       2.957   4.759  20.510  0.00  0.00    +0.000 S 
BRANCH  17  18
ATOM     18  C   UNL     1       1.406   3.848  20.841  0.00  0.00    +0.000 C 
ATOM     19  C   UNL     1       1.767   2.608  21.665  0.00  0.00    +0.000 C 
BRANCH  18  21
ATOM     20  C   UNL     1       1.220   2.170  18.929  0.00  0.00    +0.000 C 
ATOM     21  C   UNL     1       0.705   3.476  19.524  0.00  0.00    +0.000 C 
ENDBRANCH  18  21
ENDBRANCH  17  18
ENDBRANCH   1  17
TORSDOF 4
ENDMDL
MODEL 2
REMARK VINA RESULT:      -6.9      0.346      1.092
REMARK  Name = 
REMARK  6 active torsions:
REMARK  status: ('A' for Active; 'I' for Inactive)
REMARK    1  A    between atoms: C_1  and  C_2
REMARK    2  A    between atoms: C_2  and  C_3
REMARK    3  A    between atoms: C_3  and  C_4
REMARK    4  A    between atoms: C_3  and  S_5
REMARK    5  A    between atoms: S_5  and  C_6
REMARK    6  A    between atoms: N_12  and  C_13
REMARK                            x       y       z     vdW  Elec       q    Type
REMARK                         _______ _______ _______ _____ _____    ______ ____
ROOT
ATOM      1  C   UNL     1       2.452   6.142  19.947  0.00  0.00    +0.000 A 
ATOM      2  N   UNL     1       1.662   6.871  20.677  0.00  0.00    +0.000 NA
ATOM      3  C   UNL     1       1.327   8.093  20.184  0.00  0.00    +0.000 A 
ATOM      4  C   UNL     1       1.760   8.606  19.036  0.00  0.00    +0.000 A 
ATOM      5  C   UNL     1       2.692   7.826  18.200  0.00  0.00    +0.000 A 
ATOM      6  O   UNL     1       3.131   8.290  17.147  0.00  0.00    +0.000 OA
ATOM      7  N   UNL     1       2.979   6.553  18.708  0.00  0.00    +0.000 N 
ATOM      8  S   UNL     1       1.155  10.169  18.654  0.00  0.00    +0.000 S 
ATOM      9  C   UNL     1      -0.098  10.059  19.984  0.00  0.00    +0.000 C 
ATOM     10  C   UNL     1       0.420   9.002  20.963  0.00  0.00    +0.000 C 
ENDROOT
BRANCH   7  11
ATOM     11  C   UNL     1       3.895   5.744  17.968  0.00  0.00    +0.000 A 
ATOM     12  C   UNL     1       3.417   4.659  17.223  0.00  0.00    +0.000 A 
ATOM     13  C   UNL     1       4.277   3.951  16.382  0.00  0.00    +0.000 A 
ATOM     14  C   UNL     1       5.624   4.303  16.305  0.00  0.00    +0.000 A 
ATOM     15  C   UNL     1       6.121   5.334  17.099  0.00  0.00    +0.000 A 
ATOM     16  C   UNL     1       5.264   6.048  17.936  0.00  0.00    +0.000 A 
ENDBRANCH   7  11
BRANCH   1  17
ATOM     17  S   UNL     1       2.945   4.591  20.630  0.00  0.00    +0.000 S 
BRANCH  17  18
ATOM     18  C   UNL     1       1.344   3.736  20.860  0.00  0.00    +0.000 C 
ATOM     19  C   UNL     1       1.594   2.526  21.765  0.00  0.00    +0.000 C 
BRANCH  18  21
ATOM     20  C   UNL     1       1.445   2.108  18.900  0.00  0.00    +0.000 C 
ATOM     21  C   UNL     1       0.751   3.324  19.502  0.00  0.00    +0.000 C 
ENDBRANCH  18  21
ENDBRANCH  17  18
ENDBRANCH   1  17
TORSDOF 4
ENDMDL
MODEL 3
REMARK VINA RESULT:      -6.6      1.274      2.083
REMARK  Name = 
REMARK  6 active torsions:
REMARK  status: ('A' for Active; 'I' for Inactive)
REMARK    1  A    between atoms: C_1  and  C_2
REMARK    2  A    between atoms: C_2  and  C_3
REMARK    3  A    between atoms: C_3  and  C_4
REMARK    4  A    between atoms: C_3  and  S_5
REMARK    5  A    between atoms: S_5  and  C_6
REMARK    6  A    between atoms: N_12  and  C_13
REMARK                            x       y       z     vdW  Elec       q    Type
REMARK                         _______ _______ _______ _____ _____    ______ ____
ROOT
ATOM      1  C   UNL     1       3.298   5.504  19.136  0.00  0.00    +0.000 A 
ATOM      2  N   UNL     1       2.455   6.171  19.866  0.00  0.00    +0.000 NA
ATOM      3  C   UNL     1       2.148   7.430  19.452  0.00  0.00    +0.000 A 
ATOM      4  C   UNL     1       2.658   8.034  18.383  0.00  0.00    +0.000 A 
ATOM      5  C   UNL     1       3.652   7.325  17.555  0.00  0.00    +0.000 A 
ATOM      6  O   UNL     1       4.161   7.874  16.577  0.00  0.00    +0.000 OA
ATOM      7  N   UNL     1       3.909   6.015  17.976  0.00  0.00    +0.000 N 
ATOM      8  S   UNL     1       2.074   9.623  18.088  0.00  0.00    +0.000 S 
ATOM      9  C   UNL     1       0.730   9.405  19.312  0.00  0.00    +0.000 C 
ATOM     10  C   UNL     1       1.184   8.272  20.236  0.00  0.00    +0.000 C 
ENDROOT
BRANCH   7  11
ATOM     11  C   UNL     1       4.881   5.269  17.240  0.00  0.00    +0.000 A 
ATOM     12  C   UNL     1       4.493   4.575  16.087  0.00  0.00    +0.000 A 
ATOM     13  C   UNL     1       5.453   3.965  15.278  0.00  0.00    +0.000 A 
ATOM     14  C   UNL     1       6.800   4.018  15.634  0.00  0.00    +0.000 A 
ATOM     15  C   UNL     1       7.185   4.644  16.818  0.00  0.00    +0.000 A 
ATOM     16  C   UNL     1       6.229   5.260  17.626  0.00  0.00    +0.000 A 
ENDBRANCH   7  11
BRANCH   1  17
ATOM     17  S   UNL     1       3.751   3.902  19.724  0.00  0.00    +0.000 S 
BRANCH  17  18
ATOM     18  C   UNL     1       2.275   2.903  19.315  0.00  0.00    +0.000 C 
ATOM     19  C   UNL     1       1.687   3.458  18.014  0.00  0.00    +0.000 C 
BRANCH  18  21
ATOM     20  C   UNL     1       1.918   2.915  21.841  0.00  0.00    +0.000 C 
ATOM     21  C   UNL     1       1.257   2.944  20.468  0.00  0.00    +0.000 C 
ENDBRANCH  18  21
ENDBRANCH  17  18
ENDBRANCH   1  17
TORSDOF 4
ENDMDL
MODEL 4
REMARK VINA RESULT:      -6.5      3.505      5.984
REMARK  Name = 
REMARK  6 active torsions:
REMARK  status: ('A' for Active; 'I' for Inactive)
REMARK    1  A    between atoms: C_1  and  C_2
REMARK    2  A    between atoms: C_2  and  C_3
REMARK    3  A    between atoms: C_3  and  C_4
REMARK    4  A    between atoms: C_3  and  S_5
REMARK    5  A    between atoms: S_5  and  C_6
REMARK    6  A    between atoms: N_12  and  C_13
REMARK                            x       y       z     vdW  Elec       q    Type
REMARK                         _______ _______ _______ _____ _____    ______ ____
ROOT
ATOM      1  C   UNL     1       5.162   3.942  17.010  0.00  0.00    +0.000 A 
ATOM      2  N   UNL     1       4.239   3.027  16.982  0.00  0.00    +0.000 NA
ATOM      3  C   UNL     1       3.208   3.171  17.857  0.00  0.00    +0.000 A 
ATOM      4  C   UNL     1       3.085   4.150  18.747  0.00  0.00    +0.000 A 
ATOM      5  C   UNL     1       4.134   5.183  18.838  0.00  0.00    +0.000 A 
ATOM      6  O   UNL     1       4.057   6.085  19.674  0.00  0.00    +0.000 OA
ATOM      7  N   UNL     1       5.155   5.038  17.892  0.00  0.00    +0.000 N 
ATOM      8  S   UNL     1       1.665   4.091  19.714  0.00  0.00    +0.000 S 
ATOM      9  C   UNL     1       0.927   2.811  18.633  0.00  0.00    +0.000 C 
ATOM     10  C   UNL     1       2.099   2.159  17.895  0.00  0.00    +0.000 C 
ENDROOT
BRANCH   7  11
ATOM     11  C   UNL     1       6.224   5.986  17.932  0.00  0.00    +0.000 A 
ATOM     12  C   UNL     1       6.158   7.139  17.140  0.00  0.00    +0.000 A 
ATOM     13  C   UNL     1       7.119   8.141  17.276  0.00  0.00    +0.000 A 
ATOM     14  C   UNL     1       8.169   7.983  18.180  0.00  0.00    +0.000 A 
ATOM     15  C   UNL     1       8.282   6.806  18.919  0.00  0.00    +0.000 A 
ATOM     16  C   UNL     1       7.319   5.804  18.789  0.00  0.00    +0.000 A 
ENDBRANCH   7  11
BRANCH   1  17
ATOM     17  S   UNL     1       6.536   3.706  15.926  0.00  0.00    +0.000 S 
BRANCH  17  18
ATOM     18  C   UNL     1       6.064   4.708  14.471  0.00  0.00    +0.000 C 
ATOM     19  C   UNL     1       5.319   3.787  13.499  0.00  0.00    +0.000 C 
BRANCH  18  21
ATOM     20  C   UNL     1       7.545   4.849  12.399  0.00  0.00    +0.000 C 
ATOM     21  C   UNL     1       7.307   5.340  13.823  0.00  0.00    +0.000 C 
ENDBRANCH  18  21
ENDBRANCH  17  18
ENDBRANCH   1  17
TORSDOF 4
ENDMDL
MODEL 5
REMARK VINA RESULT:      -6.5      1.903      5.275
REMARK  Name = 
REMARK  6 active torsions:
REMARK  status: ('A' for Active; 'I' for Inactive)
REMARK    1  A    between atoms: C_1  and  C_2
REMARK    2  A    between atoms: C_2  and  C_3
REMARK    3  A    between atoms: C_3  and  C_4
REMARK    4  A    between atoms: C_3  and  S_5
REMARK    5  A    between atoms: S_5  and  C_6
REMARK    6  A    between atoms: N_12  and  C_13
REMARK                            x       y       z     vdW  Elec       q    Type
REMARK                         _______ _______ _______ _____ _____    ______ ____
ROOT
ATOM      1  C   UNL     1       2.966   4.947  17.583  0.00  0.00    +0.000 A 
ATOM      2  N   UNL     1       3.689   4.094  16.922  0.00  0.00    +0.000 NA
ATOM      3  C   UNL     1       4.927   4.507  16.540  0.00  0.00    +0.000 A 
ATOM      4  C   UNL     1       5.441   5.712  16.767  0.00  0.00    +0.000 A 
ATOM      5  C   UNL     1       4.633   6.722  17.477  0.00  0.00    +0.000 A 
ATOM      6  O   UNL     1       5.075   7.855  17.674  0.00  0.00    +0.000 OA
ATOM      7  N   UNL     1       3.384   6.252  17.901  0.00  0.00    +0.000 N 
ATOM      8  S   UNL     1       7.041   5.951  16.187  0.00  0.00    +0.000 S 
ATOM      9  C   UNL     1       7.246   4.158  15.879  0.00  0.00    +0.000 C 
ATOM     10  C   UNL     1       5.829   3.586  15.770  0.00  0.00    +0.000 C 
ENDROOT
BRANCH   7  11
ATOM     11  C   UNL     1       2.531   7.179  18.575  0.00  0.00    +0.000 A 
ATOM     12  C   UNL     1       2.279   7.021  19.944  0.00  0.00    +0.000 A 
ATOM     13  C   UNL     1       1.569   7.996  20.645  0.00  0.00    +0.000 A 
ATOM     14  C   UNL     1       1.080   9.119  19.977  0.00  0.00    +0.000 A 
ATOM     15  C   UNL     1       1.265   9.247  18.602  0.00  0.00    +0.000 A 
ATOM     16  C   UNL     1       1.979   8.276  17.899  0.00  0.00    +0.000 A 
ENDBRANCH   7  11
BRANCH   1  17
ATOM     17  S   UNL     1       1.331   4.432  18.005  0.00  0.00    +0.000 S 
BRANCH  17  18
ATOM     18  C   UNL     1       1.638   3.152  19.275  0.00  0.00    +0.000 C 
ATOM     19  C   UNL     1       0.940   1.868  18.815  0.00  0.00    +0.000 C 
BRANCH  18  21
ATOM     20  C   UNL     1       1.961   3.068  21.804  0.00  0.00    +0.000 C 
ATOM     21  C   UNL     1       1.131   3.619  20.649  0.00  0.00    +0.000 C 
ENDBRANCH  18  21
ENDBRANCH  17  18
ENDBRANCH   1  17
TORSDOF 4
ENDMDL
MODEL 6
REMARK VINA RESULT:      -6.5      3.481      5.956
REMARK  Name = 
REMARK  6 active torsions:
REMARK  status: ('A' for Active; 'I' for Inactive)
REMARK    1  A    between atoms: C_1  and  C_2
REMARK    2  A    between atoms: C_2  and  C_3
REMARK    3  A    between atoms: C_3  and  C_4
REMARK    4  A    between atoms: C_3  and  S_5
REMARK    5  A    between atoms: S_5  and  C_6
REMARK    6  A    between atoms: N_12  and  C_13
REMARK                            x       y       z     vdW  Elec       q    Type
REMARK                         _______ _______ _______ _____ _____    ______ ____
ROOT
ATOM      1  C   UNL     1       5.113   3.944  17.118  0.00  0.00    +0.000 A 
ATOM      2  N   UNL     1       4.236   2.987  17.061  0.00  0.00    +0.000 NA
ATOM      3  C   UNL     1       3.168   3.085  17.897  0.00  0.00    +0.000 A 
ATOM      4  C   UNL     1       2.966   4.060  18.777  0.00  0.00    +0.000 A 
ATOM      5  C   UNL     1       3.961   5.142  18.902  0.00  0.00    +0.000 A 
ATOM      6  O   UNL     1       3.812   6.041  19.731  0.00  0.00    +0.000 OA
ATOM      7  N   UNL     1       5.023   5.041  17.995  0.00  0.00    +0.000 N 
ATOM      8  S   UNL     1       1.516   3.937  19.692  0.00  0.00    +0.000 S 
ATOM      9  C   UNL     1       0.879   2.621  18.590  0.00  0.00    +0.000 C 
ATOM     10  C   UNL     1       2.107   2.022  17.899  0.00  0.00    +0.000 C 
ENDROOT
BRANCH   7  11
ATOM     11  C   UNL     1       6.044   6.038  18.070  0.00  0.00    +0.000 A 
ATOM     12  C   UNL     1       7.152   5.835  18.902  0.00  0.00    +0.000 A 
ATOM     13  C   UNL     1       8.225   6.728  18.875  0.00  0.00    +0.000 A 
ATOM     14  C   UNL     1       8.181   7.845  18.041  0.00  0.00    +0.000 A 
ATOM     15  C   UNL     1       7.050   8.093  17.265  0.00  0.00    +0.000 A 
ATOM     16  C   UNL     1       5.979   7.198  17.285  0.00  0.00    +0.000 A 
ENDBRANCH   7  11
BRANCH   1  17
ATOM     17  S   UNL     1       6.536   3.770  16.088  0.00  0.00    +0.000 S 
BRANCH  17  18
ATOM     18  C   UNL     1       6.079   4.758  14.618  0.00  0.00    +0.000 C 
ATOM     19  C   UNL     1       5.363   3.823  13.638  0.00  0.00    +0.000 C 
BRANCH  18  21
ATOM     20  C   UNL     1       7.553   4.962  12.547  0.00  0.00    +0.000 C 
ATOM     21  C   UNL     1       7.326   5.401  13.989  0.00  0.00    +0.000 C 
ENDBRANCH  18  21
ENDBRANCH  17  18
ENDBRANCH   1  17
TORSDOF 4
ENDMDL
MODEL 7
REMARK VINA RESULT:      -6.4      1.436      2.193
REMARK  Name = 
REMARK  6 active torsions:
REMARK  status: ('A' for Active; 'I' for Inactive)
REMARK    1  A    between atoms: C_1  and  C_2
REMARK    2  A    between atoms: C_2  and  C_3
REMARK    3  A    between atoms: C_3  and  C_4
REMARK    4  A    between atoms: C_3  and  S_5
REMARK    5  A    between atoms: S_5  and  C_6
REMARK    6  A    between atoms: N_12  and  C_13
REMARK                            x       y       z     vdW  Elec       q    Type
REMARK                         _______ _______ _______ _____ _____    ______ ____
ROOT
ATOM      1  C   UNL     1       3.660   5.283  19.165  0.00  0.00    +0.000 A 
ATOM      2  N   UNL     1       2.862   5.841  20.026  0.00  0.00    +0.000 NA
ATOM      3  C   UNL     1       2.364   7.063  19.696  0.00  0.00    +0.000 A 
ATOM      4  C   UNL     1       2.647   7.735  18.585  0.00  0.00    +0.000 A 
ATOM      5  C   UNL     1       3.582   7.153  17.604  0.00  0.00    +0.000 A 
ATOM      6  O   UNL     1       3.883   7.769  16.580  0.00  0.00    +0.000 OA
ATOM      7  N   UNL     1       4.039   5.874  17.946  0.00  0.00    +0.000 N 
ATOM      8  S   UNL     1       1.856   9.253  18.421  0.00  0.00    +0.000 S 
ATOM      9  C   UNL     1       0.734   8.870  19.816  0.00  0.00    +0.000 C 
ATOM     10  C   UNL     1       1.436   7.782  20.633  0.00  0.00    +0.000 C 
ENDROOT
BRANCH   7  11
ATOM     11  C   UNL     1       4.970   5.252  17.058  0.00  0.00    +0.000 A 
ATOM     12  C   UNL     1       4.498   4.472  15.995  0.00  0.00    +0.000 A 
ATOM     13  C   UNL     1       5.386   3.980  15.037  0.00  0.00    +0.000 A 
ATOM     14  C   UNL     1       6.751   4.237  15.154  0.00  0.00    +0.000 A 
ATOM     15  C   UNL     1       7.235   4.951  16.249  0.00  0.00    +0.000 A 
ATOM     16  C   UNL     1       6.350   5.449  17.205  0.00  0.00    +0.000 A 
ENDBRANCH   7  11
BRANCH   1  17
ATOM     17  S   UNL     1       4.364   3.734  19.636  0.00  0.00    +0.000 S 
BRANCH  17  18
ATOM     18  C   UNL     1       3.066   2.546  19.137  0.00  0.00    +0.000 C 
ATOM     19  C   UNL     1       3.694   1.572  18.134  0.00  0.00    +0.000 C 
BRANCH  18  21
ATOM     20  C   UNL     1       0.567   3.025  19.309  0.00  0.00    +0.000 C 
ATOM     21  C   UNL     1       1.857   3.284  18.539  0.00  0.00    +0.000 C 
ENDBRANCH  18  21
ENDBRANCH  17  18
ENDBRANCH   1  17
TORSDOF 4
ENDMDL
MODEL 8
REMARK VINA RESULT:      -6.4      1.426      1.796
REMARK  Name = 
REMARK  6 active torsions:
REMARK  status: ('A' for Active; 'I' for Inactive)
REMARK    1  A    between atoms: C_1  and  C_2
REMARK    2  A    between atoms: C_2  and  C_3
REMARK    3  A    between atoms: C_3  and  C_4
REMARK    4  A    between atoms: C_3  and  S_5
REMARK    5  A    between atoms: S_5  and  C_6
REMARK    6  A    between atoms: N_12  and  C_13
REMARK                            x       y       z     vdW  Elec       q    Type
REMARK                         _______ _______ _______ _____ _____    ______ ____
ROOT
ATOM      1  C   UNL     1       3.596   5.395  19.203  0.00  0.00    +0.000 A 
ATOM      2  N   UNL     1       2.808   5.849  20.132  0.00  0.00    +0.000 NA
ATOM      3  C   UNL     1       2.227   7.058  19.904  0.00  0.00    +0.000 A 
ATOM      4  C   UNL     1       2.421   7.814  18.829  0.00  0.00    +0.000 A 
ATOM      5  C   UNL     1       3.342   7.352  17.773  0.00  0.00    +0.000 A 
ATOM      6  O   UNL     1       3.561   8.048  16.781  0.00  0.00    +0.000 OA
ATOM      7  N   UNL     1       3.885   6.084  18.011  0.00  0.00    +0.000 N 
ATOM      8  S   UNL     1       1.539   9.289  18.799  0.00  0.00    +0.000 S 
ATOM      9  C   UNL     1       0.504   8.753  20.211  0.00  0.00    +0.000 C 
ATOM     10  C   UNL     1       1.304   7.659  20.924  0.00  0.00    +0.000 C 
ENDROOT
BRANCH   7  11
ATOM     11  C   UNL     1       4.808   5.576  17.046  0.00  0.00    +0.000 A 
ATOM     12  C   UNL     1       6.134   6.029  17.049  0.00  0.00    +0.000 A 
ATOM     13  C   UNL     1       7.080   5.438  16.211  0.00  0.00    +0.000 A 
ATOM     14  C   UNL     1       6.702   4.413  15.345  0.00  0.00    +0.000 A 
ATOM     15  C   UNL     1       5.370   4.007  15.285  0.00  0.00    +0.000 A 
ATOM     16  C   UNL     1       4.422   4.592  16.125  0.00  0.00    +0.000 A 
ENDBRANCH   7  11
BRANCH   1  17
ATOM     17  S   UNL     1       4.407   3.864  19.541  0.00  0.00    +0.000 S 
BRANCH  17  18
ATOM     18  C   UNL     1       3.098   2.638  19.183  0.00  0.00    +0.000 C 
ATOM     19  C   UNL     1       3.722   1.535  18.321  0.00  0.00    +0.000 C 
BRANCH  18  21
ATOM     20  C   UNL     1       0.569   2.681  18.856  0.00  0.00    +0.000 C 
ATOM     21  C   UNL     1       1.906   3.309  18.480  0.00  0.00    +0.000 C 
ENDBRANCH  18  21
ENDBRANCH  17  18
ENDBRANCH   1  17
TORSDOF 4
ENDMDL
MODEL 9
REMARK VINA RESULT:      -6.3      1.183      1.721
REMARK  Name = 
REMARK  6 active torsions:
REMARK  status: ('A' for Active; 'I' for Inactive)
REMARK    1  A    between atoms: C_1  and  C_2
REMARK    2  A    between atoms: C_2  and  C_3
REMARK    3  A    between atoms: C_3  and  C_4
REMARK    4  A    between atoms: C_3  and  S_5
REMARK    5  A    between atoms: S_5  and  C_6
REMARK    6  A    between atoms: N_12  and  C_13
REMARK                            x       y       z     vdW  Elec       q    Type
REMARK                         _______ _______ _______ _____ _____    ______ ____
ROOT
ATOM      1  C   UNL     1       3.250   5.611  19.208  0.00  0.00    +0.000 A 
ATOM      2  N   UNL     1       2.399   6.201  19.995  0.00  0.00    +0.000 NA
ATOM      3  C   UNL     1       2.016   7.459  19.648  0.00  0.00    +0.000 A 
ATOM      4  C   UNL     1       2.459   8.135  18.592  0.00  0.00    +0.000 A 
ATOM      5  C   UNL     1       3.457   7.515  17.701  0.00  0.00    +0.000 A 
ATOM      6  O   UNL     1       3.905   8.132  16.733  0.00  0.00    +0.000 OA
ATOM      7  N   UNL     1       3.794   6.203  18.054  0.00  0.00    +0.000 N 
ATOM      8  S   UNL     1       1.786   9.704  18.388  0.00  0.00    +0.000 S 
ATOM      9  C   UNL     1       0.498   9.364  19.644  0.00  0.00    +0.000 C 
ATOM     10  C   UNL     1       1.039   8.215  20.500  0.00  0.00    +0.000 C 
ENDROOT
BRANCH   7  11
ATOM     11  C   UNL     1       4.776   5.541  17.253  0.00  0.00    +0.000 A 
ATOM     12  C   UNL     1       6.134   5.690  17.559  0.00  0.00    +0.000 A 
ATOM     13  C   UNL     1       7.094   4.937  16.880  0.00  0.00    +0.000 A 
ATOM     14  C   UNL     1       6.704   4.056  15.872  0.00  0.00    +0.000 A 
ATOM     15  C   UNL     1       5.361   3.957  15.513  0.00  0.00    +0.000 A 
ATOM     16  C   UNL     1       4.398   4.704  16.193  0.00  0.00    +0.000 A 
ENDBRANCH   7  11
BRANCH   1  17
ATOM     17  S   UNL     1       3.802   4.010  19.707  0.00  0.00    +0.000 S 
BRANCH  17  18
ATOM     18  C   UNL     1       2.354   2.959  19.327  0.00  0.00    +0.000 C 
ATOM     19  C   UNL     1       1.708   3.508  18.051  0.00  0.00    +0.000 C 
BRANCH  18  21
ATOM     20  C   UNL     1       2.068   3.008  21.861  0.00  0.00    +0.000 C 
ATOM     21  C   UNL     1       1.369   2.948  20.508  0.00  0.00    +0.000 C 
ENDBRANCH  18  21
ENDBRANCH  17  18
ENDBRANCH   1  17
TORSDOF 4
ENDMDL
