MODEL 1
REMARK VINA RESULT:      -6.8      0.000      0.000
REMARK  Name = 
REMARK  15 active torsions:
REMARK  status: ('A' for Active; 'I' for Inactive)
REMARK    1  A    between atoms: C_1  and  C_2
REMARK    2  A    between atoms: C_2  and  C_3
REMARK    3  A    between atoms: C_5  and  C_6
REMARK    4  A    between atoms: C_6  and  C_7
REMARK    5  A    between atoms: C_8  and  C_9
REMARK    6  A    between atoms: C_9  and  C_11
REMARK    7  A    between atoms: C_11  and  C_12
REMARK    8  A    between atoms: C_12  and  S_13
REMARK    9  A    between atoms: C_12  and  C_18
REMARK   10  A    between atoms: S_13  and  C_14
REMARK   11  A    between atoms: C_14  and  C_15
REMARK   12  A    between atoms: C_15  and  O_17
REMARK   13  A    between atoms: C_18  and  O_20
REMARK   14  A    between atoms: C_21  and  C_22
REMARK   15  A    between atoms: C_22  and  C_23
REMARK                            x       y       z     vdW  Elec       q    Type
REMARK                         _______ _______ _______ _____ _____    ______ ____
ROOT
ATOM      1  C   UNL     1       5.178   4.634  18.979  0.00  0.00    +0.000 C 
ATOM      2  O   UNL     1       5.556   3.764  19.764  0.00  0.00    +0.000 OA
ENDROOT
BRANCH   1   6
ATOM      3  C   UNL     1       6.403   4.411  14.782  0.00  0.00    +0.000 A 
ATOM      4  C   UNL     1       5.255   3.746  15.199  0.00  0.00    +0.000 A 
ATOM      5  C   UNL     1       4.788   3.792  16.532  0.00  0.00    +0.000 A 
ATOM      6  C   UNL     1       5.540   4.551  17.494  0.00  0.00    +0.000 A 
ATOM      7  C   UNL     1       6.724   5.247  17.059  0.00  0.00    +0.000 A 
ATOM      8  C   UNL     1       7.116   5.150  15.707  0.00  0.00    +0.000 A 
BRANCH   3  10
ATOM      9  C   UNL     1       5.952   3.444  12.518  0.00  0.00    +0.000 C 
ATOM     10  C   UNL     1       6.819   4.393  13.332  0.00  0.00    +0.000 C 
ENDBRANCH   3  10
BRANCH   5  11
ATOM     11  C   UNL     1       3.451   3.108  16.787  0.00  0.00    +0.000 C 
ATOM     12  C   UNL     1       3.405   1.895  17.728  0.00  0.00    +0.000 C 
ENDBRANCH   5  11
BRANCH   7  13
ATOM     13  C   UNL     1       7.556   6.142  17.977  0.00  0.00    +0.000 C 
ATOM     14  C   UNL     1       7.650   7.636  17.625  0.00  0.00    +0.000 C 
ENDBRANCH   7  13
ENDBRANCH   1   6
BRANCH   1  15
ATOM     15  C   UNL     1       4.304   5.755  19.512  0.00  0.00    +0.000 C 
BRANCH  15  16
ATOM     16  C   UNL     1       2.931   5.889  18.836  0.00  0.00    +0.000 C 
BRANCH  16  17
ATOM     17  C   UNL     1       2.447   7.341  18.935  0.00  0.00    +0.000 C 
ATOM     18  O   UNL     1       1.933   7.829  19.926  0.00  0.00    +0.000 OA
BRANCH  17  19
ATOM     19  O   UNL     1       2.630   8.053  17.799  0.00  0.00    +0.000 OA
ATOM     20  H   UNL     1       1.835   8.071  17.222  0.00  0.00    +0.000 HD
ENDBRANCH  17  19
ENDBRANCH  16  17
BRANCH  16  21
ATOM     21  S   UNL     1       1.621   4.762  19.494  0.00  0.00    +0.000 S 
BRANCH  21  22
ATOM     22  C   UNL     1       2.217   4.515  21.213  0.00  0.00    +0.000 C 
BRANCH  22  23
ATOM     23  C   UNL     1       2.293   3.046  21.590  0.00  0.00    +0.000 C 
ATOM     24  O   UNL     1       1.417   2.480  22.223  0.00  0.00    +0.000 OA
BRANCH  23  25
ATOM     25  O   UNL     1       3.410   2.401  21.179  0.00  0.00    +0.000 OA
ATOM     26  H   UNL     1       4.217   2.908  21.416  0.00  0.00    +0.000 HD
ENDBRANCH  23  25
ENDBRANCH  22  23
ENDBRANCH  21  22
ENDBRANCH  16  21
ENDBRANCH  15  16
ENDBRANCH   1  15
TORSDOF 12
ENDMDL
MODEL 2
REMARK VINA RESULT:      -6.3      1.100      1.317
REMARK  Name = 
REMARK  15 active torsions:
REMARK  status: ('A' for Active; 'I' for Inactive)
REMARK    1  A    between atoms: C_1  and  C_2
REMARK    2  A    between atoms: C_2  and  C_3
REMARK    3  A    between atoms: C_5  and  C_6
REMARK    4  A    between atoms: C_6  and  C_7
REMARK    5  A    between atoms: C_8  and  C_9
REMARK    6  A    between atoms: C_9  and  C_11
REMARK    7  A    between atoms: C_11  and  C_12
REMARK    8  A    between atoms: C_12  and  S_13
REMARK    9  A    between atoms: C_12  and  C_18
REMARK   10  A    between atoms: S_13  and  C_14
REMARK   11  A    between atoms: C_14  and  C_15
REMARK   12  A    between atoms: C_15  and  O_17
REMARK   13  A    between atoms: C_18  and  O_20
REMARK   14  A    between atoms: C_21  and  C_22
REMARK   15  A    between atoms: C_22  and  C_23
REMARK                            x       y       z     vdW  Elec       q    Type
REMARK                         _______ _______ _______ _____ _____    ______ ____
ROOT
ATOM      1  C   UNL     1       5.308   4.853  18.941  0.00  0.00    +0.000 C 
ATOM      2  O   UNL     1       5.636   3.988  19.753  0.00  0.00    +0.000 OA
ENDROOT
BRANCH   1   6
ATOM      3  C   UNL     1       6.399   4.377  14.727  0.00  0.00    +0.000 A 
ATOM      4  C   UNL     1       5.258   3.750  15.218  0.00  0.00    +0.000 A 
ATOM      5  C   UNL     1       4.834   3.877  16.560  0.00  0.00    +0.000 A 
ATOM      6  C   UNL     1       5.623   4.681  17.453  0.00  0.00    +0.000 A 
ATOM      7  C   UNL     1       6.798   5.338  16.942  0.00  0.00    +0.000 A 
ATOM      8  C   UNL     1       7.147   5.160  15.586  0.00  0.00    +0.000 A 
BRANCH   3  10
ATOM      9  C   UNL     1       5.772   3.413  12.505  0.00  0.00    +0.000 C 
ATOM     10  C   UNL     1       6.768   4.271  13.270  0.00  0.00    +0.000 C 
ENDBRANCH   3  10
BRANCH   5  11
ATOM     11  C   UNL     1       3.498   3.223  16.894  0.00  0.00    +0.000 C 
ATOM     12  C   UNL     1       3.493   1.919  17.706  0.00  0.00    +0.000 C 
ENDBRANCH   5  11
BRANCH   7  13
ATOM     13  C   UNL     1       7.668   6.275  17.781  0.00  0.00    +0.000 C 
ATOM     14  C   UNL     1       7.593   7.780  17.479  0.00  0.00    +0.000 C 
ENDBRANCH   7  13
ENDBRANCH   1   6
BRANCH   1  15
ATOM     15  C   UNL     1       4.542   6.062  19.446  0.00  0.00    +0.000 C 
BRANCH  15  16
ATOM     16  C   UNL     1       3.014   5.905  19.462  0.00  0.00    +0.000 C 
BRANCH  16  17
ATOM     17  C   UNL     1       2.352   7.289  19.462  0.00  0.00    +0.000 C 
ATOM     18  O   UNL     1       2.197   7.977  18.469  0.00  0.00    +0.000 OA
BRANCH  17  19
ATOM     19  O   UNL     1       1.955   7.701  20.688  0.00  0.00    +0.000 OA
ATOM     20  H   UNL     1       2.705   7.937  21.278  0.00  0.00    +0.000 HD
ENDBRANCH  17  19
ENDBRANCH  16  17
BRANCH  16  21
ATOM     21  S   UNL     1       2.343   4.908  20.868  0.00  0.00    +0.000 S 
BRANCH  21  22
ATOM     22  C   UNL     1       0.817   4.228  20.103  0.00  0.00    +0.000 C 
BRANCH  22  23
ATOM     23  C   UNL     1       0.902   2.728  19.888  0.00  0.00    +0.000 C 
ATOM     24  O   UNL     1       1.542   1.989  20.619  0.00  0.00    +0.000 OA
BRANCH  23  25
ATOM     25  O   UNL     1       0.219   2.258  18.817  0.00  0.00    +0.000 OA
ATOM     26  H   UNL     1       0.828   1.855  18.161  0.00  0.00    +0.000 HD
ENDBRANCH  23  25
ENDBRANCH  22  23
ENDBRANCH  21  22
ENDBRANCH  16  21
ENDBRANCH  15  16
ENDBRANCH   1  15
TORSDOF 12
ENDMDL
MODEL 3
REMARK VINA RESULT:      -6.2      0.578      2.886
REMARK  Name = 
REMARK  15 active torsions:
REMARK  status: ('A' for Active; 'I' for Inactive)
REMARK    1  A    between atoms: C_1  and  C_2
REMARK    2  A    between atoms: C_2  and  C_3
REMARK    3  A    between atoms: C_5  and  C_6
REMARK    4  A    between atoms: C_6  and  C_7
REMARK    5  A    between atoms: C_8  and  C_9
REMARK    6  A    between atoms: C_9  and  C_11
REMARK    7  A    between atoms: C_11  and  C_12
REMARK    8  A    between atoms: C_12  and  S_13
REMARK    9  A    between atoms: C_12  and  C_18
REMARK   10  A    between atoms: S_13  and  C_14
REMARK   11  A    between atoms: C_14  and  C_15
REMARK   12  A    between atoms: C_15  and  O_17
REMARK   13  A    between atoms: C_18  and  O_20
REMARK   14  A    between atoms: C_21  and  C_22
REMARK   15  A    between atoms: C_22  and  C_23
REMARK                            x       y       z     vdW  Elec       q    Type
REMARK                         _______ _______ _______ _____ _____    ______ ____
ROOT
ATOM      1  C   UNL     1       4.987   4.611  19.095  0.00  0.00    +0.000 C 
ATOM      2  O   UNL     1       5.201   3.697  19.892  0.00  0.00    +0.000 OA
ENDROOT
BRANCH   1   6
ATOM      3  C   UNL     1       6.225   4.315  14.906  0.00  0.00    +0.000 A 
ATOM      4  C   UNL     1       6.971   5.087  15.791  0.00  0.00    +0.000 A 
ATOM      5  C   UNL     1       6.644   5.210  17.160  0.00  0.00    +0.000 A 
ATOM      6  C   UNL     1       5.485   4.515  17.651  0.00  0.00    +0.000 A 
ATOM      7  C   UNL     1       4.719   3.709  16.736  0.00  0.00    +0.000 A 
ATOM      8  C   UNL     1       5.119   3.638  15.385  0.00  0.00    +0.000 A 
BRANCH   3  10
ATOM      9  C   UNL     1       5.565   3.515  12.628  0.00  0.00    +0.000 C 
ATOM     10  C   UNL     1       6.658   4.155  13.471  0.00  0.00    +0.000 C 
ENDBRANCH   3  10
BRANCH   5  11
ATOM     11  C   UNL     1       7.637   5.995  18.008  0.00  0.00    +0.000 C 
ATOM     12  C   UNL     1       7.735   7.516  17.820  0.00  0.00    +0.000 C 
ENDBRANCH   5  11
BRANCH   7  13
ATOM     13  C   UNL     1       3.515   2.869  17.163  0.00  0.00    +0.000 C 
ATOM     14  C   UNL     1       3.791   1.512  17.831  0.00  0.00    +0.000 C 
ENDBRANCH   7  13
ENDBRANCH   1   6
BRANCH   1  15
ATOM     15  C   UNL     1       4.177   5.804  19.568  0.00  0.00    +0.000 C 
BRANCH  15  16
ATOM     16  C   UNL     1       2.873   6.055  18.795  0.00  0.00    +0.000 C 
BRANCH  16  17
ATOM     17  C   UNL     1       2.350   7.462  19.107  0.00  0.00    +0.000 C 
ATOM     18  O   UNL     1       2.179   8.333  18.273  0.00  0.00    +0.000 OA
BRANCH  17  19
ATOM     19  O   UNL     1       2.098   7.668  20.421  0.00  0.00    +0.000 OA
ATOM     20  H   UNL     1       2.266   8.593  20.706  0.00  0.00    +0.000 HD
ENDBRANCH  17  19
ENDBRANCH  16  17
BRANCH  16  21
ATOM     21  S   UNL     1       1.530   4.821  19.103  0.00  0.00    +0.000 S 
BRANCH  21  22
ATOM     22  C   UNL     1       1.844   4.411  20.866  0.00  0.00    +0.000 C 
BRANCH  22  23
ATOM     23  C   UNL     1       1.539   2.958  21.181  0.00  0.00    +0.000 C 
ATOM     24  O   UNL     1       1.598   2.499  22.310  0.00  0.00    +0.000 OA
BRANCH  23  25
ATOM     25  O   UNL     1       1.200   2.194  20.115  0.00  0.00    +0.000 OA
ATOM     26  H   UNL     1       1.973   2.047  19.528  0.00  0.00    +0.000 HD
ENDBRANCH  23  25
ENDBRANCH  22  23
ENDBRANCH  21  22
ENDBRANCH  16  21
ENDBRANCH  15  16
ENDBRANCH   1  15
TORSDOF 12
ENDMDL
MODEL 4
REMARK VINA RESULT:      -6.1      0.858      2.945
REMARK  Name = 
REMARK  15 active torsions:
REMARK  status: ('A' for Active; 'I' for Inactive)
REMARK    1  A    between atoms: C_1  and  C_2
REMARK    2  A    between atoms: C_2  and  C_3
REMARK    3  A    between atoms: C_5  and  C_6
REMARK    4  A    between atoms: C_6  and  C_7
REMARK    5  A    between atoms: C_8  and  C_9
REMARK    6  A    between atoms: C_9  and  C_11
REMARK    7  A    between atoms: C_11  and  C_12
REMARK    8  A    between atoms: C_12  and  S_13
REMARK    9  A    between atoms: C_12  and  C_18
REMARK   10  A    between atoms: S_13  and  C_14
REMARK   11  A    between atoms: C_14  and  C_15
REMARK   12  A    between atoms: C_15  and  O_17
REMARK   13  A    between atoms: C_18  and  O_20
REMARK   14  A    between atoms: C_21  and  C_22
REMARK   15  A    between atoms: C_22  and  C_23
REMARK                            x       y       z     vdW  Elec       q    Type
REMARK                         _______ _______ _______ _____ _____    ______ ____
ROOT
ATOM      1  C   UNL     1       5.170   4.634  19.026  0.00  0.00    +0.000 C 
ATOM      2  O   UNL     1       5.366   3.681  19.781  0.00  0.00    +0.000 OA
ENDROOT
BRANCH   1   6
ATOM      3  C   UNL     1       6.258   4.411  14.791  0.00  0.00    +0.000 A 
ATOM      4  C   UNL     1       6.973   5.247  15.641  0.00  0.00    +0.000 A 
ATOM      5  C   UNL     1       6.692   5.353  17.022  0.00  0.00    +0.000 A 
ATOM      6  C   UNL     1       5.615   4.568  17.562  0.00  0.00    +0.000 A 
ATOM      7  C   UNL     1       4.882   3.695  16.683  0.00  0.00    +0.000 A 
ATOM      8  C   UNL     1       5.232   3.649  15.317  0.00  0.00    +0.000 A 
BRANCH   3  10
ATOM      9  C   UNL     1       7.798   5.203  12.984  0.00  0.00    +0.000 C 
ATOM     10  C   UNL     1       6.645   4.277  13.339  0.00  0.00    +0.000 C 
ENDBRANCH   3  10
BRANCH   5  11
ATOM     11  C   UNL     1       7.651   6.223  17.826  0.00  0.00    +0.000 C 
ATOM     12  C   UNL     1       7.639   7.743  17.603  0.00  0.00    +0.000 C 
ENDBRANCH   5  11
BRANCH   7  13
ATOM     13  C   UNL     1       3.770   2.762  17.162  0.00  0.00    +0.000 C 
ATOM     14  C   UNL     1       2.322   3.274  17.080  0.00  0.00    +0.000 C 
ENDBRANCH   7  13
ENDBRANCH   1   6
BRANCH   1  15
ATOM     15  C   UNL     1       4.434   5.845  19.568  0.00  0.00    +0.000 C 
BRANCH  15  16
ATOM     16  C   UNL     1       2.985   6.000  19.081  0.00  0.00    +0.000 C 
BRANCH  16  17
ATOM     17  C   UNL     1       2.841   7.311  18.298  0.00  0.00    +0.000 C 
ATOM     18  O   UNL     1       1.973   8.141  18.500  0.00  0.00    +0.000 OA
BRANCH  17  19
ATOM     19  O   UNL     1       3.774   7.470  17.330  0.00  0.00    +0.000 OA
ATOM     20  H   UNL     1       4.569   7.958  17.637  0.00  0.00    +0.000 HD
ENDBRANCH  17  19
ENDBRANCH  16  17
BRANCH  16  21
ATOM     21  S   UNL     1       1.700   5.938  20.410  0.00  0.00    +0.000 S 
BRANCH  21  22
ATOM     22  C   UNL     1       2.214   4.419  21.307  0.00  0.00    +0.000 C 
BRANCH  22  23
ATOM     23  C   UNL     1       1.680   3.157  20.653  0.00  0.00    +0.000 C 
ATOM     24  O   UNL     1       2.375   2.177  20.442  0.00  0.00    +0.000 OA
BRANCH  23  25
ATOM     25  O   UNL     1       0.370   3.193  20.311  0.00  0.00    +0.000 OA
ATOM     26  H   UNL     1      -0.185   3.469  21.072  0.00  0.00    +0.000 HD
ENDBRANCH  23  25
ENDBRANCH  22  23
ENDBRANCH  21  22
ENDBRANCH  16  21
ENDBRANCH  15  16
ENDBRANCH   1  15
TORSDOF 12
ENDMDL
MODEL 5
REMARK VINA RESULT:      -6.1      3.236      6.473
REMARK  Name = 
REMARK  15 active torsions:
REMARK  status: ('A' for Active; 'I' for Inactive)
REMARK    1  A    between atoms: C_1  and  C_2
REMARK    2  A    between atoms: C_2  and  C_3
REMARK    3  A    between atoms: C_5  and  C_6
REMARK    4  A    between atoms: C_6  and  C_7
REMARK    5  A    between atoms: C_8  and  C_9
REMARK    6  A    between atoms: C_9  and  C_11
REMARK    7  A    between atoms: C_11  and  C_12
REMARK    8  A    between atoms: C_12  and  S_13
REMARK    9  A    between atoms: C_12  and  C_18
REMARK   10  A    between atoms: S_13  and  C_14
REMARK   11  A    between atoms: C_14  and  C_15
REMARK   12  A    between atoms: C_15  and  O_17
REMARK   13  A    between atoms: C_18  and  O_20
REMARK   14  A    between atoms: C_21  and  C_22
REMARK   15  A    between atoms: C_22  and  C_23
REMARK                            x       y       z     vdW  Elec       q    Type
REMARK                         _______ _______ _______ _____ _____    ______ ____
ROOT
ATOM      1  C   UNL     1       5.145   6.637  16.705  0.00  0.00    +0.000 C 
ATOM      2  O   UNL     1       5.278   6.906  15.511  0.00  0.00    +0.000 OA
ENDROOT
BRANCH   1   6
ATOM      3  C   UNL     1       2.207   3.652  17.980  0.00  0.00    +0.000 A 
ATOM      4  C   UNL     1       3.289   3.261  17.199  0.00  0.00    +0.000 A 
ATOM      5  C   UNL     1       4.287   4.165  16.770  0.00  0.00    +0.000 A 
ATOM      6  C   UNL     1       4.168   5.546  17.151  0.00  0.00    +0.000 A 
ATOM      7  C   UNL     1       3.051   5.948  17.967  0.00  0.00    +0.000 A 
ATOM      8  C   UNL     1       2.102   4.978  18.354  0.00  0.00    +0.000 A 
BRANCH   3  10
ATOM      9  C   UNL     1       0.798   2.915  19.912  0.00  0.00    +0.000 C 
ATOM     10  C   UNL     1       1.208   2.636  18.474  0.00  0.00    +0.000 C 
ENDBRANCH   3  10
BRANCH   5  11
ATOM     11  C   UNL     1       5.464   3.545  16.027  0.00  0.00    +0.000 C 
ATOM     12  C   UNL     1       5.628   3.830  14.527  0.00  0.00    +0.000 C 
ENDBRANCH   5  11
BRANCH   7  13
ATOM     13  C   UNL     1       2.865   7.372  18.492  0.00  0.00    +0.000 C 
ATOM     14  C   UNL     1       1.972   8.323  17.678  0.00  0.00    +0.000 C 
ENDBRANCH   7  13
ENDBRANCH   1   6
BRANCH   1  15
ATOM     15  C   UNL     1       6.011   7.373  17.711  0.00  0.00    +0.000 C 
BRANCH  15  16
ATOM     16  C   UNL     1       7.445   6.841  17.852  0.00  0.00    +0.000 C 
BRANCH  16  17
ATOM     17  C   UNL     1       7.423   5.477  18.552  0.00  0.00    +0.000 C 
ATOM     18  O   UNL     1       7.920   4.462  18.096  0.00  0.00    +0.000 OA
BRANCH  17  19
ATOM     19  O   UNL     1       6.780   5.488  19.743  0.00  0.00    +0.000 OA
ATOM     20  H   UNL     1       7.311   5.099  20.472  0.00  0.00    +0.000 HD
ENDBRANCH  17  19
ENDBRANCH  16  17
BRANCH  16  21
ATOM     21  S   UNL     1       8.614   7.965  18.741  0.00  0.00    +0.000 S 
BRANCH  21  22
ATOM     22  C   UNL     1       8.259   9.559  17.898  0.00  0.00    +0.000 C 
BRANCH  22  23
ATOM     23  C   UNL     1       9.059  10.709  18.484  0.00  0.00    +0.000 C 
ATOM     24  O   UNL     1       9.666  10.623  19.538  0.00  0.00    +0.000 OA
BRANCH  23  25
ATOM     25  O   UNL     1       9.048  11.850  17.754  0.00  0.00    +0.000 OA
ATOM     26  H   UNL     1       9.002  11.653  16.794  0.00  0.00    +0.000 HD
ENDBRANCH  23  25
ENDBRANCH  22  23
ENDBRANCH  21  22
ENDBRANCH  16  21
ENDBRANCH  15  16
ENDBRANCH   1  15
TORSDOF 12
ENDMDL
MODEL 6
REMARK VINA RESULT:      -6.1      3.191      6.346
REMARK  Name = 
REMARK  15 active torsions:
REMARK  status: ('A' for Active; 'I' for Inactive)
REMARK    1  A    between atoms: C_1  and  C_2
REMARK    2  A    between atoms: C_2  and  C_3
REMARK    3  A    between atoms: C_5  and  C_6
REMARK    4  A    between atoms: C_6  and  C_7
REMARK    5  A    between atoms: C_8  and  C_9
REMARK    6  A    between atoms: C_9  and  C_11
REMARK    7  A    between atoms: C_11  and  C_12
REMARK    8  A    between atoms: C_12  and  S_13
REMARK    9  A    between atoms: C_12  and  C_18
REMARK   10  A    between atoms: S_13  and  C_14
REMARK   11  A    between atoms: C_14  and  C_15
REMARK   12  A    between atoms: C_15  and  O_17
REMARK   13  A    between atoms: C_18  and  O_20
REMARK   14  A    between atoms: C_21  and  C_22
REMARK   15  A    between atoms: C_22  and  C_23
REMARK                            x       y       z     vdW  Elec       q    Type
REMARK                         _______ _______ _______ _____ _____    ______ ____
ROOT
ATOM      1  C   UNL     1       5.161   6.591  16.518  0.00  0.00    +0.000 C 
ATOM      2  O   UNL     1       5.201   6.923  15.333  0.00  0.00    +0.000 OA
ENDROOT
BRANCH   1   6
ATOM      3  C   UNL     1       2.605   3.270  17.786  0.00  0.00    +0.000 A 
ATOM      4  C   UNL     1       3.704   3.020  16.972  0.00  0.00    +0.000 A 
ATOM      5  C   UNL     1       4.584   4.039  16.542  0.00  0.00    +0.000 A 
ATOM      6  C   UNL     1       4.322   5.389  16.960  0.00  0.00    +0.000 A 
ATOM      7  C   UNL     1       3.189   5.646  17.811  0.00  0.00    +0.000 A 
ATOM      8  C   UNL     1       2.364   4.569  18.196  0.00  0.00    +0.000 A 
BRANCH   3  10
ATOM      9  C   UNL     1       0.617   2.646  19.173  0.00  0.00    +0.000 C 
ATOM     10  C   UNL     1       1.739   2.139  18.279  0.00  0.00    +0.000 C 
ENDBRANCH   3  10
BRANCH   5  11
ATOM     11  C   UNL     1       5.803   3.570  15.757  0.00  0.00    +0.000 C 
ATOM     12  C   UNL     1       5.859   3.835  14.245  0.00  0.00    +0.000 C 
ENDBRANCH   5  11
BRANCH   7  13
ATOM     13  C   UNL     1       2.859   7.029  18.375  0.00  0.00    +0.000 C 
ATOM     14  C   UNL     1       2.242   7.098  19.781  0.00  0.00    +0.000 C 
ENDBRANCH   7  13
ENDBRANCH   1   6
BRANCH   1  15
ATOM     15  C   UNL     1       6.002   7.369  17.514  0.00  0.00    +0.000 C 
BRANCH  15  16
ATOM     16  C   UNL     1       7.377   6.759  17.823  0.00  0.00    +0.000 C 
BRANCH  16  17
ATOM     17  C   UNL     1       7.201   5.476  18.645  0.00  0.00    +0.000 C 
ATOM     18  O   UNL     1       6.557   5.403  19.676  0.00  0.00    +0.000 OA
BRANCH  17  19
ATOM     19  O   UNL     1       7.844   4.405  18.123  0.00  0.00    +0.000 OA
ATOM     20  H   UNL     1       8.647   4.153  18.630  0.00  0.00    +0.000 HD
ENDBRANCH  17  19
ENDBRANCH  16  17
BRANCH  16  21
ATOM     21  S   UNL     1       8.556   7.886  18.697  0.00  0.00    +0.000 S 
BRANCH  21  22
ATOM     22  C   UNL     1       8.176   9.481  17.869  0.00  0.00    +0.000 C 
BRANCH  22  23
ATOM     23  C   UNL     1       9.015  10.624  18.411  0.00  0.00    +0.000 C 
ATOM     24  O   UNL     1       9.229  11.646  17.779  0.00  0.00    +0.000 OA
BRANCH  23  25
ATOM     25  O   UNL     1       9.521  10.432  19.652  0.00  0.00    +0.000 OA
ATOM     26  H   UNL     1       9.840  11.276  20.037  0.00  0.00    +0.000 HD
ENDBRANCH  23  25
ENDBRANCH  22  23
ENDBRANCH  21  22
ENDBRANCH  16  21
ENDBRANCH  15  16
ENDBRANCH   1  15
TORSDOF 12
ENDMDL
MODEL 7
REMARK VINA RESULT:      -6.0      2.862      7.134
REMARK  Name = 
REMARK  15 active torsions:
REMARK  status: ('A' for Active; 'I' for Inactive)
REMARK    1  A    between atoms: C_1  and  C_2
REMARK    2  A    between atoms: C_2  and  C_3
REMARK    3  A    between atoms: C_5  and  C_6
REMARK    4  A    between atoms: C_6  and  C_7
REMARK    5  A    between atoms: C_8  and  C_9
REMARK    6  A    between atoms: C_9  and  C_11
REMARK    7  A    between atoms: C_11  and  C_12
REMARK    8  A    between atoms: C_12  and  S_13
REMARK    9  A    between atoms: C_12  and  C_18
REMARK   10  A    between atoms: S_13  and  C_14
REMARK   11  A    between atoms: C_14  and  C_15
REMARK   12  A    between atoms: C_15  and  O_17
REMARK   13  A    between atoms: C_18  and  O_20
REMARK   14  A    between atoms: C_21  and  C_22
REMARK   15  A    between atoms: C_22  and  C_23
REMARK                            x       y       z     vdW  Elec       q    Type
REMARK                         _______ _______ _______ _____ _____    ______ ____
ROOT
ATOM      1  C   UNL     1       3.327   5.450  18.535  0.00  0.00    +0.000 C 
ATOM      2  O   UNL     1       2.888   4.984  17.483  0.00  0.00    +0.000 OA
ENDROOT
BRANCH   1   6
ATOM      3  C   UNL     1       0.930   8.044  21.123  0.00  0.00    +0.000 A 
ATOM      4  C   UNL     1       1.489   8.561  19.959  0.00  0.00    +0.000 A 
ATOM      5  C   UNL     1       2.255   7.778  19.066  0.00  0.00    +0.000 A 
ATOM      6  C   UNL     1       2.469   6.392  19.384  0.00  0.00    +0.000 A 
ATOM      7  C   UNL     1       1.882   5.855  20.584  0.00  0.00    +0.000 A 
ATOM      8  C   UNL     1       1.127   6.708  21.418  0.00  0.00    +0.000 A 
BRANCH   3  10
ATOM      9  C   UNL     1      -0.404  10.156  21.277  0.00  0.00    +0.000 C 
ATOM     10  C   UNL     1       0.058   8.902  22.004  0.00  0.00    +0.000 C 
ENDBRANCH   3  10
BRANCH   5  11
ATOM     11  C   UNL     1       2.688   8.475  17.782  0.00  0.00    +0.000 C 
ATOM     12  C   UNL     1       2.279   9.938  17.557  0.00  0.00    +0.000 C 
ENDBRANCH   5  11
BRANCH   7  13
ATOM     13  C   UNL     1       1.981   4.382  20.981  0.00  0.00    +0.000 C 
ATOM     14  C   UNL     1       0.994   3.399  20.332  0.00  0.00    +0.000 C 
ENDBRANCH   7  13
ENDBRANCH   1   6
BRANCH   1  15
ATOM     15  C   UNL     1       4.711   5.026  18.989  0.00  0.00    +0.000 C 
BRANCH  15  16
ATOM     16  C   UNL     1       5.847   5.340  18.003  0.00  0.00    +0.000 C 
BRANCH  16  17
ATOM     17  C   UNL     1       7.102   5.760  18.777  0.00  0.00    +0.000 C 
ATOM     18  O   UNL     1       7.354   5.417  19.918  0.00  0.00    +0.000 OA
BRANCH  17  19
ATOM     19  O   UNL     1       7.924   6.575  18.075  0.00  0.00    +0.000 OA
ATOM     20  H   UNL     1       8.436   7.190  18.645  0.00  0.00    +0.000 HD
ENDBRANCH  17  19
ENDBRANCH  16  17
BRANCH  16  21
ATOM     21  S   UNL     1       5.451   6.627  16.735  0.00  0.00    +0.000 S 
BRANCH  21  22
ATOM     22  C   UNL     1       5.335   5.589  15.223  0.00  0.00    +0.000 C 
BRANCH  22  23
ATOM     23  C   UNL     1       6.637   4.869  14.919  0.00  0.00    +0.000 C 
ATOM     24  O   UNL     1       7.729   5.326  15.212  0.00  0.00    +0.000 OA
BRANCH  23  25
ATOM     25  O   UNL     1       6.504   3.677  14.290  0.00  0.00    +0.000 OA
ATOM     26  H   UNL     1       5.581   3.539  13.990  0.00  0.00    +0.000 HD
ENDBRANCH  23  25
ENDBRANCH  22  23
ENDBRANCH  21  22
ENDBRANCH  16  21
ENDBRANCH  15  16
ENDBRANCH   1  15
TORSDOF 12
ENDMDL
MODEL 8
REMARK VINA RESULT:      -6.0      1.613      4.450
REMARK  Name = 
REMARK  15 active torsions:
REMARK  status: ('A' for Active; 'I' for Inactive)
REMARK    1  A    between atoms: C_1  and  C_2
REMARK    2  A    between atoms: C_2  and  C_3
REMARK    3  A    between atoms: C_5  and  C_6
REMARK    4  A    between atoms: C_6  and  C_7
REMARK    5  A    between atoms: C_8  and  C_9
REMARK    6  A    between atoms: C_9  and  C_11
REMARK    7  A    between atoms: C_11  and  C_12
REMARK    8  A    between atoms: C_12  and  S_13
REMARK    9  A    between atoms: C_12  and  C_18
REMARK   10  A    between atoms: S_13  and  C_14
REMARK   11  A    between atoms: C_14  and  C_15
REMARK   12  A    between atoms: C_15  and  O_17
REMARK   13  A    between atoms: C_18  and  O_20
REMARK   14  A    between atoms: C_21  and  C_22
REMARK   15  A    between atoms: C_22  and  C_23
REMARK                            x       y       z     vdW  Elec       q    Type
REMARK                         _______ _______ _______ _____ _____    ______ ____
ROOT
ATOM      1  C   UNL     1       4.578   5.455  18.912  0.00  0.00    +0.000 C 
ATOM      2  O   UNL     1       5.043   4.980  19.948  0.00  0.00    +0.000 OA
ENDROOT
BRANCH   1   6
ATOM      3  C   UNL     1       6.274   4.594  14.968  0.00  0.00    +0.000 A 
ATOM      4  C   UNL     1       6.946   5.450  15.834  0.00  0.00    +0.000 A 
ATOM      5  C   UNL     1       6.470   5.756  17.129  0.00  0.00    +0.000 A 
ATOM      6  C   UNL     1       5.234   5.162  17.560  0.00  0.00    +0.000 A 
ATOM      7  C   UNL     1       4.543   4.268  16.667  0.00  0.00    +0.000 A 
ATOM      8  C   UNL     1       5.093   4.015  15.392  0.00  0.00    +0.000 A 
BRANCH   3  10
ATOM      9  C   UNL     1       5.854   3.507  12.754  0.00  0.00    +0.000 C 
ATOM     10  C   UNL     1       6.862   4.241  13.626  0.00  0.00    +0.000 C 
ENDBRANCH   3  10
BRANCH   5  11
ATOM     11  C   UNL     1       7.392   6.614  17.986  0.00  0.00    +0.000 C 
ATOM     12  C   UNL     1       7.732   8.036  17.517  0.00  0.00    +0.000 C 
ENDBRANCH   5  11
BRANCH   7  13
ATOM     13  C   UNL     1       3.263   3.523  17.047  0.00  0.00    +0.000 C 
ATOM     14  C   UNL     1       3.406   2.230  17.867  0.00  0.00    +0.000 C 
ENDBRANCH   7  13
ENDBRANCH   1   6
BRANCH   1  15
ATOM     15  C   UNL     1       3.315   6.290  19.006  0.00  0.00    +0.000 C 
BRANCH  15  16
ATOM     16  C   UNL     1       2.593   6.232  20.361  0.00  0.00    +0.000 C 
BRANCH  16  17
ATOM     17  C   UNL     1       1.876   4.884  20.507  0.00  0.00    +0.000 C 
ATOM     18  O   UNL     1       0.985   4.496  19.774  0.00  0.00    +0.000 OA
BRANCH  17  19
ATOM     19  O   UNL     1       2.318   4.145  21.552  0.00  0.00    +0.000 OA
ATOM     20  H   UNL     1       1.895   3.260  21.605  0.00  0.00    +0.000 HD
ENDBRANCH  17  19
ENDBRANCH  16  17
BRANCH  16  21
ATOM     21  S   UNL     1       1.387   7.601  20.666  0.00  0.00    +0.000 S 
BRANCH  21  22
ATOM     22  C   UNL     1       1.705   8.666  19.203  0.00  0.00    +0.000 C 
BRANCH  22  23
ATOM     23  C   UNL     1       0.680   9.777  19.067  0.00  0.00    +0.000 C 
ATOM     24  O   UNL     1       0.172  10.329  20.029  0.00  0.00    +0.000 OA
BRANCH  23  25
ATOM     25  O   UNL     1       0.359  10.114  17.796  0.00  0.00    +0.000 OA
ATOM     26  H   UNL     1       0.248  11.085  17.707  0.00  0.00    +0.000 HD
ENDBRANCH  23  25
ENDBRANCH  22  23
ENDBRANCH  21  22
ENDBRANCH  16  21
ENDBRANCH  15  16
ENDBRANCH   1  15
TORSDOF 12
ENDMDL
MODEL 9
REMARK VINA RESULT:      -6.0      3.049      7.101
REMARK  Name = 
REMARK  15 active torsions:
REMARK  status: ('A' for Active; 'I' for Inactive)
REMARK    1  A    between atoms: C_1  and  C_2
REMARK    2  A    between atoms: C_2  and  C_3
REMARK    3  A    between atoms: C_5  and  C_6
REMARK    4  A    between atoms: C_6  and  C_7
REMARK    5  A    between atoms: C_8  and  C_9
REMARK    6  A    between atoms: C_9  and  C_11
REMARK    7  A    between atoms: C_11  and  C_12
REMARK    8  A    between atoms: C_12  and  S_13
REMARK    9  A    between atoms: C_12  and  C_18
REMARK   10  A    between atoms: S_13  and  C_14
REMARK   11  A    between atoms: C_14  and  C_15
REMARK   12  A    between atoms: C_15  and  O_17
REMARK   13  A    between atoms: C_18  and  O_20
REMARK   14  A    between atoms: C_21  and  C_22
REMARK   15  A    between atoms: C_22  and  C_23
REMARK                            x       y       z     vdW  Elec       q    Type
REMARK                         _______ _______ _______ _____ _____    ______ ____
ROOT
ATOM      1  C   UNL     1       2.879   6.098  18.211  0.00  0.00    +0.000 C 
ATOM      2  O   UNL     1       2.266   5.291  17.512  0.00  0.00    +0.000 OA
ENDROOT
BRANCH   1   6
ATOM      3  C   UNL     1       0.739   8.395  21.263  0.00  0.00    +0.000 A 
ATOM      4  C   UNL     1       1.055   7.062  21.501  0.00  0.00    +0.000 A 
ATOM      5  C   UNL     1       1.762   6.266  20.572  0.00  0.00    +0.000 A 
ATOM      6  C   UNL     1       2.161   6.863  19.326  0.00  0.00    +0.000 A 
ATOM      7  C   UNL     1       1.842   8.247  19.084  0.00  0.00    +0.000 A 
ATOM      8  C   UNL     1       1.136   8.968  20.070  0.00  0.00    +0.000 A 
BRANCH   3  10
ATOM      9  C   UNL     1      -0.083  10.675  21.886  0.00  0.00    +0.000 C 
ATOM     10  C   UNL     1       0.048   9.223  22.318  0.00  0.00    +0.000 C 
ENDBRANCH   3  10
BRANCH   5  11
ATOM     11  C   UNL     1       2.129   4.866  21.046  0.00  0.00    +0.000 C 
ATOM     12  C   UNL     1       1.206   3.693  20.680  0.00  0.00    +0.000 C 
ENDBRANCH   5  11
BRANCH   7  13
ATOM     13  C   UNL     1       2.282   9.003  17.830  0.00  0.00    +0.000 C 
ATOM     14  C   UNL     1       2.152  10.534  17.836  0.00  0.00    +0.000 C 
ENDBRANCH   7  13
ENDBRANCH   1   6
BRANCH   1  15
ATOM     15  C   UNL     1       4.367   6.274  17.972  0.00  0.00    +0.000 C 
BRANCH  15  16
ATOM     16  C   UNL     1       5.183   4.972  17.950  0.00  0.00    +0.000 C 
BRANCH  16  17
ATOM     17  C   UNL     1       6.662   5.284  18.207  0.00  0.00    +0.000 C 
ATOM     18  O   UNL     1       7.094   6.390  18.478  0.00  0.00    +0.000 OA
BRANCH  17  19
ATOM     19  O   UNL     1       7.472   4.206  18.094  0.00  0.00    +0.000 OA
ATOM     20  H   UNL     1       8.310   4.297  18.599  0.00  0.00    +0.000 HD
ENDBRANCH  17  19
ENDBRANCH  16  17
BRANCH  16  21
ATOM     21  S   UNL     1       5.029   3.977  16.398  0.00  0.00    +0.000 S 
BRANCH  21  22
ATOM     22  C   UNL     1       5.554   5.217  15.148  0.00  0.00    +0.000 C 
BRANCH  22  23
ATOM     23  C   UNL     1       6.735   4.736  14.323  0.00  0.00    +0.000 C 
ATOM     24  O   UNL     1       7.783   5.355  14.246  0.00  0.00    +0.000 OA
BRANCH  23  25
ATOM     25  O   UNL     1       6.544   3.567  13.667  0.00  0.00    +0.000 OA
ATOM     26  H   UNL     1       6.145   2.893  14.258  0.00  0.00    +0.000 HD
ENDBRANCH  23  25
ENDBRANCH  22  23
ENDBRANCH  21  22
ENDBRANCH  16  21
ENDBRANCH  15  16
ENDBRANCH   1  15
TORSDOF 12
ENDMDL
