MODEL 1
REMARK VINA RESULT:      -8.2      0.000      0.000
REMARK  Name = 
REMARK  6 active torsions:
REMARK  status: ('A' for Active; 'I' for Inactive)
REMARK    1  A    between atoms: C_4  and  C_5
REMARK    2  A    between atoms: C_14  and  O_15
REMARK    3  A    between atoms: O_15  and  C_16
REMARK    4  A    between atoms: C_16  and  C_17
REMARK    5  A    between atoms: C_17  and  C_18
REMARK    6  A    between atoms: C_18  and  N_19
REMARK                            x       y       z     vdW  Elec       q    Type
REMARK                         _______ _______ _______ _____ _____    ______ ____
ROOT
ATOM      1  C   UNL     1       5.052   4.917  18.563  0.00  0.00    +0.000 C 
ATOM      2  C   UNL     1       4.501   3.561  19.104  0.00  0.00    +0.000 C 
ATOM      3  N   UNL     1       3.153   3.616  19.661  0.00  0.00    +0.000 NA
ATOM      4  C   UNL     1       2.804   2.564  20.601  0.00  0.00    +0.000 C 
ATOM      5  C   UNL     1       1.411   3.008  21.035  0.00  0.00    +0.000 C 
ATOM      6  C   UNL     1       1.382   4.521  20.790  0.00  0.00    +0.000 C 
ATOM      7  C   UNL     1       2.800   4.872  20.324  0.00  0.00    +0.000 C 
ATOM      8  C   UNL     1       2.934   6.036  19.379  0.00  0.00    +0.000 A 
ATOM      9  C   UNL     1       2.087   7.152  19.433  0.00  0.00    +0.000 A 
ATOM     10  C   UNL     1       2.224   8.204  18.523  0.00  0.00    +0.000 A 
ATOM     11  C   UNL     1       3.210   8.142  17.547  0.00  0.00    +0.000 A 
ATOM     12  C   UNL     1       4.099   7.070  17.522  0.00  0.00    +0.000 A 
ATOM     13  C   UNL     1       3.990   6.020  18.446  0.00  0.00    +0.000 A 
ENDROOT
BRANCH   1  17
ATOM     14  C   UNL     1       6.726   3.985  15.174  0.00  0.00    +0.000 A 
ATOM     15  N   UNL     1       7.704   4.522  15.868  0.00  0.00    +0.000 NA
ATOM     16  C   UNL     1       7.213   4.966  17.082  0.00  0.00    +0.000 A 
ATOM     17  C   UNL     1       5.865   4.747  17.302  0.00  0.00    +0.000 A 
ATOM     18  S   UNL     1       5.170   4.043  15.890  0.00  0.00    +0.000 S 
ENDBRANCH   1  17
BRANCH  10  19
ATOM     19  O   UNL     1       1.345   9.237  18.696  0.00  0.00    +0.000 OA
BRANCH  19  20
ATOM     20  C   UNL     1       1.722  10.498  18.140  0.00  0.00    +0.000 C 
BRANCH  20  21
ATOM     21  C   UNL     1       1.009  11.575  18.948  0.00  0.00    +0.000 C 
BRANCH  21  22
ATOM     22  C   UNL     1       0.136  10.971  20.049  0.00  0.00    +0.000 C 
BRANCH  22  23
ATOM     23  N   UNL     1       0.578  11.348  21.400  0.00  0.00    +0.000 NA
ATOM     24  C   UNL     1       0.790  10.153  22.246  0.00  0.00    +0.000 C 
ATOM     25  C   UNL     1      -0.517   9.493  22.724  0.00  0.00    +0.000 C 
ATOM     26  O   UNL     1      -1.348  10.427  23.424  0.00  0.00    +0.000 OA
ATOM     27  C   UNL     1      -1.639  11.566  22.607  0.00  0.00    +0.000 C 
ATOM     28  C   UNL     1      -0.352  12.247  22.114  0.00  0.00    +0.000 C 
ENDBRANCH  22  23
ENDBRANCH  21  22
ENDBRANCH  20  21
ENDBRANCH  19  20
ENDBRANCH  10  19
TORSDOF 6
ENDMDL
MODEL 2
REMARK VINA RESULT:      -8.1      2.450      3.135
REMARK  Name = 
REMARK  6 active torsions:
REMARK  status: ('A' for Active; 'I' for Inactive)
REMARK    1  A    between atoms: C_4  and  C_5
REMARK    2  A    between atoms: C_14  and  O_15
REMARK    3  A    between atoms: O_15  and  C_16
REMARK    4  A    between atoms: C_16  and  C_17
REMARK    5  A    between atoms: C_17  and  C_18
REMARK    6  A    between atoms: C_18  and  N_19
REMARK                            x       y       z     vdW  Elec       q    Type
REMARK                         _______ _______ _______ _____ _____    ______ ____
ROOT
ATOM      1  C   UNL     1       4.914   5.369  18.410  0.00  0.00    +0.000 C 
ATOM      2  C   UNL     1       4.436   3.985  18.951  0.00  0.00    +0.000 C 
ATOM      3  N   UNL     1       3.087   3.968  19.506  0.00  0.00    +0.000 NA
ATOM      4  C   UNL     1       2.793   2.899  20.446  0.00  0.00    +0.000 C 
ATOM      5  C   UNL     1       1.378   3.267  20.877  0.00  0.00    +0.000 C 
ATOM      6  C   UNL     1       1.268   4.777  20.632  0.00  0.00    +0.000 C 
ATOM      7  C   UNL     1       2.666   5.203  20.168  0.00  0.00    +0.000 C 
ATOM      8  C   UNL     1       2.738   6.373  19.223  0.00  0.00    +0.000 A 
ATOM      9  C   UNL     1       1.832   7.442  19.275  0.00  0.00    +0.000 A 
ATOM     10  C   UNL     1       1.914   8.499  18.365  0.00  0.00    +0.000 A 
ATOM     11  C   UNL     1       2.903   8.490  17.390  0.00  0.00    +0.000 A 
ATOM     12  C   UNL     1       3.848   7.468  17.367  0.00  0.00    +0.000 A 
ATOM     13  C   UNL     1       3.795   6.413  18.291  0.00  0.00    +0.000 A 
ENDROOT
BRANCH   1  17
ATOM     14  C   UNL     1       6.830   4.412  15.160  0.00  0.00    +0.000 A 
ATOM     15  N   UNL     1       7.532   5.407  15.654  0.00  0.00    +0.000 NA
ATOM     16  C   UNL     1       6.906   5.889  16.788  0.00  0.00    +0.000 A 
ATOM     17  C   UNL     1       5.737   5.243  17.150  0.00  0.00    +0.000 A 
ATOM     18  S   UNL     1       5.363   4.048  15.966  0.00  0.00    +0.000 S 
ENDBRANCH   1  17
BRANCH  10  19
ATOM     19  O   UNL     1       0.980   9.483  18.537  0.00  0.00    +0.000 OA
BRANCH  19  20
ATOM     20  C   UNL     1       0.542   9.724  19.875  0.00  0.00    +0.000 C 
BRANCH  20  21
ATOM     21  C   UNL     1      -0.886  10.246  19.792  0.00  0.00    +0.000 C 
BRANCH  21  22
ATOM     22  C   UNL     1      -1.274  10.609  18.358  0.00  0.00    +0.000 C 
BRANCH  22  23
ATOM     23  N   UNL     1      -2.378   9.788  17.839  0.00  0.00    +0.000 NA
ATOM     24  C   UNL     1      -2.290   9.639  16.370  0.00  0.00    +0.000 C 
ATOM     25  C   UNL     1      -2.702  10.904  15.594  0.00  0.00    +0.000 C 
ATOM     26  O   UNL     1      -4.025  11.326  15.947  0.00  0.00    +0.000 OA
ATOM     27  C   UNL     1      -4.129  11.554  17.357  0.00  0.00    +0.000 C 
ATOM     28  C   UNL     1      -3.724  10.308  18.160  0.00  0.00    +0.000 C 
ENDBRANCH  22  23
ENDBRANCH  21  22
ENDBRANCH  20  21
ENDBRANCH  19  20
ENDBRANCH  10  19
TORSDOF 6
ENDMDL
MODEL 3
REMARK VINA RESULT:      -8.1      2.096      2.755
REMARK  Name = 
REMARK  6 active torsions:
REMARK  status: ('A' for Active; 'I' for Inactive)
REMARK    1  A    between atoms: C_4  and  C_5
REMARK    2  A    between atoms: C_14  and  O_15
REMARK    3  A    between atoms: O_15  and  C_16
REMARK    4  A    between atoms: C_16  and  C_17
REMARK    5  A    between atoms: C_17  and  C_18
REMARK    6  A    between atoms: C_18  and  N_19
REMARK                            x       y       z     vdW  Elec       q    Type
REMARK                         _______ _______ _______ _____ _____    ______ ____
ROOT
ATOM      1  C   UNL     1       4.984   5.249  18.451  0.00  0.00    +0.000 C 
ATOM      2  C   UNL     1       4.564   3.824  18.932  0.00  0.00    +0.000 C 
ATOM      3  N   UNL     1       3.242   3.741  19.543  0.00  0.00    +0.000 NA
ATOM      4  C   UNL     1       3.017   2.612  20.432  0.00  0.00    +0.000 C 
ATOM      5  C   UNL     1       1.615   2.919  20.947  0.00  0.00    +0.000 C 
ATOM      6  C   UNL     1       1.458   4.437  20.795  0.00  0.00    +0.000 C 
ATOM      7  C   UNL     1       2.823   4.925  20.294  0.00  0.00    +0.000 C 
ATOM      8  C   UNL     1       2.824   6.147  19.416  0.00  0.00    +0.000 A 
ATOM      9  C   UNL     1       1.897   7.188  19.570  0.00  0.00    +0.000 A 
ATOM     10  C   UNL     1       1.912   8.297  18.720  0.00  0.00    +0.000 A 
ATOM     11  C   UNL     1       2.856   8.369  17.703  0.00  0.00    +0.000 A 
ATOM     12  C   UNL     1       3.823   7.374  17.579  0.00  0.00    +0.000 A 
ATOM     13  C   UNL     1       3.836   6.268  18.442  0.00  0.00    +0.000 A 
ENDROOT
BRANCH   1  17
ATOM     14  C   UNL     1       6.735   4.541  15.047  0.00  0.00    +0.000 A 
ATOM     15  N   UNL     1       7.490   5.463  15.600  0.00  0.00    +0.000 NA
ATOM     16  C   UNL     1       6.926   5.857  16.799  0.00  0.00    +0.000 A 
ATOM     17  C   UNL     1       5.751   5.215  17.150  0.00  0.00    +0.000 A 
ATOM     18  S   UNL     1       5.289   4.147  15.879  0.00  0.00    +0.000 S 
ENDBRANCH   1  17
BRANCH  10  19
ATOM     19  O   UNL     1       0.965   9.245  18.989  0.00  0.00    +0.000 OA
BRANCH  19  20
ATOM     20  C   UNL     1       0.874   9.694  20.343  0.00  0.00    +0.000 C 
BRANCH  20  21
ATOM     21  C   UNL     1      -0.427  10.474  20.470  0.00  0.00    +0.000 C 
BRANCH  21  22
ATOM     22  C   UNL     1      -1.276  10.370  19.201  0.00  0.00    +0.000 C 
BRANCH  22  23
ATOM     23  N   UNL     1      -1.753  11.677  18.725  0.00  0.00    +0.000 NA
ATOM     24  C   UNL     1      -3.174  11.888  19.076  0.00  0.00    +0.000 C 
ATOM     25  C   UNL     1      -4.154  11.075  18.209  0.00  0.00    +0.000 C 
ATOM     26  O   UNL     1      -3.967  11.348  16.815  0.00  0.00    +0.000 OA
ATOM     27  C   UNL     1      -2.617  11.082  16.419  0.00  0.00    +0.000 C 
ATOM     28  C   UNL     1      -1.615  11.879  17.268  0.00  0.00    +0.000 C 
ENDBRANCH  22  23
ENDBRANCH  21  22
ENDBRANCH  20  21
ENDBRANCH  19  20
ENDBRANCH  10  19
TORSDOF 6
ENDMDL
MODEL 4
REMARK VINA RESULT:      -8.0      0.541      1.063
REMARK  Name = 
REMARK  6 active torsions:
REMARK  status: ('A' for Active; 'I' for Inactive)
REMARK    1  A    between atoms: C_4  and  C_5
REMARK    2  A    between atoms: C_14  and  O_15
REMARK    3  A    between atoms: O_15  and  C_16
REMARK    4  A    between atoms: C_16  and  C_17
REMARK    5  A    between atoms: C_17  and  C_18
REMARK    6  A    between atoms: C_18  and  N_19
REMARK                            x       y       z     vdW  Elec       q    Type
REMARK                         _______ _______ _______ _____ _____    ______ ____
ROOT
ATOM      1  C   UNL     1       5.051   4.900  18.433  0.00  0.00    +0.000 C 
ATOM      2  C   UNL     1       4.479   3.524  18.900  0.00  0.00    +0.000 C 
ATOM      3  N   UNL     1       3.136   3.572  19.467  0.00  0.00    +0.000 NA
ATOM      4  C   UNL     1       2.773   2.473  20.348  0.00  0.00    +0.000 C 
ATOM      5  C   UNL     1       1.391   2.916  20.815  0.00  0.00    +0.000 C 
ATOM      6  C   UNL     1       1.387   4.441  20.658  0.00  0.00    +0.000 C 
ATOM      7  C   UNL     1       2.809   4.793  20.203  0.00  0.00    +0.000 C 
ATOM      8  C   UNL     1       2.958   6.007  19.325  0.00  0.00    +0.000 A 
ATOM      9  C   UNL     1       2.131   7.133  19.448  0.00  0.00    +0.000 A 
ATOM     10  C   UNL     1       2.282   8.232  18.599  0.00  0.00    +0.000 A 
ATOM     11  C   UNL     1       3.262   8.209  17.614  0.00  0.00    +0.000 A 
ATOM     12  C   UNL     1       4.131   7.125  17.523  0.00  0.00    +0.000 A 
ATOM     13  C   UNL     1       4.009   6.026  18.386  0.00  0.00    +0.000 A 
ENDROOT
BRANCH   1  17
ATOM     14  C   UNL     1       6.738   4.085  15.021  0.00  0.00    +0.000 A 
ATOM     15  N   UNL     1       7.682   4.701  15.695  0.00  0.00    +0.000 NA
ATOM     16  C   UNL     1       7.178   5.112  16.916  0.00  0.00    +0.000 A 
ATOM     17  C   UNL     1       5.854   4.788  17.159  0.00  0.00    +0.000 A 
ATOM     18  S   UNL     1       5.194   4.024  15.762  0.00  0.00    +0.000 S 
ENDBRANCH   1  17
BRANCH  10  19
ATOM     19  O   UNL     1       1.423   9.269  18.836  0.00  0.00    +0.000 OA
BRANCH  19  20
ATOM     20  C   UNL     1       1.625  10.457  18.069  0.00  0.00    +0.000 C 
BRANCH  20  21
ATOM     21  C   UNL     1       0.984  11.603  18.839  0.00  0.00    +0.000 C 
BRANCH  21  22
ATOM     22  C   UNL     1       0.796  11.255  20.317  0.00  0.00    +0.000 C 
BRANCH  22  23
ATOM     23  N   UNL     1      -0.567  10.797  20.627  0.00  0.00    +0.000 NA
ATOM     24  C   UNL     1      -1.365  11.875  21.251  0.00  0.00    +0.000 C 
ATOM     25  C   UNL     1      -0.992  12.152  22.719  0.00  0.00    +0.000 C 
ATOM     26  O   UNL     1      -1.095  10.966  23.517  0.00  0.00    +0.000 OA
ATOM     27  C   UNL     1      -0.274   9.920  22.986  0.00  0.00    +0.000 C 
ATOM     28  C   UNL     1      -0.624   9.621  21.519  0.00  0.00    +0.000 C 
ENDBRANCH  22  23
ENDBRANCH  21  22
ENDBRANCH  20  21
ENDBRANCH  19  20
ENDBRANCH  10  19
TORSDOF 6
ENDMDL
MODEL 5
REMARK VINA RESULT:      -8.0      2.762      3.365
REMARK  Name = 
REMARK  6 active torsions:
REMARK  status: ('A' for Active; 'I' for Inactive)
REMARK    1  A    between atoms: C_4  and  C_5
REMARK    2  A    between atoms: C_14  and  O_15
REMARK    3  A    between atoms: O_15  and  C_16
REMARK    4  A    between atoms: C_16  and  C_17
REMARK    5  A    between atoms: C_17  and  C_18
REMARK    6  A    between atoms: C_18  and  N_19
REMARK                            x       y       z     vdW  Elec       q    Type
REMARK                         _______ _______ _______ _____ _____    ______ ____
ROOT
ATOM      1  C   UNL     1       4.873   4.583  18.280  0.00  0.00    +0.000 C 
ATOM      2  C   UNL     1       4.311   3.209  18.763  0.00  0.00    +0.000 C 
ATOM      3  N   UNL     1       3.054   3.278  19.501  0.00  0.00    +0.000 NA
ATOM      4  C   UNL     1       2.764   2.155  20.378  0.00  0.00    +0.000 C 
ATOM      5  C   UNL     1       1.471   2.624  21.037  0.00  0.00    +0.000 C 
ATOM      6  C   UNL     1       1.508   4.154  20.941  0.00  0.00    +0.000 C 
ATOM      7  C   UNL     1       2.873   4.476  20.320  0.00  0.00    +0.000 C 
ATOM      8  C   UNL     1       2.957   5.721  19.478  0.00  0.00    +0.000 A 
ATOM      9  C   UNL     1       2.198   6.869  19.750  0.00  0.00    +0.000 A 
ATOM     10  C   UNL     1       2.283   7.998  18.932  0.00  0.00    +0.000 A 
ATOM     11  C   UNL     1       3.126   7.985  17.829  0.00  0.00    +0.000 A 
ATOM     12  C   UNL     1       3.933   6.876  17.583  0.00  0.00    +0.000 A 
ATOM     13  C   UNL     1       3.878   5.745  18.412  0.00  0.00    +0.000 A 
ENDROOT
BRANCH   1  17
ATOM     14  C   UNL     1       6.940   4.794  14.989  0.00  0.00    +0.000 A 
ATOM     15  N   UNL     1       5.732   4.482  14.578  0.00  0.00    +0.000 NA
ATOM     16  C   UNL     1       4.908   4.305  15.674  0.00  0.00    +0.000 A 
ATOM     17  C   UNL     1       5.501   4.499  16.909  0.00  0.00    +0.000 A 
ATOM     18  S   UNL     1       7.179   4.822  16.685  0.00  0.00    +0.000 S 
ENDBRANCH   1  17
BRANCH  10  19
ATOM     19  O   UNL     1       1.502   9.052  19.319  0.00  0.00    +0.000 OA
BRANCH  19  20
ATOM     20  C   UNL     1       0.992   9.887  18.277  0.00  0.00    +0.000 C 
BRANCH  20  21
ATOM     21  C   UNL     1      -0.460  10.194  18.619  0.00  0.00    +0.000 C 
BRANCH  21  22
ATOM     22  C   UNL     1      -1.245  10.651  17.388  0.00  0.00    +0.000 C 
BRANCH  22  23
ATOM     23  N   UNL     1      -2.292   9.697  16.992  0.00  0.00    +0.000 NA
ATOM     24  C   UNL     1      -2.757   9.956  15.612  0.00  0.00    +0.000 C 
ATOM     25  C   UNL     1      -3.665  11.194  15.486  0.00  0.00    +0.000 C 
ATOM     26  O   UNL     1      -4.799  11.100  16.356  0.00  0.00    +0.000 OA
ATOM     27  C   UNL     1      -4.387  10.925  17.716  0.00  0.00    +0.000 C 
ATOM     28  C   UNL     1      -3.478   9.696  17.874  0.00  0.00    +0.000 C 
ENDBRANCH  22  23
ENDBRANCH  21  22
ENDBRANCH  20  21
ENDBRANCH  19  20
ENDBRANCH  10  19
TORSDOF 6
ENDMDL
MODEL 6
REMARK VINA RESULT:      -7.9      2.678      3.205
REMARK  Name = 
REMARK  6 active torsions:
REMARK  status: ('A' for Active; 'I' for Inactive)
REMARK    1  A    between atoms: C_4  and  C_5
REMARK    2  A    between atoms: C_14  and  O_15
REMARK    3  A    between atoms: O_15  and  C_16
REMARK    4  A    between atoms: C_16  and  C_17
REMARK    5  A    between atoms: C_17  and  C_18
REMARK    6  A    between atoms: C_18  and  N_19
REMARK                            x       y       z     vdW  Elec       q    Type
REMARK                         _______ _______ _______ _____ _____    ______ ____
ROOT
ATOM      1  C   UNL     1       4.822   4.598  18.212  0.00  0.00    +0.000 C 
ATOM      2  C   UNL     1       4.165   3.271  18.707  0.00  0.00    +0.000 C 
ATOM      3  N   UNL     1       2.884   3.429  19.387  0.00  0.00    +0.000 NA
ATOM      4  C   UNL     1       2.495   2.350  20.280  0.00  0.00    +0.000 C 
ATOM      5  C   UNL     1       1.203   2.908  20.869  0.00  0.00    +0.000 C 
ATOM      6  C   UNL     1       1.329   4.430  20.733  0.00  0.00    +0.000 C 
ATOM      7  C   UNL     1       2.734   4.660  20.165  0.00  0.00    +0.000 C 
ATOM      8  C   UNL     1       2.923   5.873  19.293  0.00  0.00    +0.000 A 
ATOM      9  C   UNL     1       2.218   7.067  19.501  0.00  0.00    +0.000 A 
ATOM     10  C   UNL     1       2.399   8.166  18.657  0.00  0.00    +0.000 A 
ATOM     11  C   UNL     1       3.287   8.074  17.593  0.00  0.00    +0.000 A 
ATOM     12  C   UNL     1       4.041   6.916  17.413  0.00  0.00    +0.000 A 
ATOM     13  C   UNL     1       3.889   5.815  18.268  0.00  0.00    +0.000 A 
ENDROOT
BRANCH   1  17
ATOM     14  C   UNL     1       6.989   4.661  14.979  0.00  0.00    +0.000 A 
ATOM     15  N   UNL     1       5.816   4.245  14.560  0.00  0.00    +0.000 NA
ATOM     16  C   UNL     1       4.965   4.109  15.641  0.00  0.00    +0.000 A 
ATOM     17  C   UNL     1       5.502   4.439  16.873  0.00  0.00    +0.000 A 
ATOM     18  S   UNL     1       7.166   4.843  16.674  0.00  0.00    +0.000 S 
ENDBRANCH   1  17
BRANCH  10  19
ATOM     19  O   UNL     1       1.663   9.272  18.980  0.00  0.00    +0.000 OA
BRANCH  19  20
ATOM     20  C   UNL     1       0.630   9.643  18.065  0.00  0.00    +0.000 C 
BRANCH  20  21
ATOM     21  C   UNL     1      -0.486  10.278  18.883  0.00  0.00    +0.000 C 
BRANCH  21  22
ATOM     22  C   UNL     1      -1.841  10.153  18.183  0.00  0.00    +0.000 C 
BRANCH  22  23
ATOM     23  N   UNL     1      -2.374  11.447  17.735  0.00  0.00    +0.000 NA
ATOM     24  C   UNL     1      -3.598  11.810  18.482  0.00  0.00    +0.000 C 
ATOM     25  C   UNL     1      -4.844  11.009  18.056  0.00  0.00    +0.000 C 
ATOM     26  O   UNL     1      -5.092  11.139  16.650  0.00  0.00    +0.000 OA
ATOM     27  C   UNL     1      -3.953  10.725  15.889  0.00  0.00    +0.000 C 
ATOM     28  C   UNL     1      -2.692  11.506  16.293  0.00  0.00    +0.000 C 
ENDBRANCH  22  23
ENDBRANCH  21  22
ENDBRANCH  20  21
ENDBRANCH  19  20
ENDBRANCH  10  19
TORSDOF 6
ENDMDL
MODEL 7
REMARK VINA RESULT:      -7.9      1.603      2.195
REMARK  Name = 
REMARK  6 active torsions:
REMARK  status: ('A' for Active; 'I' for Inactive)
REMARK    1  A    between atoms: C_4  and  C_5
REMARK    2  A    between atoms: C_14  and  O_15
REMARK    3  A    between atoms: O_15  and  C_16
REMARK    4  A    between atoms: C_16  and  C_17
REMARK    5  A    between atoms: C_17  and  C_18
REMARK    6  A    between atoms: C_18  and  N_19
REMARK                            x       y       z     vdW  Elec       q    Type
REMARK                         _______ _______ _______ _____ _____    ______ ____
ROOT
ATOM      1  C   UNL     1       5.039   5.176  18.332  0.00  0.00    +0.000 C 
ATOM      2  C   UNL     1       4.623   3.750  18.813  0.00  0.00    +0.000 C 
ATOM      3  N   UNL     1       3.333   3.676  19.489  0.00  0.00    +0.000 NA
ATOM      4  C   UNL     1       3.137   2.538  20.372  0.00  0.00    +0.000 C 
ATOM      5  C   UNL     1       1.767   2.856  20.961  0.00  0.00    +0.000 C 
ATOM      6  C   UNL     1       1.625   4.378  20.840  0.00  0.00    +0.000 C 
ATOM      7  C   UNL     1       2.970   4.854  20.278  0.00  0.00    +0.000 C 
ATOM      8  C   UNL     1       2.945   6.090  19.418  0.00  0.00    +0.000 A 
ATOM      9  C   UNL     1       2.042   7.141  19.634  0.00  0.00    +0.000 A 
ATOM     10  C   UNL     1       2.030   8.263  18.801  0.00  0.00    +0.000 A 
ATOM     11  C   UNL     1       2.922   8.337  17.739  0.00  0.00    +0.000 A 
ATOM     12  C   UNL     1       3.867   7.331  17.551  0.00  0.00    +0.000 A 
ATOM     13  C   UNL     1       3.908   6.212  18.396  0.00  0.00    +0.000 A 
ENDROOT
BRANCH   1  17
ATOM     14  C   UNL     1       6.615   4.492  14.839  0.00  0.00    +0.000 A 
ATOM     15  N   UNL     1       7.396   5.412  15.358  0.00  0.00    +0.000 NA
ATOM     16  C   UNL     1       6.894   5.797  16.588  0.00  0.00    +0.000 A 
ATOM     17  C   UNL     1       5.739   5.152  16.994  0.00  0.00    +0.000 A 
ATOM     18  S   UNL     1       5.214   4.092  15.741  0.00  0.00    +0.000 S 
ENDBRANCH   1  17
BRANCH  10  19
ATOM     19  O   UNL     1       1.111   9.220  19.132  0.00  0.00    +0.000 OA
BRANCH  19  20
ATOM     20  C   UNL     1       0.369   9.794  18.055  0.00  0.00    +0.000 C 
BRANCH  20  21
ATOM     21  C   UNL     1      -0.880  10.424  18.656  0.00  0.00    +0.000 C 
BRANCH  21  22
ATOM     22  C   UNL     1      -0.893  11.942  18.471  0.00  0.00    +0.000 C 
BRANCH  22  23
ATOM     23  N   UNL     1      -0.956  12.673  19.745  0.00  0.00    +0.000 NA
ATOM     24  C   UNL     1      -0.720  14.119  19.545  0.00  0.00    +0.000 C 
ATOM     25  C   UNL     1       0.754  14.475  19.272  0.00  0.00    +0.000 C 
ATOM     26  O   UNL     1       1.608  13.997  20.319  0.00  0.00    +0.000 OA
ATOM     27  C   UNL     1       1.463  12.584  20.493  0.00  0.00    +0.000 C 
ATOM     28  C   UNL     1       0.001  12.198  20.766  0.00  0.00    +0.000 C 
ENDBRANCH  22  23
ENDBRANCH  21  22
ENDBRANCH  20  21
ENDBRANCH  19  20
ENDBRANCH  10  19
TORSDOF 6
ENDMDL
MODEL 8
REMARK VINA RESULT:      -7.9      1.197      1.607
REMARK  Name = 
REMARK  6 active torsions:
REMARK  status: ('A' for Active; 'I' for Inactive)
REMARK    1  A    between atoms: C_4  and  C_5
REMARK    2  A    between atoms: C_14  and  O_15
REMARK    3  A    between atoms: O_15  and  C_16
REMARK    4  A    between atoms: C_16  and  C_17
REMARK    5  A    between atoms: C_17  and  C_18
REMARK    6  A    between atoms: C_18  and  N_19
REMARK                            x       y       z     vdW  Elec       q    Type
REMARK                         _______ _______ _______ _____ _____    ______ ____
ROOT
ATOM      1  C   UNL     1       5.092   5.178  18.404  0.00  0.00    +0.000 C 
ATOM      2  C   UNL     1       4.704   3.753  18.910  0.00  0.00    +0.000 C 
ATOM      3  N   UNL     1       3.411   3.664  19.579  0.00  0.00    +0.000 NA
ATOM      4  C   UNL     1       3.233   2.539  20.483  0.00  0.00    +0.000 C 
ATOM      5  C   UNL     1       1.852   2.838  21.056  0.00  0.00    +0.000 C 
ATOM      6  C   UNL     1       1.677   4.354  20.902  0.00  0.00    +0.000 C 
ATOM      7  C   UNL     1       3.015   4.849  20.340  0.00  0.00    +0.000 C 
ATOM      8  C   UNL     1       2.969   6.066  19.456  0.00  0.00    +0.000 A 
ATOM      9  C   UNL     1       2.041   7.101  19.643  0.00  0.00    +0.000 A 
ATOM     10  C   UNL     1       2.011   8.205  18.787  0.00  0.00    +0.000 A 
ATOM     11  C   UNL     1       2.910   8.278  17.730  0.00  0.00    +0.000 A 
ATOM     12  C   UNL     1       3.878   7.289  17.570  0.00  0.00    +0.000 A 
ATOM     13  C   UNL     1       3.937   6.189  18.438  0.00  0.00    +0.000 A 
ENDROOT
BRANCH   1  17
ATOM     14  C   UNL     1       6.691   4.466  14.926  0.00  0.00    +0.000 A 
ATOM     15  N   UNL     1       7.475   5.382  15.448  0.00  0.00    +0.000 NA
ATOM     16  C   UNL     1       6.965   5.777  16.671  0.00  0.00    +0.000 A 
ATOM     17  C   UNL     1       5.802   5.143  17.071  0.00  0.00    +0.000 A 
ATOM     18  S   UNL     1       5.280   4.080  15.819  0.00  0.00    +0.000 S 
ENDBRANCH   1  17
BRANCH  10  19
ATOM     19  O   UNL     1       1.069   9.148  19.092  0.00  0.00    +0.000 OA
BRANCH  19  20
ATOM     20  C   UNL     1       0.937   9.499  20.470  0.00  0.00    +0.000 C 
BRANCH  20  21
ATOM     21  C   UNL     1       0.390  10.919  20.521  0.00  0.00    +0.000 C 
BRANCH  21  22
ATOM     22  C   UNL     1      -0.357  11.192  21.828  0.00  0.00    +0.000 C 
BRANCH  22  23
ATOM     23  N   UNL     1      -0.707  12.609  22.001  0.00  0.00    +0.000 NA
ATOM     24  C   UNL     1      -1.485  12.821  23.241  0.00  0.00    +0.000 C 
ATOM     25  C   UNL     1      -2.947  12.344  23.143  0.00  0.00    +0.000 C 
ATOM     26  O   UNL     1      -3.627  12.966  22.047  0.00  0.00    +0.000 OA
ATOM     27  C   UNL     1      -2.943  12.719  20.814  0.00  0.00    +0.000 C 
ATOM     28  C   UNL     1      -1.480  13.185  20.880  0.00  0.00    +0.000 C 
ENDBRANCH  22  23
ENDBRANCH  21  22
ENDBRANCH  20  21
ENDBRANCH  19  20
ENDBRANCH  10  19
TORSDOF 6
ENDMDL
MODEL 9
REMARK VINA RESULT:      -7.9      1.383      2.169
REMARK  Name = 
REMARK  6 active torsions:
REMARK  status: ('A' for Active; 'I' for Inactive)
REMARK    1  A    between atoms: C_4  and  C_5
REMARK    2  A    between atoms: C_14  and  O_15
REMARK    3  A    between atoms: O_15  and  C_16
REMARK    4  A    between atoms: C_16  and  C_17
REMARK    5  A    between atoms: C_17  and  C_18
REMARK    6  A    between atoms: C_18  and  N_19
REMARK                            x       y       z     vdW  Elec       q    Type
REMARK                         _______ _______ _______ _____ _____    ______ ____
ROOT
ATOM      1  C   UNL     1       5.022   5.211  18.359  0.00  0.00    +0.000 C 
ATOM      2  C   UNL     1       4.604   3.783  18.833  0.00  0.00    +0.000 C 
ATOM      3  N   UNL     1       3.308   3.704  19.497  0.00  0.00    +0.000 NA
ATOM      4  C   UNL     1       3.107   2.563  20.375  0.00  0.00    +0.000 C 
ATOM      5  C   UNL     1       1.730   2.876  20.952  0.00  0.00    +0.000 C 
ATOM      6  C   UNL     1       1.586   4.398  20.833  0.00  0.00    +0.000 C 
ATOM      7  C   UNL     1       2.935   4.879  20.285  0.00  0.00    +0.000 C 
ATOM      8  C   UNL     1       2.915   6.117  19.428  0.00  0.00    +0.000 A 
ATOM      9  C   UNL     1       2.007   7.165  19.638  0.00  0.00    +0.000 A 
ATOM     10  C   UNL     1       2.001   8.289  18.808  0.00  0.00    +0.000 A 
ATOM     11  C   UNL     1       2.903   8.368  17.754  0.00  0.00    +0.000 A 
ATOM     12  C   UNL     1       3.852   7.364  17.573  0.00  0.00    +0.000 A 
ATOM     13  C   UNL     1       3.887   6.243  18.415  0.00  0.00    +0.000 A 
ENDROOT
BRANCH   1  17
ATOM     14  C   UNL     1       6.612   4.548  14.868  0.00  0.00    +0.000 A 
ATOM     15  N   UNL     1       7.415   5.433  15.414  0.00  0.00    +0.000 NA
ATOM     16  C   UNL     1       6.912   5.809  16.645  0.00  0.00    +0.000 A 
ATOM     17  C   UNL     1       5.734   5.192  17.028  0.00  0.00    +0.000 A 
ATOM     18  S   UNL     1       5.190   4.172  15.749  0.00  0.00    +0.000 S 
ENDBRANCH   1  17
BRANCH  10  19
ATOM     19  O   UNL     1       1.077   9.243  19.132  0.00  0.00    +0.000 OA
BRANCH  19  20
ATOM     20  C   UNL     1       0.437   9.109  20.402  0.00  0.00    +0.000 C 
BRANCH  20  21
ATOM     21  C   UNL     1       1.004  10.195  21.306  0.00  0.00    +0.000 C 
BRANCH  21  22
ATOM     22  C   UNL     1       0.020  11.352  21.485  0.00  0.00    +0.000 C 
BRANCH  22  23
ATOM     23  N   UNL     1       0.670  12.670  21.423  0.00  0.00    +0.000 NA
ATOM     24  C   UNL     1      -0.329  13.757  21.335  0.00  0.00    +0.000 C 
ATOM     25  C   UNL     1      -0.989  13.880  19.948  0.00  0.00    +0.000 C 
ATOM     26  O   UNL     1      -0.009  14.055  18.917  0.00  0.00    +0.000 OA
ATOM     27  C   UNL     1       0.935  12.979  18.922  0.00  0.00    +0.000 C 
ATOM     28  C   UNL     1       1.611  12.830  20.294  0.00  0.00    +0.000 C 
ENDBRANCH  22  23
ENDBRANCH  21  22
ENDBRANCH  20  21
ENDBRANCH  19  20
ENDBRANCH  10  19
TORSDOF 6
ENDMDL
