MODEL 1
REMARK VINA RESULT:      -8.8      0.000      0.000
REMARK  Name = 
REMARK  5 active torsions:
REMARK  status: ('A' for Active; 'I' for Inactive)
REMARK    1  A    between atoms: S_2  and  C_4
REMARK    2  A    between atoms: S_2  and  N_15
REMARK    3  A    between atoms: C_4  and  C_5
REMARK    4  A    between atoms: C_9  and  C_10
REMARK    5  A    between atoms: C_22  and  C_23
REMARK                            x       y       z     vdW  Elec       q    Type
REMARK                         _______ _______ _______ _____ _____    ______ ____
ROOT
ATOM      1  N   UNL     1       0.118  10.816  19.756  0.00  0.00    +0.000 NA
ATOM      2  C   UNL     1       0.038  10.272  21.183  0.00  0.00    +0.000 C 
ATOM      3  C   UNL     1       0.550   8.957  20.888  0.00  0.00    +0.000 C 
ATOM      4  O   UNL     1       1.184   7.842  21.300  0.00  0.00    +0.000 OA
ATOM      5  C   UNL     1       1.845   7.555  20.075  0.00  0.00    +0.000 A 
ATOM      6  C   UNL     1       2.323   6.254  20.148  0.00  0.00    +0.000 A 
ATOM      7  C   UNL     1       3.061   5.747  19.116  0.00  0.00    +0.000 A 
ATOM      8  C   UNL     1       3.418   6.523  17.992  0.00  0.00    +0.000 A 
ATOM      9  C   UNL     1       2.859   7.870  17.874  0.00  0.00    +0.000 A 
ATOM     10  C   UNL     1       2.018   8.451  18.904  0.00  0.00    +0.000 A 
ATOM     11  C   UNL     1       1.430  10.127  18.779  0.00  0.00    +0.000 C 
ENDROOT
BRANCH   8  12
ATOM     12  C   UNL     1       4.400   5.820  17.089  0.00  0.00    +0.000 A 
ATOM     13  C   UNL     1       5.046   6.416  16.007  0.00  0.00    +0.000 A 
ATOM     14  C   UNL     1       5.764   5.614  15.111  0.00  0.00    +0.000 A 
ATOM     15  N   UNL     1       5.891   4.270  15.209  0.00  0.00    +0.000 NA
ATOM     16  C   UNL     1       5.274   3.690  16.245  0.00  0.00    +0.000 A 
ATOM     17  C   UNL     1       4.545   4.408  17.189  0.00  0.00    +0.000 A 
ENDBRANCH   8  12
BRANCH   1  19
ATOM     18  O   UNL     1      -0.047  13.050  18.465  0.00  0.00    +0.000 OA
ATOM     19  S   UNL     1      -0.259  12.537  19.798  0.00  0.00    +0.000 S 
ATOM     20  O   UNL     1       0.443  13.085  20.948  0.00  0.00    +0.000 OA
BRANCH  19  21
ATOM     21  C   UNL     1      -2.053  12.448  20.169  0.00  0.00    +0.000 C 
BRANCH  21  22
ATOM     22  C   UNL     1      -3.086  11.887  19.189  0.00  0.00    +0.000 A 
ATOM     23  C   UNL     1      -4.420  12.343  19.350  0.00  0.00    +0.000 A 
ATOM     24  C   UNL     1      -5.411  12.139  18.380  0.00  0.00    +0.000 A 
ATOM     25  C   UNL     1      -5.098  11.475  17.204  0.00  0.00    +0.000 A 
ATOM     26  C   UNL     1      -3.787  11.024  16.984  0.00  0.00    +0.000 A 
ATOM     27  C   UNL     1      -2.786  11.245  17.975  0.00  0.00    +0.000 A 
BRANCH  26  28
ATOM     28  C   UNL     1      -3.453  10.355  15.666  0.00  0.00    +0.000 C 
ATOM     29  F   UNL     1      -2.432  10.960  14.988  0.00  0.00    +0.000 F 
ATOM     30  F   UNL     1      -3.068   9.058  15.821  0.00  0.00    +0.000 F 
ATOM     31  F   UNL     1      -4.506  10.339  14.804  0.00  0.00    +0.000 F 
ENDBRANCH  26  28
ENDBRANCH  21  22
ENDBRANCH  19  21
ENDBRANCH   1  19
TORSDOF 5
ENDMDL
MODEL 2
REMARK VINA RESULT:      -8.8      0.267      1.086
REMARK  Name = 
REMARK  5 active torsions:
REMARK  status: ('A' for Active; 'I' for Inactive)
REMARK    1  A    between atoms: S_2  and  C_4
REMARK    2  A    between atoms: S_2  and  N_15
REMARK    3  A    between atoms: C_4  and  C_5
REMARK    4  A    between atoms: C_9  and  C_10
REMARK    5  A    between atoms: C_22  and  C_23
REMARK                            x       y       z     vdW  Elec       q    Type
REMARK                         _______ _______ _______ _____ _____    ______ ____
ROOT
ATOM      1  N   UNL     1       0.311  10.965  19.681  0.00  0.00    +0.000 NA
ATOM      2  C   UNL     1       0.263  10.472  21.128  0.00  0.00    +0.000 C 
ATOM      3  C   UNL     1       0.690   9.121  20.856  0.00  0.00    +0.000 C 
ATOM      4  O   UNL     1       1.278   7.986  21.280  0.00  0.00    +0.000 OA
ATOM      5  C   UNL     1       1.870   7.624  20.040  0.00  0.00    +0.000 A 
ATOM      6  C   UNL     1       2.279   6.302  20.137  0.00  0.00    +0.000 A 
ATOM      7  C   UNL     1       2.943   5.722  19.093  0.00  0.00    +0.000 A 
ATOM      8  C   UNL     1       3.293   6.440  17.929  0.00  0.00    +0.000 A 
ATOM      9  C   UNL     1       2.804   7.812  17.789  0.00  0.00    +0.000 A 
ATOM     10  C   UNL     1       2.041   8.472  18.833  0.00  0.00    +0.000 A 
ATOM     11  C   UNL     1       1.541  10.173  18.675  0.00  0.00    +0.000 C 
ENDROOT
BRANCH   8  12
ATOM     12  C   UNL     1       4.196   5.656  17.012  0.00  0.00    +0.000 A 
ATOM     13  C   UNL     1       4.376   4.274  17.070  0.00  0.00    +0.000 A 
ATOM     14  C   UNL     1       5.399   3.683  16.319  0.00  0.00    +0.000 A 
ATOM     15  N   UNL     1       6.253   4.358  15.513  0.00  0.00    +0.000 NA
ATOM     16  C   UNL     1       6.087   5.684  15.451  0.00  0.00    +0.000 A 
ATOM     17  C   UNL     1       5.093   6.356  16.157  0.00  0.00    +0.000 A 
ENDBRANCH   8  12
BRANCH   1  19
ATOM     18  O   UNL     1       0.253  13.169  18.332  0.00  0.00    +0.000 OA
ATOM     19  S   UNL     1       0.031  12.705  19.681  0.00  0.00    +0.000 S 
ATOM     20  O   UNL     1       0.778  13.244  20.806  0.00  0.00    +0.000 OA
BRANCH  19  21
ATOM     21  C   UNL     1      -1.760  12.726  20.076  0.00  0.00    +0.000 C 
BRANCH  21  22
ATOM     22  C   UNL     1      -2.819  12.043  19.208  0.00  0.00    +0.000 A 
ATOM     23  C   UNL     1      -4.171  12.358  19.500  0.00  0.00    +0.000 A 
ATOM     24  C   UNL     1      -5.227  12.034  18.636  0.00  0.00    +0.000 A 
ATOM     25  C   UNL     1      -4.963  11.388  17.438  0.00  0.00    +0.000 A 
ATOM     26  C   UNL     1      -3.639  11.075  17.090  0.00  0.00    +0.000 A 
ATOM     27  C   UNL     1      -2.574  11.416  17.973  0.00  0.00    +0.000 A 
BRANCH  26  28
ATOM     28  C   UNL     1      -3.369  10.423  15.749  0.00  0.00    +0.000 C 
ATOM     29  F   UNL     1      -2.825   9.173  15.847  0.00  0.00    +0.000 F 
ATOM     30  F   UNL     1      -4.500  10.270  15.005  0.00  0.00    +0.000 F 
ATOM     31  F   UNL     1      -2.503  11.140  14.982  0.00  0.00    +0.000 F 
ENDBRANCH  26  28
ENDBRANCH  21  22
ENDBRANCH  19  21
ENDBRANCH   1  19
TORSDOF 5
ENDMDL
MODEL 3
REMARK VINA RESULT:      -8.7      2.472      3.281
REMARK  Name = 
REMARK  5 active torsions:
REMARK  status: ('A' for Active; 'I' for Inactive)
REMARK    1  A    between atoms: S_2  and  C_4
REMARK    2  A    between atoms: S_2  and  N_15
REMARK    3  A    between atoms: C_4  and  C_5
REMARK    4  A    between atoms: C_9  and  C_10
REMARK    5  A    between atoms: C_22  and  C_23
REMARK                            x       y       z     vdW  Elec       q    Type
REMARK                         _______ _______ _______ _____ _____    ______ ____
ROOT
ATOM      1  N   UNL     1       0.765  12.010  21.109  0.00  0.00    +0.000 NA
ATOM      2  C   UNL     1       0.891  12.502  19.667  0.00  0.00    +0.000 C 
ATOM      3  C   UNL     1       1.545  11.326  19.147  0.00  0.00    +0.000 C 
ATOM      4  O   UNL     1       1.821  10.521  18.103  0.00  0.00    +0.000 OA
ATOM      5  C   UNL     1       1.849   9.299  18.828  0.00  0.00    +0.000 A 
ATOM      6  C   UNL     1       2.436   8.339  18.016  0.00  0.00    +0.000 A 
ATOM      7  C   UNL     1       2.526   7.048  18.453  0.00  0.00    +0.000 A 
ATOM      8  C   UNL     1       1.983   6.631  19.688  0.00  0.00    +0.000 A 
ATOM      9  C   UNL     1       1.428   7.649  20.581  0.00  0.00    +0.000 A 
ATOM     10  C   UNL     1       1.355   9.049  20.205  0.00  0.00    +0.000 A 
ATOM     11  C   UNL     1       0.587  10.250  21.272  0.00  0.00    +0.000 C 
ENDROOT
BRANCH   8  12
ATOM     12  C   UNL     1       2.021   5.133  19.863  0.00  0.00    +0.000 A 
ATOM     13  C   UNL     1       1.735   4.212  18.856  0.00  0.00    +0.000 A 
ATOM     14  C   UNL     1       1.587   2.860  19.186  0.00  0.00    +0.000 A 
ATOM     15  N   UNL     1       1.703   2.353  20.436  0.00  0.00    +0.000 NA
ATOM     16  C   UNL     1       1.978   3.230  21.409  0.00  0.00    +0.000 A 
ATOM     17  C   UNL     1       2.149   4.591  21.172  0.00  0.00    +0.000 A 
ENDBRANCH   8  12
BRANCH   1  19
ATOM     18  O   UNL     1       0.660  14.256  22.383  0.00  0.00    +0.000 OA
ATOM     19  S   UNL     1      -0.213  13.170  22.005  0.00  0.00    +0.000 S 
ATOM     20  O   UNL     1      -0.957  12.407  22.995  0.00  0.00    +0.000 OA
BRANCH  19  21
ATOM     21  C   UNL     1      -1.353  13.704  20.670  0.00  0.00    +0.000 C 
BRANCH  21  22
ATOM     22  C   UNL     1      -2.487  12.826  20.134  0.00  0.00    +0.000 A 
ATOM     23  C   UNL     1      -3.806  13.242  20.448  0.00  0.00    +0.000 A 
ATOM     24  C   UNL     1      -4.937  12.710  19.813  0.00  0.00    +0.000 A 
ATOM     25  C   UNL     1      -4.786  11.744  18.830  0.00  0.00    +0.000 A 
ATOM     26  C   UNL     1      -3.499  11.315  18.465  0.00  0.00    +0.000 A 
ATOM     27  C   UNL     1      -2.357  11.869  19.112  0.00  0.00    +0.000 A 
BRANCH  26  28
ATOM     28  C   UNL     1      -3.355  10.303  17.346  0.00  0.00    +0.000 C 
ATOM     29  F   UNL     1      -4.147  10.567  16.264  0.00  0.00    +0.000 F 
ATOM     30  F   UNL     1      -2.084  10.240  16.860  0.00  0.00    +0.000 F 
ATOM     31  F   UNL     1      -3.676   9.040  17.736  0.00  0.00    +0.000 F 
ENDBRANCH  26  28
ENDBRANCH  21  22
ENDBRANCH  19  21
ENDBRANCH   1  19
TORSDOF 5
ENDMDL
MODEL 4
REMARK VINA RESULT:      -8.7      4.808      9.676
REMARK  Name = 
REMARK  5 active torsions:
REMARK  status: ('A' for Active; 'I' for Inactive)
REMARK    1  A    between atoms: S_2  and  C_4
REMARK    2  A    between atoms: S_2  and  N_15
REMARK    3  A    between atoms: C_4  and  C_5
REMARK    4  A    between atoms: C_9  and  C_10
REMARK    5  A    between atoms: C_22  and  C_23
REMARK                            x       y       z     vdW  Elec       q    Type
REMARK                         _______ _______ _______ _____ _____    ______ ____
ROOT
ATOM      1  N   UNL     1       5.808   5.899  18.075  0.00  0.00    +0.000 NA
ATOM      2  C   UNL     1       5.276   4.819  19.020  0.00  0.00    +0.000 C 
ATOM      3  C   UNL     1       4.209   5.606  19.587  0.00  0.00    +0.000 C 
ATOM      4  O   UNL     1       3.003   5.662  20.183  0.00  0.00    +0.000 OA
ATOM      5  C   UNL     1       2.567   6.874  19.583  0.00  0.00    +0.000 A 
ATOM      6  C   UNL     1       1.459   7.321  20.288  0.00  0.00    +0.000 A 
ATOM      7  C   UNL     1       0.802   8.444  19.873  0.00  0.00    +0.000 A 
ATOM      8  C   UNL     1       1.169   9.144  18.703  0.00  0.00    +0.000 A 
ATOM      9  C   UNL     1       2.379   8.722  17.995  0.00  0.00    +0.000 A 
ATOM     10  C   UNL     1       3.160   7.574  18.415  0.00  0.00    +0.000 A 
ATOM     11  C   UNL     1       4.572   7.027  17.479  0.00  0.00    +0.000 C 
ENDROOT
BRANCH   8  12
ATOM     12  C   UNL     1       0.180  10.220  18.334  0.00  0.00    +0.000 A 
ATOM     13  C   UNL     1       0.270  11.550  18.745  0.00  0.00    +0.000 A 
ATOM     14  C   UNL     1      -0.815  12.409  18.528  0.00  0.00    +0.000 A 
ATOM     15  N   UNL     1      -1.978  12.049  17.934  0.00  0.00    +0.000 NA
ATOM     16  C   UNL     1      -2.072  10.774  17.537  0.00  0.00    +0.000 A 
ATOM     17  C   UNL     1      -1.042   9.853  17.705  0.00  0.00    +0.000 A 
ENDBRANCH   8  12
BRANCH   1  19
ATOM     18  O   UNL     1       7.837   4.310  17.880  0.00  0.00    +0.000 OA
ATOM     19  S   UNL     1       7.037   5.172  17.042  0.00  0.00    +0.000 S 
ATOM     20  O   UNL     1       7.629   6.258  16.278  0.00  0.00    +0.000 OA
BRANCH  19  21
ATOM     21  C   UNL     1       5.960   4.174  15.943  0.00  0.00    +0.000 C 
BRANCH  21  22
ATOM     22  C   UNL     1       5.994   4.277  14.416  0.00  0.00    +0.000 A 
ATOM     23  C   UNL     1       7.258   4.546  13.831  0.00  0.00    +0.000 A 
ATOM     24  C   UNL     1       7.502   4.402  12.458  0.00  0.00    +0.000 A 
ATOM     25  C   UNL     1       6.486   3.972  11.619  0.00  0.00    +0.000 A 
ATOM     26  C   UNL     1       5.222   3.669  12.151  0.00  0.00    +0.000 A 
ATOM     27  C   UNL     1       4.988   3.813  13.550  0.00  0.00    +0.000 A 
BRANCH  26  28
ATOM     28  C   UNL     1       4.144   3.144  11.224  0.00  0.00    +0.000 C 
ATOM     29  F   UNL     1       2.966   2.865  11.858  0.00  0.00    +0.000 F 
ATOM     30  F   UNL     1       3.826   4.028  10.238  0.00  0.00    +0.000 F 
ATOM     31  F   UNL     1       4.506   1.990  10.600  0.00  0.00    +0.000 F 
ENDBRANCH  26  28
ENDBRANCH  21  22
ENDBRANCH  19  21
ENDBRANCH   1  19
TORSDOF 5
ENDMDL
MODEL 5
REMARK VINA RESULT:      -8.6      2.348      3.171
REMARK  Name = 
REMARK  5 active torsions:
REMARK  status: ('A' for Active; 'I' for Inactive)
REMARK    1  A    between atoms: S_2  and  C_4
REMARK    2  A    between atoms: S_2  and  N_15
REMARK    3  A    between atoms: C_4  and  C_5
REMARK    4  A    between atoms: C_9  and  C_10
REMARK    5  A    between atoms: C_22  and  C_23
REMARK                            x       y       z     vdW  Elec       q    Type
REMARK                         _______ _______ _______ _____ _____    ______ ____
ROOT
ATOM      1  N   UNL     1       0.993  11.988  20.260  0.00  0.00    +0.000 NA
ATOM      2  C   UNL     1       1.175  12.295  18.773  0.00  0.00    +0.000 C 
ATOM      3  C   UNL     1       1.808  11.047  18.423  0.00  0.00    +0.000 C 
ATOM      4  O   UNL     1       2.090  10.112  17.495  0.00  0.00    +0.000 OA
ATOM      5  C   UNL     1       2.060   8.989  18.365  0.00  0.00    +0.000 A 
ATOM      6  C   UNL     1       2.640   7.921  17.696  0.00  0.00    +0.000 A 
ATOM      7  C   UNL     1       2.679   6.692  18.292  0.00  0.00    +0.000 A 
ATOM      8  C   UNL     1       2.088   6.444  19.550  0.00  0.00    +0.000 A 
ATOM      9  C   UNL     1       1.539   7.579  20.292  0.00  0.00    +0.000 A 
ATOM     10  C   UNL     1       1.519   8.924  19.746  0.00  0.00    +0.000 A 
ATOM     11  C   UNL     1       0.757  10.268  20.632  0.00  0.00    +0.000 C 
ENDROOT
BRANCH   8  12
ATOM     12  C   UNL     1       2.076   4.980  19.908  0.00  0.00    +0.000 A 
ATOM     13  C   UNL     1       1.707   3.956  19.036  0.00  0.00    +0.000 A 
ATOM     14  C   UNL     1       1.522   2.662  19.538  0.00  0.00    +0.000 A 
ATOM     15  N   UNL     1       1.676   2.308  20.836  0.00  0.00    +0.000 NA
ATOM     16  C   UNL     1       2.031   3.285  21.679  0.00  0.00    +0.000 A 
ATOM     17  C   UNL     1       2.244   4.597  21.268  0.00  0.00    +0.000 A 
ENDBRANCH   8  12
BRANCH   1  19
ATOM     18  O   UNL     1      -0.181  14.270  19.948  0.00  0.00    +0.000 OA
ATOM     19  S   UNL     1       0.025  13.276  20.975  0.00  0.00    +0.000 S 
ATOM     20  O   UNL     1       0.651  13.607  22.245  0.00  0.00    +0.000 OA
BRANCH  19  21
ATOM     21  C   UNL     1      -1.529  12.352  21.289  0.00  0.00    +0.000 C 
BRANCH  21  22
ATOM     22  C   UNL     1      -2.474  11.896  20.174  0.00  0.00    +0.000 A 
ATOM     23  C   UNL     1      -3.755  12.505  20.147  0.00  0.00    +0.000 A 
ATOM     24  C   UNL     1      -4.619  12.399  19.048  0.00  0.00    +0.000 A 
ATOM     25  C   UNL     1      -4.225  11.683  17.928  0.00  0.00    +0.000 A 
ATOM     26  C   UNL     1      -2.957  11.081  17.894  0.00  0.00    +0.000 A 
ATOM     27  C   UNL     1      -2.084  11.202  19.015  0.00  0.00    +0.000 A 
BRANCH  26  28
ATOM     28  C   UNL     1      -2.524  10.355  16.636  0.00  0.00    +0.000 C 
ATOM     29  F   UNL     1      -1.300   9.757  16.744  0.00  0.00    +0.000 F 
ATOM     30  F   UNL     1      -3.385   9.360  16.285  0.00  0.00    +0.000 F 
ATOM     31  F   UNL     1      -2.436  11.180  15.558  0.00  0.00    +0.000 F 
ENDBRANCH  26  28
ENDBRANCH  21  22
ENDBRANCH  19  21
ENDBRANCH   1  19
TORSDOF 5
ENDMDL
MODEL 6
REMARK VINA RESULT:      -8.6      0.851      1.035
REMARK  Name = 
REMARK  5 active torsions:
REMARK  status: ('A' for Active; 'I' for Inactive)
REMARK    1  A    between atoms: S_2  and  C_4
REMARK    2  A    between atoms: S_2  and  N_15
REMARK    3  A    between atoms: C_4  and  C_5
REMARK    4  A    between atoms: C_9  and  C_10
REMARK    5  A    between atoms: C_22  and  C_23
REMARK                            x       y       z     vdW  Elec       q    Type
REMARK                         _______ _______ _______ _____ _____    ______ ____
ROOT
ATOM      1  N   UNL     1      -0.338  11.315  20.512  0.00  0.00    +0.000 NA
ATOM      2  C   UNL     1      -0.433  10.746  21.928  0.00  0.00    +0.000 C 
ATOM      3  C   UNL     1       0.028   9.418  21.603  0.00  0.00    +0.000 C 
ATOM      4  O   UNL     1       0.619   8.271  21.989  0.00  0.00    +0.000 OA
ATOM      5  C   UNL     1       1.264   7.984  20.756  0.00  0.00    +0.000 A 
ATOM      6  C   UNL     1       1.691   6.665  20.800  0.00  0.00    +0.000 A 
ATOM      7  C   UNL     1       2.405   6.151  19.754  0.00  0.00    +0.000 A 
ATOM      8  C   UNL     1       2.787   6.935  18.644  0.00  0.00    +0.000 A 
ATOM      9  C   UNL     1       2.280   8.305  18.557  0.00  0.00    +0.000 A 
ATOM     10  C   UNL     1       1.466   8.897  19.603  0.00  0.00    +0.000 A 
ATOM     11  C   UNL     1       0.943  10.597  19.514  0.00  0.00    +0.000 C 
ENDROOT
BRANCH   8  12
ATOM     12  C   UNL     1       3.737   6.214  17.723  0.00  0.00    +0.000 A 
ATOM     13  C   UNL     1       4.576   6.842  16.803  0.00  0.00    +0.000 A 
ATOM     14  C   UNL     1       5.251   6.067  15.851  0.00  0.00    +0.000 A 
ATOM     15  N   UNL     1       5.159   4.721  15.745  0.00  0.00    +0.000 NA
ATOM     16  C   UNL     1       4.356   4.110  16.625  0.00  0.00    +0.000 A 
ATOM     17  C   UNL     1       3.652   4.798  17.609  0.00  0.00    +0.000 A 
ENDBRANCH   8  12
BRANCH   1  19
ATOM     18  O   UNL     1      -0.067  13.637  19.407  0.00  0.00    +0.000 OA
ATOM     19  S   UNL     1      -0.647  13.049  20.592  0.00  0.00    +0.000 S 
ATOM     20  O   UNL     1      -0.258  13.477  21.926  0.00  0.00    +0.000 OA
BRANCH  19  21
ATOM     21  C   UNL     1      -2.477  13.038  20.468  0.00  0.00    +0.000 C 
BRANCH  21  22
ATOM     22  C   UNL     1      -3.245  12.179  19.459  0.00  0.00    +0.000 A 
ATOM     23  C   UNL     1      -4.651  12.366  19.416  0.00  0.00    +0.000 A 
ATOM     24  C   UNL     1      -5.448  11.864  18.378  0.00  0.00    +0.000 A 
ATOM     25  C   UNL     1      -4.862  11.162  17.337  0.00  0.00    +0.000 A 
ATOM     26  C   UNL     1      -3.471  10.970  17.319  0.00  0.00    +0.000 A 
ATOM     27  C   UNL     1      -2.670  11.491  18.377  0.00  0.00    +0.000 A 
BRANCH  26  28
ATOM     28  C   UNL     1      -2.845  10.252  16.141  0.00  0.00    +0.000 C 
ATOM     29  F   UNL     1      -1.704   9.569  16.459  0.00  0.00    +0.000 F 
ATOM     30  F   UNL     1      -3.679   9.328  15.589  0.00  0.00    +0.000 F 
ATOM     31  F   UNL     1      -2.496  11.099  15.135  0.00  0.00    +0.000 F 
ENDBRANCH  26  28
ENDBRANCH  21  22
ENDBRANCH  19  21
ENDBRANCH   1  19
TORSDOF 5
ENDMDL
MODEL 7
REMARK VINA RESULT:      -8.5      1.764      2.441
REMARK  Name = 
REMARK  5 active torsions:
REMARK  status: ('A' for Active; 'I' for Inactive)
REMARK    1  A    between atoms: S_2  and  C_4
REMARK    2  A    between atoms: S_2  and  N_15
REMARK    3  A    between atoms: C_4  and  C_5
REMARK    4  A    between atoms: C_9  and  C_10
REMARK    5  A    between atoms: C_22  and  C_23
REMARK                            x       y       z     vdW  Elec       q    Type
REMARK                         _______ _______ _______ _____ _____    ______ ____
ROOT
ATOM      1  N   UNL     1       0.436   9.706  20.364  0.00  0.00    +0.000 NA
ATOM      2  C   UNL     1       0.336   8.869  21.640  0.00  0.00    +0.000 C 
ATOM      3  C   UNL     1       0.854   7.646  21.076  0.00  0.00    +0.000 C 
ATOM      4  O   UNL     1       1.482   6.467  21.248  0.00  0.00    +0.000 OA
ATOM      5  C   UNL     1       2.161   6.448  20.000  0.00  0.00    +0.000 A 
ATOM      6  C   UNL     1       2.638   5.161  19.798  0.00  0.00    +0.000 A 
ATOM      7  C   UNL     1       3.391   4.885  18.692  0.00  0.00    +0.000 A 
ATOM      8  C   UNL     1       3.763   5.883  17.765  0.00  0.00    +0.000 A 
ATOM      9  C   UNL     1       3.205   7.226  17.932  0.00  0.00    +0.000 A 
ATOM     10  C   UNL     1       2.349   7.574  19.051  0.00  0.00    +0.000 A 
ATOM     11  C   UNL     1       1.762   9.239  19.280  0.00  0.00    +0.000 C 
ENDROOT
BRANCH   8  12
ATOM     12  C   UNL     1       4.758   5.388  16.747  0.00  0.00    +0.000 A 
ATOM     13  C   UNL     1       4.753   4.108  16.194  0.00  0.00    +0.000 A 
ATOM     14  C   UNL     1       5.848   3.689  15.428  0.00  0.00    +0.000 A 
ATOM     15  N   UNL     1       6.943   4.442  15.169  0.00  0.00    +0.000 NA
ATOM     16  C   UNL     1       6.955   5.672  15.695  0.00  0.00    +0.000 A 
ATOM     17  C   UNL     1       5.909   6.176  16.462  0.00  0.00    +0.000 A 
ENDBRANCH   8  12
BRANCH   1  19
ATOM     18  O   UNL     1       1.281  11.987  21.238  0.00  0.00    +0.000 OA
ATOM     19  S   UNL     1       0.058  11.379  20.771  0.00  0.00    +0.000 S 
ATOM     20  O   UNL     1      -1.141  11.344  21.593  0.00  0.00    +0.000 OA
BRANCH  19  21
ATOM     21  C   UNL     1      -0.371  12.009  19.102  0.00  0.00    +0.000 C 
BRANCH  21  22
ATOM     22  C   UNL     1      -1.566  11.498  18.293  0.00  0.00    +0.000 A 
ATOM     23  C   UNL     1      -1.306  10.438  17.386  0.00  0.00    +0.000 A 
ATOM     24  C   UNL     1      -2.327   9.690  16.784  0.00  0.00    +0.000 A 
ATOM     25  C   UNL     1      -3.652   9.973  17.078  0.00  0.00    +0.000 A 
ATOM     26  C   UNL     1      -3.964  10.996  17.987  0.00  0.00    +0.000 A 
ATOM     27  C   UNL     1      -2.916  11.745  18.598  0.00  0.00    +0.000 A 
BRANCH  26  28
ATOM     28  C   UNL     1      -5.417  11.247  18.339  0.00  0.00    +0.000 C 
ATOM     29  F   UNL     1      -6.085  10.123  18.738  0.00  0.00    +0.000 F 
ATOM     30  F   UNL     1      -5.561  12.138  19.358  0.00  0.00    +0.000 F 
ATOM     31  F   UNL     1      -6.131  11.746  17.294  0.00  0.00    +0.000 F 
ENDBRANCH  26  28
ENDBRANCH  21  22
ENDBRANCH  19  21
ENDBRANCH   1  19
TORSDOF 5
ENDMDL
MODEL 8
REMARK VINA RESULT:      -8.4      1.646      2.156
REMARK  Name = 
REMARK  5 active torsions:
REMARK  status: ('A' for Active; 'I' for Inactive)
REMARK    1  A    between atoms: S_2  and  C_4
REMARK    2  A    between atoms: S_2  and  N_15
REMARK    3  A    between atoms: C_4  and  C_5
REMARK    4  A    between atoms: C_9  and  C_10
REMARK    5  A    between atoms: C_22  and  C_23
REMARK                            x       y       z     vdW  Elec       q    Type
REMARK                         _______ _______ _______ _____ _____    ______ ____
ROOT
ATOM      1  N   UNL     1       0.094  10.740  19.892  0.00  0.00    +0.000 NA
ATOM      2  C   UNL     1       0.053  10.187  21.318  0.00  0.00    +0.000 C 
ATOM      3  C   UNL     1       0.571   8.879  21.003  0.00  0.00    +0.000 C 
ATOM      4  O   UNL     1       1.224   7.768  21.393  0.00  0.00    +0.000 OA
ATOM      5  C   UNL     1       1.861   7.494  20.152  0.00  0.00    +0.000 A 
ATOM      6  C   UNL     1       2.352   6.198  20.206  0.00  0.00    +0.000 A 
ATOM      7  C   UNL     1       3.072   5.704  19.155  0.00  0.00    +0.000 A 
ATOM      8  C   UNL     1       3.395   6.490  18.027  0.00  0.00    +0.000 A 
ATOM      9  C   UNL     1       2.821   7.833  17.931  0.00  0.00    +0.000 A 
ATOM     10  C   UNL     1       1.997   8.399  18.983  0.00  0.00    +0.000 A 
ATOM     11  C   UNL     1       1.391  10.070  18.882  0.00  0.00    +0.000 C 
ENDROOT
BRANCH   8  12
ATOM     12  C   UNL     1       4.363   5.803  17.098  0.00  0.00    +0.000 A 
ATOM     13  C   UNL     1       5.022   6.427  16.039  0.00  0.00    +0.000 A 
ATOM     14  C   UNL     1       5.724   5.646  15.113  0.00  0.00    +0.000 A 
ATOM     15  N   UNL     1       5.823   4.296  15.159  0.00  0.00    +0.000 NA
ATOM     16  C   UNL     1       5.194   3.689  16.173  0.00  0.00    +0.000 A 
ATOM     17  C   UNL     1       4.479   4.385  17.143  0.00  0.00    +0.000 A 
ENDBRANCH   8  12
BRANCH   1  19
ATOM     18  O   UNL     1       0.954  13.175  20.020  0.00  0.00    +0.000 OA
ATOM     19  S   UNL     1      -0.297  12.458  19.955  0.00  0.00    +0.000 S 
ATOM     20  O   UNL     1      -1.320  12.612  20.977  0.00  0.00    +0.000 OA
BRANCH  19  21
ATOM     21  C   UNL     1      -1.061  12.657  18.298  0.00  0.00    +0.000 C 
BRANCH  21  22
ATOM     22  C   UNL     1      -2.231  11.801  17.805  0.00  0.00    +0.000 A 
ATOM     23  C   UNL     1      -1.895  10.672  17.015  0.00  0.00    +0.000 A 
ATOM     24  C   UNL     1      -2.814   9.654  16.722  0.00  0.00    +0.000 A 
ATOM     25  C   UNL     1      -4.106   9.728  17.219  0.00  0.00    +0.000 A 
ATOM     26  C   UNL     1      -4.482  10.814  18.026  0.00  0.00    +0.000 A 
ATOM     27  C   UNL     1      -3.537  11.838  18.324  0.00  0.00    +0.000 A 
BRANCH  26  28
ATOM     28  C   UNL     1      -5.881  10.843  18.609  0.00  0.00    +0.000 C 
ATOM     29  F   UNL     1      -6.340   9.615  18.992  0.00  0.00    +0.000 F 
ATOM     30  F   UNL     1      -5.968  11.627  19.719  0.00  0.00    +0.000 F 
ATOM     31  F   UNL     1      -6.805  11.322  17.732  0.00  0.00    +0.000 F 
ENDBRANCH  26  28
ENDBRANCH  21  22
ENDBRANCH  19  21
ENDBRANCH   1  19
TORSDOF 5
ENDMDL
MODEL 9
REMARK VINA RESULT:      -8.4      1.849      2.655
REMARK  Name = 
REMARK  5 active torsions:
REMARK  status: ('A' for Active; 'I' for Inactive)
REMARK    1  A    between atoms: S_2  and  C_4
REMARK    2  A    between atoms: S_2  and  N_15
REMARK    3  A    between atoms: C_4  and  C_5
REMARK    4  A    between atoms: C_9  and  C_10
REMARK    5  A    between atoms: C_22  and  C_23
REMARK                            x       y       z     vdW  Elec       q    Type
REMARK                         _______ _______ _______ _____ _____    ______ ____
ROOT
ATOM      1  N   UNL     1       0.770  11.046  20.529  0.00  0.00    +0.000 NA
ATOM      2  C   UNL     1       0.975  11.717  19.170  0.00  0.00    +0.000 C 
ATOM      3  C   UNL     1       1.827  10.697  18.609  0.00  0.00    +0.000 C 
ATOM      4  O   UNL     1       2.311  10.060  17.526  0.00  0.00    +0.000 OA
ATOM      5  C   UNL     1       2.426   8.773  18.118  0.00  0.00    +0.000 A 
ATOM      6  C   UNL     1       3.213   7.993  17.283  0.00  0.00    +0.000 A 
ATOM      7  C   UNL     1       3.428   6.679  17.591  0.00  0.00    +0.000 A 
ATOM      8  C   UNL     1       2.823   6.057  18.705  0.00  0.00    +0.000 A 
ATOM      9  C   UNL     1       2.051   6.889  19.628  0.00  0.00    +0.000 A 
ATOM     10  C   UNL     1       1.832   8.305  19.395  0.00  0.00    +0.000 A 
ATOM     11  C   UNL     1       0.810   9.272  20.486  0.00  0.00    +0.000 C 
ENDROOT
BRANCH   8  12
ATOM     12  C   UNL     1       3.039   4.565  18.725  0.00  0.00    +0.000 A 
ATOM     13  C   UNL     1       2.792   3.715  17.647  0.00  0.00    +0.000 A 
ATOM     14  C   UNL     1       2.819   2.329  17.847  0.00  0.00    +0.000 A 
ATOM     15  N   UNL     1       3.072   1.725  19.032  0.00  0.00    +0.000 NA
ATOM     16  C   UNL     1       3.311   2.534  20.072  0.00  0.00    +0.000 A 
ATOM     17  C   UNL     1       3.313   3.921  19.964  0.00  0.00    +0.000 A 
ENDBRANCH   8  12
BRANCH   1  19
ATOM     18  O   UNL     1       0.273  12.965  22.187  0.00  0.00    +0.000 OA
ATOM     19  S   UNL     1      -0.438  11.968  21.422  0.00  0.00    +0.000 S 
ATOM     20  O   UNL     1      -1.312  10.996  22.059  0.00  0.00    +0.000 OA
BRANCH  19  21
ATOM     21  C   UNL     1      -1.323  12.752  20.019  0.00  0.00    +0.000 C 
BRANCH  21  22
ATOM     22  C   UNL     1      -2.478  12.077  19.274  0.00  0.00    +0.000 A 
ATOM     23  C   UNL     1      -3.787  12.407  19.710  0.00  0.00    +0.000 A 
ATOM     24  C   UNL     1      -4.933  12.092  18.968  0.00  0.00    +0.000 A 
ATOM     25  C   UNL     1      -4.808  11.440  17.751  0.00  0.00    +0.000 A 
ATOM     26  C   UNL     1      -3.534  11.111  17.262  0.00  0.00    +0.000 A 
ATOM     27  C   UNL     1      -2.375  11.444  18.023  0.00  0.00    +0.000 A 
BRANCH  26  28
ATOM     28  C   UNL     1      -3.418  10.452  15.902  0.00  0.00    +0.000 C 
ATOM     29  F   UNL     1      -4.551  10.557  15.145  0.00  0.00    +0.000 F 
ATOM     30  F   UNL     1      -2.423  10.991  15.144  0.00  0.00    +0.000 F 
ATOM     31  F   UNL     1      -3.154   9.120  15.985  0.00  0.00    +0.000 F 
ENDBRANCH  26  28
ENDBRANCH  21  22
ENDBRANCH  19  21
ENDBRANCH   1  19
TORSDOF 5
ENDMDL
