MODEL 1
REMARK VINA RESULT:      -8.1      0.000      0.000
REMARK  Name = 
REMARK  13 active torsions:
REMARK  status: ('A' for Active; 'I' for Inactive)
REMARK    1  A    between atoms: C_1  and  C_2
REMARK    2  A    between atoms: C_2  and  C_3
REMARK    3  A    between atoms: C_3  and  C_5
REMARK    4  A    between atoms: C_8  and  O_9
REMARK    5  A    between atoms: O_9  and  C_10
REMARK    6  A    between atoms: C_10  and  C_12
REMARK    7  A    between atoms: C_13  and  C_14
REMARK    8  A    between atoms: C_16  and  O_17
REMARK    9  A    between atoms: O_17  and  C_18
REMARK   10  A    between atoms: C_19  and  O_20
REMARK   11  A    between atoms: O_20  and  C_21
REMARK   12  A    between atoms: C_22  and  O_23
REMARK   13  A    between atoms: O_23  and  C_24
REMARK                            x       y       z     vdW  Elec       q    Type
REMARK                         _______ _______ _______ _____ _____    ______ ____
ROOT
ATOM      1  C   UNL     1       7.855   8.611  17.876  0.00  0.00    +0.000 C 
ATOM      2  C   UNL     1       8.822   8.989  18.722  0.00  0.00    +0.000 C 
ENDROOT
BRANCH   2   3
ATOM      3  C   UNL     1       9.245  10.375  18.959  0.00  0.00    +0.000 A 
ATOM      4  C   UNL     1       9.337  10.804  20.284  0.00  0.00    +0.000 A 
ATOM      5  C   UNL     1       9.721  12.112  20.594  0.00  0.00    +0.000 A 
ATOM      6  C   UNL     1      10.007  13.026  19.555  0.00  0.00    +0.000 A 
ATOM      7  C   UNL     1       9.925  12.601  18.213  0.00  0.00    +0.000 A 
ATOM      8  C   UNL     1       9.571  11.270  17.934  0.00  0.00    +0.000 A 
BRANCH   5   9
ATOM      9  O   UNL     1       9.813  12.577  21.885  0.00  0.00    +0.000 OA
ATOM     10  C   UNL     1       8.609  12.566  22.648  0.00  0.00    +0.000 C 
ENDBRANCH   5   9
BRANCH   6  11
ATOM     11  O   UNL     1      10.280  14.309  19.972  0.00  0.00    +0.000 OA
ATOM     12  C   UNL     1      11.647  14.693  20.040  0.00  0.00    +0.000 C 
ENDBRANCH   6  11
BRANCH   7  13
ATOM     13  O   UNL     1      10.168  13.523  17.228  0.00  0.00    +0.000 OA
ATOM     14  C   UNL     1      11.428  13.499  16.572  0.00  0.00    +0.000 C 
ENDBRANCH   7  13
ENDBRANCH   2   3
BRANCH   1  15
ATOM     15  C   UNL     1       7.511   7.173  17.782  0.00  0.00    +0.000 C 
ATOM     16  O   UNL     1       7.943   6.305  18.524  0.00  0.00    +0.000 OA
BRANCH  15  17
ATOM     17  O   UNL     1       6.645   7.031  16.714  0.00  0.00    +0.000 OA
BRANCH  17  21
ATOM     18  C   UNL     1       3.185   4.834  17.589  0.00  0.00    +0.000 A 
ATOM     19  C   UNL     1       4.293   4.225  16.987  0.00  0.00    +0.000 A 
ATOM     20  C   UNL     1       5.426   4.981  16.669  0.00  0.00    +0.000 A 
ATOM     21  C   UNL     1       5.443   6.347  16.948  0.00  0.00    +0.000 A 
ATOM     22  C   UNL     1       4.347   6.965  17.550  0.00  0.00    +0.000 A 
ATOM     23  C   UNL     1       3.216   6.210  17.859  0.00  0.00    +0.000 A 
BRANCH  18  24
ATOM     24  C   UNL     1       1.960   4.064  17.985  0.00  0.00    +0.000 C 
ATOM     25  O   UNL     1       0.998   4.035  17.223  0.00  0.00    +0.000 OA
BRANCH  24  27
ATOM     26  C   UNL     1       0.943   3.957  20.292  0.00  0.00    +0.000 C 
ATOM     27  C   UNL     1       1.958   3.360  19.330  0.00  0.00    +0.000 C 
ENDBRANCH  24  27
ENDBRANCH  18  24
ENDBRANCH  17  21
ENDBRANCH  15  17
ENDBRANCH   1  15
TORSDOF 9
ENDMDL
MODEL 2
REMARK VINA RESULT:      -8.1      0.969      2.636
REMARK  Name = 
REMARK  13 active torsions:
REMARK  status: ('A' for Active; 'I' for Inactive)
REMARK    1  A    between atoms: C_1  and  C_2
REMARK    2  A    between atoms: C_2  and  C_3
REMARK    3  A    between atoms: C_3  and  C_5
REMARK    4  A    between atoms: C_8  and  O_9
REMARK    5  A    between atoms: O_9  and  C_10
REMARK    6  A    between atoms: C_10  and  C_12
REMARK    7  A    between atoms: C_13  and  C_14
REMARK    8  A    between atoms: C_16  and  O_17
REMARK    9  A    between atoms: O_17  and  C_18
REMARK   10  A    between atoms: C_19  and  O_20
REMARK   11  A    between atoms: O_20  and  C_21
REMARK   12  A    between atoms: C_22  and  O_23
REMARK   13  A    between atoms: O_23  and  C_24
REMARK                            x       y       z     vdW  Elec       q    Type
REMARK                         _______ _______ _______ _____ _____    ______ ____
ROOT
ATOM      1  C   UNL     1       7.938   8.835  17.902  0.00  0.00    +0.000 C 
ATOM      2  C   UNL     1       8.902   9.180  18.767  0.00  0.00    +0.000 C 
ENDROOT
BRANCH   2   3
ATOM      3  C   UNL     1       9.322  10.556  19.060  0.00  0.00    +0.000 A 
ATOM      4  C   UNL     1       9.706  11.358  17.985  0.00  0.00    +0.000 A 
ATOM      5  C   UNL     1      10.130  12.675  18.181  0.00  0.00    +0.000 A 
ATOM      6  C   UNL     1      10.188  13.207  19.488  0.00  0.00    +0.000 A 
ATOM      7  C   UNL     1       9.794  12.409  20.582  0.00  0.00    +0.000 A 
ATOM      8  C   UNL     1       9.339  11.101  20.350  0.00  0.00    +0.000 A 
BRANCH   5   9
ATOM      9  O   UNL     1      10.528  13.493  17.149  0.00  0.00    +0.000 OA
ATOM     10  C   UNL     1      11.843  13.280  16.644  0.00  0.00    +0.000 C 
ENDBRANCH   5   9
BRANCH   6  11
ATOM     11  O   UNL     1      10.710  14.478  19.573  0.00  0.00    +0.000 OA
ATOM     12  C   UNL     1       9.788  15.553  19.692  0.00  0.00    +0.000 C 
ENDBRANCH   6  11
BRANCH   7  13
ATOM     13  O   UNL     1       9.903  12.941  21.841  0.00  0.00    +0.000 OA
ATOM     14  C   UNL     1       8.763  12.917  22.689  0.00  0.00    +0.000 C 
ENDBRANCH   7  13
ENDBRANCH   2   3
BRANCH   1  15
ATOM     15  C   UNL     1       7.596   7.401  17.751  0.00  0.00    +0.000 C 
ATOM     16  O   UNL     1       8.022   6.506  18.463  0.00  0.00    +0.000 OA
BRANCH  15  17
ATOM     17  O   UNL     1       6.739   7.301  16.671  0.00  0.00    +0.000 OA
BRANCH  17  21
ATOM     18  C   UNL     1       3.695   4.456  17.135  0.00  0.00    +0.000 A 
ATOM     19  C   UNL     1       4.819   4.188  16.342  0.00  0.00    +0.000 A 
ATOM     20  C   UNL     1       5.807   5.163  16.169  0.00  0.00    +0.000 A 
ATOM     21  C   UNL     1       5.665   6.406  16.785  0.00  0.00    +0.000 A 
ATOM     22  C   UNL     1       4.553   6.684  17.579  0.00  0.00    +0.000 A 
ATOM     23  C   UNL     1       3.565   5.713  17.743  0.00  0.00    +0.000 A 
BRANCH  18  24
ATOM     24  C   UNL     1       2.625   3.436  17.384  0.00  0.00    +0.000 C 
ATOM     25  O   UNL     1       1.449   3.751  17.228  0.00  0.00    +0.000 OA
BRANCH  24  27
ATOM     26  C   UNL     1       3.739   2.071  19.191  0.00  0.00    +0.000 C 
ATOM     27  C   UNL     1       3.046   2.050  17.837  0.00  0.00    +0.000 C 
ENDBRANCH  24  27
ENDBRANCH  18  24
ENDBRANCH  17  21
ENDBRANCH  15  17
ENDBRANCH   1  15
TORSDOF 9
ENDMDL
MODEL 3
REMARK VINA RESULT:      -7.9      0.987      2.667
REMARK  Name = 
REMARK  13 active torsions:
REMARK  status: ('A' for Active; 'I' for Inactive)
REMARK    1  A    between atoms: C_1  and  C_2
REMARK    2  A    between atoms: C_2  and  C_3
REMARK    3  A    between atoms: C_3  and  C_5
REMARK    4  A    between atoms: C_8  and  O_9
REMARK    5  A    between atoms: O_9  and  C_10
REMARK    6  A    between atoms: C_10  and  C_12
REMARK    7  A    between atoms: C_13  and  C_14
REMARK    8  A    between atoms: C_16  and  O_17
REMARK    9  A    between atoms: O_17  and  C_18
REMARK   10  A    between atoms: C_19  and  O_20
REMARK   11  A    between atoms: O_20  and  C_21
REMARK   12  A    between atoms: C_22  and  O_23
REMARK   13  A    between atoms: O_23  and  C_24
REMARK                            x       y       z     vdW  Elec       q    Type
REMARK                         _______ _______ _______ _____ _____    ______ ____
ROOT
ATOM      1  C   UNL     1       7.870   8.459  17.525  0.00  0.00    +0.000 C 
ATOM      2  C   UNL     1       8.638   8.763  18.579  0.00  0.00    +0.000 C 
ENDROOT
BRANCH   2   3
ATOM      3  C   UNL     1       9.060  10.118  18.955  0.00  0.00    +0.000 A 
ATOM      4  C   UNL     1       9.344  11.016  17.926  0.00  0.00    +0.000 A 
ATOM      5  C   UNL     1       9.762  12.321  18.200  0.00  0.00    +0.000 A 
ATOM      6  C   UNL     1       9.918  12.742  19.539  0.00  0.00    +0.000 A 
ATOM      7  C   UNL     1       9.626  11.847  20.588  0.00  0.00    +0.000 A 
ATOM      8  C   UNL     1       9.173  10.553  20.282  0.00  0.00    +0.000 A 
BRANCH   5   9
ATOM      9  O   UNL     1      10.063  13.231  17.214  0.00  0.00    +0.000 OA
ATOM     10  C   UNL     1      11.399  13.209  16.718  0.00  0.00    +0.000 C 
ENDBRANCH   5   9
BRANCH   6  11
ATOM     11  O   UNL     1      10.426  14.012  19.691  0.00  0.00    +0.000 OA
ATOM     12  C   UNL     1       9.494  15.064  19.907  0.00  0.00    +0.000 C 
ENDBRANCH   6  11
BRANCH   7  13
ATOM     13  O   UNL     1       9.828  12.272  21.876  0.00  0.00    +0.000 OA
ATOM     14  C   UNL     1       8.698  12.637  22.655  0.00  0.00    +0.000 C 
ENDBRANCH   7  13
ENDBRANCH   2   3
BRANCH   1  15
ATOM     15  C   UNL     1       7.489   7.044  17.305  0.00  0.00    +0.000 C 
ATOM     16  O   UNL     1       7.629   6.443  16.251  0.00  0.00    +0.000 OA
BRANCH  15  17
ATOM     17  O   UNL     1       6.955   6.577  18.491  0.00  0.00    +0.000 OA
BRANCH  17  21
ATOM     18  C   UNL     1       3.232   4.652  18.553  0.00  0.00    +0.000 A 
ATOM     19  C   UNL     1       4.334   4.115  19.232  0.00  0.00    +0.000 A 
ATOM     20  C   UNL     1       5.577   4.751  19.170  0.00  0.00    +0.000 A 
ATOM     21  C   UNL     1       5.717   5.921  18.423  0.00  0.00    +0.000 A 
ATOM     22  C   UNL     1       4.627   6.467  17.746  0.00  0.00    +0.000 A 
ATOM     23  C   UNL     1       3.390   5.826  17.803  0.00  0.00    +0.000 A 
BRANCH  18  24
ATOM     24  C   UNL     1       1.868   4.031  18.616  0.00  0.00    +0.000 C 
ATOM     25  O   UNL     1       1.401   3.509  17.609  0.00  0.00    +0.000 OA
BRANCH  24  27
ATOM     26  C   UNL     1       1.259   2.811  20.740  0.00  0.00    +0.000 C 
ATOM     27  C   UNL     1       1.112   4.091  19.931  0.00  0.00    +0.000 C 
ENDBRANCH  24  27
ENDBRANCH  18  24
ENDBRANCH  17  21
ENDBRANCH  15  17
ENDBRANCH   1  15
TORSDOF 9
ENDMDL
MODEL 4
REMARK VINA RESULT:      -7.7      0.927      2.727
REMARK  Name = 
REMARK  13 active torsions:
REMARK  status: ('A' for Active; 'I' for Inactive)
REMARK    1  A    between atoms: C_1  and  C_2
REMARK    2  A    between atoms: C_2  and  C_3
REMARK    3  A    between atoms: C_3  and  C_5
REMARK    4  A    between atoms: C_8  and  O_9
REMARK    5  A    between atoms: O_9  and  C_10
REMARK    6  A    between atoms: C_10  and  C_12
REMARK    7  A    between atoms: C_13  and  C_14
REMARK    8  A    between atoms: C_16  and  O_17
REMARK    9  A    between atoms: O_17  and  C_18
REMARK   10  A    between atoms: C_19  and  O_20
REMARK   11  A    between atoms: O_20  and  C_21
REMARK   12  A    between atoms: C_22  and  O_23
REMARK   13  A    between atoms: O_23  and  C_24
REMARK                            x       y       z     vdW  Elec       q    Type
REMARK                         _______ _______ _______ _____ _____    ______ ____
ROOT
ATOM      1  C   UNL     1       7.812   8.543  17.611  0.00  0.00    +0.000 C 
ATOM      2  C   UNL     1       8.754   8.838  18.516  0.00  0.00    +0.000 C 
ENDROOT
BRANCH   2   3
ATOM      3  C   UNL     1       9.133  10.194  18.931  0.00  0.00    +0.000 A 
ATOM      4  C   UNL     1       9.422  11.119  17.927  0.00  0.00    +0.000 A 
ATOM      5  C   UNL     1       9.802  12.428  18.239  0.00  0.00    +0.000 A 
ATOM      6  C   UNL     1       9.913  12.825  19.590  0.00  0.00    +0.000 A 
ATOM      7  C   UNL     1       9.616  11.901  20.613  0.00  0.00    +0.000 A 
ATOM      8  C   UNL     1       9.202  10.603  20.268  0.00  0.00    +0.000 A 
BRANCH   5   9
ATOM      9  O   UNL     1      10.106  13.366  17.279  0.00  0.00    +0.000 OA
ATOM     10  C   UNL     1      11.421  13.307  16.732  0.00  0.00    +0.000 C 
ENDBRANCH   5   9
BRANCH   6  11
ATOM     11  O   UNL     1      10.387  14.103  19.781  0.00  0.00    +0.000 OA
ATOM     12  C   UNL     1       9.423  15.137  19.935  0.00  0.00    +0.000 C 
ENDBRANCH   6  11
BRANCH   7  13
ATOM     13  O   UNL     1       9.774  12.304  21.914  0.00  0.00    +0.000 OA
ATOM     14  C   UNL     1       8.624  12.705  22.645  0.00  0.00    +0.000 C 
ENDBRANCH   7  13
ENDBRANCH   2   3
BRANCH   1  15
ATOM     15  C   UNL     1       7.509   7.119  17.334  0.00  0.00    +0.000 C 
ATOM     16  O   UNL     1       7.616   6.585  16.241  0.00  0.00    +0.000 OA
BRANCH  15  17
ATOM     17  O   UNL     1       7.086   6.555  18.523  0.00  0.00    +0.000 OA
BRANCH  17  21
ATOM     18  C   UNL     1       3.340   4.690  18.282  0.00  0.00    +0.000 A 
ATOM     19  C   UNL     1       3.586   5.904  17.625  0.00  0.00    +0.000 A 
ATOM     20  C   UNL     1       4.831   6.530  17.747  0.00  0.00    +0.000 A 
ATOM     21  C   UNL     1       5.824   5.943  18.530  0.00  0.00    +0.000 A 
ATOM     22  C   UNL     1       5.592   4.735  19.186  0.00  0.00    +0.000 A 
ATOM     23  C   UNL     1       4.348   4.116  19.070  0.00  0.00    +0.000 A 
BRANCH  18  24
ATOM     24  C   UNL     1       2.037   3.958  18.156  0.00  0.00    +0.000 C 
ATOM     25  O   UNL     1       1.308   4.192  17.196  0.00  0.00    +0.000 OA
BRANCH  24  27
ATOM     26  C   UNL     1       1.160   3.643  20.501  0.00  0.00    +0.000 C 
ATOM     27  C   UNL     1       1.666   2.962  19.240  0.00  0.00    +0.000 C 
ENDBRANCH  24  27
ENDBRANCH  18  24
ENDBRANCH  17  21
ENDBRANCH  15  17
ENDBRANCH   1  15
TORSDOF 9
ENDMDL
MODEL 5
REMARK VINA RESULT:      -7.5      0.663      2.651
REMARK  Name = 
REMARK  13 active torsions:
REMARK  status: ('A' for Active; 'I' for Inactive)
REMARK    1  A    between atoms: C_1  and  C_2
REMARK    2  A    between atoms: C_2  and  C_3
REMARK    3  A    between atoms: C_3  and  C_5
REMARK    4  A    between atoms: C_8  and  O_9
REMARK    5  A    between atoms: O_9  and  C_10
REMARK    6  A    between atoms: C_10  and  C_12
REMARK    7  A    between atoms: C_13  and  C_14
REMARK    8  A    between atoms: C_16  and  O_17
REMARK    9  A    between atoms: O_17  and  C_18
REMARK   10  A    between atoms: C_19  and  O_20
REMARK   11  A    between atoms: O_20  and  C_21
REMARK   12  A    between atoms: C_22  and  O_23
REMARK   13  A    between atoms: O_23  and  C_24
REMARK                            x       y       z     vdW  Elec       q    Type
REMARK                         _______ _______ _______ _____ _____    ______ ____
ROOT
ATOM      1  C   UNL     1       7.899   8.935  17.880  0.00  0.00    +0.000 C 
ATOM      2  C   UNL     1       8.887   9.386  18.663  0.00  0.00    +0.000 C 
ENDROOT
BRANCH   2   3
ATOM      3  C   UNL     1       9.240  10.799  18.851  0.00  0.00    +0.000 A 
ATOM      4  C   UNL     1       9.877  11.452  17.795  0.00  0.00    +0.000 A 
ATOM      5  C   UNL     1      10.256  12.793  17.899  0.00  0.00    +0.000 A 
ATOM      6  C   UNL     1      10.008  13.503  19.094  0.00  0.00    +0.000 A 
ATOM      7  C   UNL     1       9.358  12.856  20.165  0.00  0.00    +0.000 A 
ATOM      8  C   UNL     1       8.957  11.518  20.019  0.00  0.00    +0.000 A 
BRANCH   5   9
ATOM      9  O   UNL     1      10.895  13.469  16.885  0.00  0.00    +0.000 OA
ATOM     10  C   UNL     1      12.259  13.123  16.657  0.00  0.00    +0.000 C 
ENDBRANCH   5   9
BRANCH   6  11
ATOM     11  O   UNL     1      10.509  14.785  19.121  0.00  0.00    +0.000 OA
ATOM     12  C   UNL     1      11.720  14.996  19.834  0.00  0.00    +0.000 C 
ENDBRANCH   6  11
BRANCH   7  13
ATOM     13  O   UNL     1       9.171  13.560  21.327  0.00  0.00    +0.000 OA
ATOM     14  C   UNL     1       9.091  12.841  22.550  0.00  0.00    +0.000 C 
ENDBRANCH   7  13
ENDBRANCH   2   3
BRANCH   1  15
ATOM     15  C   UNL     1       7.634   7.478  17.832  0.00  0.00    +0.000 C 
ATOM     16  O   UNL     1       8.204   6.645  18.519  0.00  0.00    +0.000 OA
BRANCH  15  17
ATOM     17  O   UNL     1       6.657   7.274  16.875  0.00  0.00    +0.000 OA
BRANCH  17  21
ATOM     18  C   UNL     1       3.108   5.266  17.848  0.00  0.00    +0.000 A 
ATOM     19  C   UNL     1       3.202   6.660  17.955  0.00  0.00    +0.000 A 
ATOM     20  C   UNL     1       4.405   7.310  17.662  0.00  0.00    +0.000 A 
ATOM     21  C   UNL     1       5.514   6.562  17.268  0.00  0.00    +0.000 A 
ATOM     22  C   UNL     1       5.433   5.174  17.154  0.00  0.00    +0.000 A 
ATOM     23  C   UNL     1       4.234   4.528  17.456  0.00  0.00    +0.000 A 
BRANCH  18  24
ATOM     24  C   UNL     1       1.833   4.523  18.115  0.00  0.00    +0.000 C 
ATOM     25  O   UNL     1       1.120   4.197  17.170  0.00  0.00    +0.000 OA
BRANCH  24  27
ATOM     26  C   UNL     1       0.958   2.797  19.734  0.00  0.00    +0.000 C 
ATOM     27  C   UNL     1       1.469   4.218  19.557  0.00  0.00    +0.000 C 
ENDBRANCH  24  27
ENDBRANCH  18  24
ENDBRANCH  17  21
ENDBRANCH  15  17
ENDBRANCH   1  15
TORSDOF 9
ENDMDL
MODEL 6
REMARK VINA RESULT:      -7.5      1.091      1.241
REMARK  Name = 
REMARK  13 active torsions:
REMARK  status: ('A' for Active; 'I' for Inactive)
REMARK    1  A    between atoms: C_1  and  C_2
REMARK    2  A    between atoms: C_2  and  C_3
REMARK    3  A    between atoms: C_3  and  C_5
REMARK    4  A    between atoms: C_8  and  O_9
REMARK    5  A    between atoms: O_9  and  C_10
REMARK    6  A    between atoms: C_10  and  C_12
REMARK    7  A    between atoms: C_13  and  C_14
REMARK    8  A    between atoms: C_16  and  O_17
REMARK    9  A    between atoms: O_17  and  C_18
REMARK   10  A    between atoms: C_19  and  O_20
REMARK   11  A    between atoms: O_20  and  C_21
REMARK   12  A    between atoms: C_22  and  O_23
REMARK   13  A    between atoms: O_23  and  C_24
REMARK                            x       y       z     vdW  Elec       q    Type
REMARK                         _______ _______ _______ _____ _____    ______ ____
ROOT
ATOM      1  C   UNL     1       7.714   8.720  17.790  0.00  0.00    +0.000 C 
ATOM      2  C   UNL     1       8.828   9.102  18.428  0.00  0.00    +0.000 C 
ENDROOT
BRANCH   2   3
ATOM      3  C   UNL     1       9.100  10.460  18.916  0.00  0.00    +0.000 A 
ATOM      4  C   UNL     1       9.123  10.657  20.297  0.00  0.00    +0.000 A 
ATOM      5  C   UNL     1       9.364  11.922  20.841  0.00  0.00    +0.000 A 
ATOM      6  C   UNL     1       9.573  13.027  19.987  0.00  0.00    +0.000 A 
ATOM      7  C   UNL     1       9.561  12.838  18.589  0.00  0.00    +0.000 A 
ATOM      8  C   UNL     1       9.352  11.549  18.072  0.00  0.00    +0.000 A 
BRANCH   5   9
ATOM      9  O   UNL     1       9.382  12.160  22.196  0.00  0.00    +0.000 OA
ATOM     10  C   UNL     1       8.250  11.708  22.933  0.00  0.00    +0.000 C 
ENDBRANCH   5   9
BRANCH   6  11
ATOM     11  O   UNL     1       9.704  14.238  20.628  0.00  0.00    +0.000 OA
ATOM     12  C   UNL     1       8.561  15.082  20.663  0.00  0.00    +0.000 C 
ENDBRANCH   6  11
BRANCH   7  13
ATOM     13  O   UNL     1       9.725  13.938  17.787  0.00  0.00    +0.000 OA
ATOM     14  C   UNL     1      11.019  14.213  17.270  0.00  0.00    +0.000 C 
ENDBRANCH   7  13
ENDBRANCH   2   3
BRANCH   1  15
ATOM     15  C   UNL     1       7.566   7.298  17.401  0.00  0.00    +0.000 C 
ATOM     16  O   UNL     1       7.822   6.850  16.294  0.00  0.00    +0.000 OA
BRANCH  15  17
ATOM     17  O   UNL     1       7.087   6.621  18.507  0.00  0.00    +0.000 OA
BRANCH  17  21
ATOM     18  C   UNL     1       3.478   4.501  18.278  0.00  0.00    +0.000 A 
ATOM     19  C   UNL     1       4.478   4.128  19.186  0.00  0.00    +0.000 A 
ATOM     20  C   UNL     1       5.690   4.825  19.223  0.00  0.00    +0.000 A 
ATOM     21  C   UNL     1       5.901   5.888  18.347  0.00  0.00    +0.000 A 
ATOM     22  C   UNL     1       4.913   6.270  17.440  0.00  0.00    +0.000 A 
ATOM     23  C   UNL     1       3.708   5.569  17.400  0.00  0.00    +0.000 A 
BRANCH  18  24
ATOM     24  C   UNL     1       2.147   3.812  18.222  0.00  0.00    +0.000 C 
ATOM     25  O   UNL     1       1.370   4.084  17.311  0.00  0.00    +0.000 OA
BRANCH  24  27
ATOM     26  C   UNL     1       0.978   3.430  20.425  0.00  0.00    +0.000 C 
ATOM     27  C   UNL     1       1.809   2.812  19.312  0.00  0.00    +0.000 C 
ENDBRANCH  24  27
ENDBRANCH  18  24
ENDBRANCH  17  21
ENDBRANCH  15  17
ENDBRANCH   1  15
TORSDOF 9
ENDMDL
MODEL 7
REMARK VINA RESULT:      -7.4      1.022      1.072
REMARK  Name = 
REMARK  13 active torsions:
REMARK  status: ('A' for Active; 'I' for Inactive)
REMARK    1  A    between atoms: C_1  and  C_2
REMARK    2  A    between atoms: C_2  and  C_3
REMARK    3  A    between atoms: C_3  and  C_5
REMARK    4  A    between atoms: C_8  and  O_9
REMARK    5  A    between atoms: O_9  and  C_10
REMARK    6  A    between atoms: C_10  and  C_12
REMARK    7  A    between atoms: C_13  and  C_14
REMARK    8  A    between atoms: C_16  and  O_17
REMARK    9  A    between atoms: O_17  and  C_18
REMARK   10  A    between atoms: C_19  and  O_20
REMARK   11  A    between atoms: O_20  and  C_21
REMARK   12  A    between atoms: C_22  and  O_23
REMARK   13  A    between atoms: O_23  and  C_24
REMARK                            x       y       z     vdW  Elec       q    Type
REMARK                         _______ _______ _______ _____ _____    ______ ____
ROOT
ATOM      1  C   UNL     1       8.299   8.873  17.957  0.00  0.00    +0.000 C 
ATOM      2  C   UNL     1       8.988   9.237  19.046  0.00  0.00    +0.000 C 
ENDROOT
BRANCH   2   3
ATOM      3  C   UNL     1       9.589  10.559  19.265  0.00  0.00    +0.000 A 
ATOM      4  C   UNL     1       9.258  11.232  20.442  0.00  0.00    +0.000 A 
ATOM      5  C   UNL     1       9.779  12.499  20.720  0.00  0.00    +0.000 A 
ATOM      6  C   UNL     1      10.643  13.123  19.792  0.00  0.00    +0.000 A 
ATOM      7  C   UNL     1      10.991  12.448  18.604  0.00  0.00    +0.000 A 
ATOM      8  C   UNL     1      10.480  11.161  18.369  0.00  0.00    +0.000 A 
BRANCH   5   9
ATOM      9  O   UNL     1       9.468  13.200  21.862  0.00  0.00    +0.000 OA
ATOM     10  C   UNL     1       8.653  12.524  22.816  0.00  0.00    +0.000 C 
ENDBRANCH   5   9
BRANCH   6  11
ATOM     11  O   UNL     1      11.017  14.405  20.122  0.00  0.00    +0.000 OA
ATOM     12  C   UNL     1      10.185  15.463  19.667  0.00  0.00    +0.000 C 
ENDBRANCH   6  11
BRANCH   7  13
ATOM     13  O   UNL     1      11.797  13.098  17.705  0.00  0.00    +0.000 OA
ATOM     14  C   UNL     1      11.220  13.574  16.497  0.00  0.00    +0.000 C 
ENDBRANCH   7  13
ENDBRANCH   2   3
BRANCH   1  15
ATOM     15  C   UNL     1       7.712   7.514  17.905  0.00  0.00    +0.000 C 
ATOM     16  O   UNL     1       8.020   6.594  18.647  0.00  0.00    +0.000 OA
BRANCH  15  17
ATOM     17  O   UNL     1       6.791   7.508  16.875  0.00  0.00    +0.000 OA
BRANCH  17  21
ATOM     18  C   UNL     1       3.734   4.671  17.296  0.00  0.00    +0.000 A 
ATOM     19  C   UNL     1       4.794   4.463  16.404  0.00  0.00    +0.000 A 
ATOM     20  C   UNL     1       5.786   5.437  16.250  0.00  0.00    +0.000 A 
ATOM     21  C   UNL     1       5.710   6.620  16.984  0.00  0.00    +0.000 A 
ATOM     22  C   UNL     1       4.662   6.838  17.877  0.00  0.00    +0.000 A 
ATOM     23  C   UNL     1       3.670   5.869  18.023  0.00  0.00    +0.000 A 
BRANCH  18  24
ATOM     24  C   UNL     1       2.665   3.645  17.527  0.00  0.00    +0.000 C 
ATOM     25  O   UNL     1       1.551   3.820  17.040  0.00  0.00    +0.000 OA
BRANCH  24  27
ATOM     26  C   UNL     1       4.177   2.691  19.308  0.00  0.00    +0.000 C 
ATOM     27  C   UNL     1       3.004   2.433  18.375  0.00  0.00    +0.000 C 
ENDBRANCH  24  27
ENDBRANCH  18  24
ENDBRANCH  17  21
ENDBRANCH  15  17
ENDBRANCH   1  15
TORSDOF 9
ENDMDL
MODEL 8
REMARK VINA RESULT:      -7.4      0.809      1.233
REMARK  Name = 
REMARK  13 active torsions:
REMARK  status: ('A' for Active; 'I' for Inactive)
REMARK    1  A    between atoms: C_1  and  C_2
REMARK    2  A    between atoms: C_2  and  C_3
REMARK    3  A    between atoms: C_3  and  C_5
REMARK    4  A    between atoms: C_8  and  O_9
REMARK    5  A    between atoms: O_9  and  C_10
REMARK    6  A    between atoms: C_10  and  C_12
REMARK    7  A    between atoms: C_13  and  C_14
REMARK    8  A    between atoms: C_16  and  O_17
REMARK    9  A    between atoms: O_17  and  C_18
REMARK   10  A    between atoms: C_19  and  O_20
REMARK   11  A    between atoms: O_20  and  C_21
REMARK   12  A    between atoms: C_22  and  O_23
REMARK   13  A    between atoms: O_23  and  C_24
REMARK                            x       y       z     vdW  Elec       q    Type
REMARK                         _______ _______ _______ _____ _____    ______ ____
ROOT
ATOM      1  C   UNL     1       8.022   8.848  17.994  0.00  0.00    +0.000 C 
ATOM      2  C   UNL     1       9.050   9.298  18.726  0.00  0.00    +0.000 C 
ENDROOT
BRANCH   2   3
ATOM      3  C   UNL     1       9.439  10.708  18.861  0.00  0.00    +0.000 A 
ATOM      4  C   UNL     1       9.176  11.337  20.079  0.00  0.00    +0.000 A 
ATOM      5  C   UNL     1       9.505  12.680  20.284  0.00  0.00    +0.000 A 
ATOM      6  C   UNL     1      10.101  13.424  19.241  0.00  0.00    +0.000 A 
ATOM      7  C   UNL     1      10.380  12.797  18.010  0.00  0.00    +0.000 A 
ATOM      8  C   UNL     1      10.069  11.436  17.846  0.00  0.00    +0.000 A 
BRANCH   5   9
ATOM      9  O   UNL     1       9.252  13.339  21.464  0.00  0.00    +0.000 OA
ATOM     10  C   UNL     1       8.888  12.526  22.577  0.00  0.00    +0.000 C 
ENDBRANCH   5   9
BRANCH   6  11
ATOM     11  O   UNL     1      10.294  14.758  19.520  0.00  0.00    +0.000 OA
ATOM     12  C   UNL     1      11.571  15.142  20.010  0.00  0.00    +0.000 C 
ENDBRANCH   6  11
BRANCH   7  13
ATOM     13  O   UNL     1      10.919  13.558  17.005  0.00  0.00    +0.000 OA
ATOM     14  C   UNL     1      12.332  13.594  16.865  0.00  0.00    +0.000 C 
ENDBRANCH   7  13
ENDBRANCH   2   3
BRANCH   1  15
ATOM     15  C   UNL     1       7.726   7.396  17.997  0.00  0.00    +0.000 C 
ATOM     16  O   UNL     1       8.257   6.580  18.733  0.00  0.00    +0.000 OA
BRANCH  15  17
ATOM     17  O   UNL     1       6.773   7.175  17.021  0.00  0.00    +0.000 OA
BRANCH  17  21
ATOM     18  C   UNL     1       3.676   4.415  17.628  0.00  0.00    +0.000 A 
ATOM     19  C   UNL     1       3.427   5.794  17.642  0.00  0.00    +0.000 A 
ATOM     20  C   UNL     1       4.479   6.700  17.474  0.00  0.00    +0.000 A 
ATOM     21  C   UNL     1       5.778   6.225  17.299  0.00  0.00    +0.000 A 
ATOM     22  C   UNL     1       6.038   4.855  17.281  0.00  0.00    +0.000 A 
ATOM     23  C   UNL     1       4.990   3.954  17.456  0.00  0.00    +0.000 A 
BRANCH  18  24
ATOM     24  C   UNL     1       2.582   3.399  17.766  0.00  0.00    +0.000 C 
ATOM     25  O   UNL     1       2.556   2.438  17.002  0.00  0.00    +0.000 OA
BRANCH  24  27
ATOM     26  C   UNL     1       0.586   2.432  18.971  0.00  0.00    +0.000 C 
ATOM     27  C   UNL     1       1.535   3.613  18.845  0.00  0.00    +0.000 C 
ENDBRANCH  24  27
ENDBRANCH  18  24
ENDBRANCH  17  21
ENDBRANCH  15  17
ENDBRANCH   1  15
TORSDOF 9
ENDMDL
MODEL 9
REMARK VINA RESULT:      -7.2      4.992      7.832
REMARK  Name = 
REMARK  13 active torsions:
REMARK  status: ('A' for Active; 'I' for Inactive)
REMARK    1  A    between atoms: C_1  and  C_2
REMARK    2  A    between atoms: C_2  and  C_3
REMARK    3  A    between atoms: C_3  and  C_5
REMARK    4  A    between atoms: C_8  and  O_9
REMARK    5  A    between atoms: O_9  and  C_10
REMARK    6  A    between atoms: C_10  and  C_12
REMARK    7  A    between atoms: C_13  and  C_14
REMARK    8  A    between atoms: C_16  and  O_17
REMARK    9  A    between atoms: O_17  and  C_18
REMARK   10  A    between atoms: C_19  and  O_20
REMARK   11  A    between atoms: O_20  and  C_21
REMARK   12  A    between atoms: C_22  and  O_23
REMARK   13  A    between atoms: O_23  and  C_24
REMARK                            x       y       z     vdW  Elec       q    Type
REMARK                         _______ _______ _______ _____ _____    ______ ____
ROOT
ATOM      1  C   UNL     1       1.425   4.961  20.578  0.00  0.00    +0.000 C 
ATOM      2  C   UNL     1       2.178   6.060  20.431  0.00  0.00    +0.000 C 
ENDROOT
BRANCH   2   3
ATOM      3  C   UNL     1       1.660   7.421  20.246  0.00  0.00    +0.000 A 
ATOM      4  C   UNL     1       0.853   7.948  21.255  0.00  0.00    +0.000 A 
ATOM      5  C   UNL     1       0.311   9.233  21.150  0.00  0.00    +0.000 A 
ATOM      6  C   UNL     1       0.568  10.011  20.000  0.00  0.00    +0.000 A 
ATOM      7  C   UNL     1       1.389   9.493  18.977  0.00  0.00    +0.000 A 
ATOM      8  C   UNL     1       1.948   8.212  19.128  0.00  0.00    +0.000 A 
BRANCH   5   9
ATOM      9  O   UNL     1      -0.498   9.783  22.116  0.00  0.00    +0.000 OA
ATOM     10  C   UNL     1      -0.093   9.584  23.468  0.00  0.00    +0.000 C 
ENDBRANCH   5   9
BRANCH   6  11
ATOM     11  O   UNL     1      -0.092  11.218  19.959  0.00  0.00    +0.000 OA
ATOM     12  C   UNL     1      -1.295  11.277  19.203  0.00  0.00    +0.000 C 
ENDBRANCH   6  11
BRANCH   7  13
ATOM     13  O   UNL     1       1.583  10.256  17.855  0.00  0.00    +0.000 OA
ATOM     14  C   UNL     1       2.426  11.396  17.948  0.00  0.00    +0.000 C 
ENDBRANCH   7  13
ENDBRANCH   2   3
BRANCH   1  15
ATOM     15  C   UNL     1       2.098   3.661  20.805  0.00  0.00    +0.000 C 
ATOM     16  O   UNL     1       2.365   3.198  21.903  0.00  0.00    +0.000 OA
BRANCH  15  17
ATOM     17  O   UNL     1       2.358   3.116  19.561  0.00  0.00    +0.000 OA
BRANCH  17  21
ATOM     18  C   UNL     1       5.616   4.752  17.492  0.00  0.00    +0.000 A 
ATOM     19  C   UNL     1       4.375   4.579  16.865  0.00  0.00    +0.000 A 
ATOM     20  C   UNL     1       3.310   3.998  17.559  0.00  0.00    +0.000 A 
ATOM     21  C   UNL     1       3.490   3.585  18.879  0.00  0.00    +0.000 A 
ATOM     22  C   UNL     1       4.720   3.754  19.516  0.00  0.00    +0.000 A 
ATOM     23  C   UNL     1       5.782   4.327  18.818  0.00  0.00    +0.000 A 
BRANCH  18  24
ATOM     24  C   UNL     1       6.780   5.403  16.807  0.00  0.00    +0.000 C 
ATOM     25  O   UNL     1       7.452   4.748  16.015  0.00  0.00    +0.000 OA
BRANCH  24  27
ATOM     26  C   UNL     1       7.971   6.988  18.368  0.00  0.00    +0.000 C 
ATOM     27  C   UNL     1       7.089   6.852  17.136  0.00  0.00    +0.000 C 
ENDBRANCH  24  27
ENDBRANCH  18  24
ENDBRANCH  17  21
ENDBRANCH  15  17
ENDBRANCH   1  15
TORSDOF 9
ENDMDL
