MODEL 1
REMARK VINA RESULT:      -7.4      0.000      0.000
REMARK  Name = 
REMARK  15 active torsions:
REMARK  status: ('A' for Active; 'I' for Inactive)
REMARK    1  A    between atoms: C_1  and  C_2
REMARK    2  A    between atoms: C_2  and  C_3
REMARK    3  A    between atoms: C_3  and  C_4
REMARK    4  A    between atoms: C_4  and  S_5
REMARK    5  A    between atoms: S_5  and  N_8
REMARK    6  A    between atoms: N_8  and  C_9
REMARK    7  A    between atoms: C_9  and  C_10
REMARK    8  A    between atoms: C_9  and  C_28
REMARK    9  A    between atoms: C_10  and  N_11
REMARK   10  A    between atoms: C_12  and  C_14
REMARK   11  A    between atoms: C_14  and  C_15
REMARK   12  A    between atoms: C_17  and  C_18
REMARK   13  A    between atoms: C_18  and  C_19
REMARK   14  A    between atoms: C_19  and  C_20
REMARK   15  A    between atoms: C_28  and  O_30
REMARK                            x       y       z     vdW  Elec       q    Type
REMARK                         _______ _______ _______ _____ _____    ______ ____
ROOT
ATOM      1  N   UNL     1       4.060   6.252  18.250  0.00  0.00    +0.000 N 
ATOM      2  C   UNL     1       3.186   7.275  17.955  0.00  0.00    +0.000 C 
ATOM      3  O   UNL     1       3.368   8.022  16.999  0.00  0.00    +0.000 OA
ATOM      4  H   UNL     1       4.114   5.946  19.214  0.00  0.00    +0.000 HD
ENDROOT
BRANCH   1   5
ATOM      5  C   UNL     1       5.236   6.020  17.414  0.00  0.00    +0.000 C 
BRANCH   5   6
ATOM      6  C   UNL     1       5.805   4.607  17.607  0.00  0.00    +0.000 C 
BRANCH   6   7
ATOM      7  N   UNL     1       5.862   4.175  19.096  0.00  0.00    +0.000 NA
ATOM      8  H   UNL     1       6.696   3.582  19.212  0.00  0.00    +0.000 HD
BRANCH   7   9
ATOM      9  S   UNL     1       4.462   3.315  19.552  0.00  0.00    +0.000 S 
ATOM     10  O   UNL     1       3.582   4.277  20.178  0.00  0.00    +0.000 OA
ATOM     11  O   UNL     1       4.919   2.130  20.246  0.00  0.00    +0.000 OA
BRANCH   9  12
ATOM     12  C   UNL     1       3.711   2.750  18.014  0.00  0.00    +0.000 C 
BRANCH  12  13
ATOM     13  C   UNL     1       2.512   1.882  18.414  0.00  0.00    +0.000 C 
BRANCH  13  15
ATOM     14  C   UNL     1       1.317   3.960  17.728  0.00  0.00    +0.000 C 
ATOM     15  C   UNL     1       1.185   2.619  18.442  0.00  0.00    +0.000 C 
ENDBRANCH  13  15
ENDBRANCH  12  13
ENDBRANCH   9  12
ENDBRANCH   7   9
ENDBRANCH   6   7
BRANCH   6  16
ATOM     16  C   UNL     1       7.221   4.557  17.067  0.00  0.00    +0.000 C 
ATOM     17  O   UNL     1       7.527   4.933  15.918  0.00  0.00    +0.000 OA
BRANCH  16  18
ATOM     18  O   UNL     1       8.138   4.002  17.893  0.00  0.00    +0.000 OA
ATOM     19  H   UNL     1       8.994   3.858  17.440  0.00  0.00    +0.000 HD
ENDBRANCH  16  18
ENDBRANCH   6  16
ENDBRANCH   5   6
ENDBRANCH   1   5
BRANCH   2  20
ATOM     20  C   UNL     1       1.994   7.377  18.880  0.00  0.00    +0.000 C 
BRANCH  20  21
ATOM     21  C   UNL     1       1.887   8.771  19.499  0.00  0.00    +0.000 C 
ATOM     22  C   UNL     1       0.906   9.655  18.756  0.00  0.00    +0.000 C 
ATOM     23  C   UNL     1       0.061  10.122  19.875  0.00  0.00    +0.000 C 
ATOM     24  N   UNL     1       0.319   9.565  21.015  0.00  0.00    +0.000 NA
ATOM     25  O   UNL     1       1.388   8.658  20.838  0.00  0.00    +0.000 OA
BRANCH  23  26
ATOM     26  C   UNL     1      -1.073  11.110  19.671  0.00  0.00    +0.000 C 
BRANCH  26  27
ATOM     27  C   UNL     1      -1.563  10.948  18.199  0.00  0.00    +0.000 C 
BRANCH  27  28
ATOM     28  C   UNL     1      -2.654   9.933  17.772  0.00  0.00    +0.000 C 
ATOM     29  C   UNL     1      -2.446   9.560  16.307  0.00  0.00    +0.000 C 
ATOM     30  C   UNL     1      -2.848  10.728  15.391  0.00  0.00    +0.000 C 
ATOM     31  N   UNL     1      -4.286  10.970  15.483  0.00  0.00    +0.000 NA
ATOM     32  C   UNL     1      -4.656  11.369  16.844  0.00  0.00    +0.000 C 
ATOM     33  C   UNL     1      -4.138  10.405  17.922  0.00  0.00    +0.000 C 
ATOM     34  H   UNL     1      -4.777  10.112  15.236  0.00  0.00    +0.000 HD
ENDBRANCH  27  28
ENDBRANCH  26  27
ENDBRANCH  23  26
ENDBRANCH  20  21
ENDBRANCH   2  20
TORSDOF 14
ENDMDL
MODEL 2
REMARK VINA RESULT:      -7.1      6.100      8.647
REMARK  Name = 
REMARK  15 active torsions:
REMARK  status: ('A' for Active; 'I' for Inactive)
REMARK    1  A    between atoms: C_1  and  C_2
REMARK    2  A    between atoms: C_2  and  C_3
REMARK    3  A    between atoms: C_3  and  C_4
REMARK    4  A    between atoms: C_4  and  S_5
REMARK    5  A    between atoms: S_5  and  N_8
REMARK    6  A    between atoms: N_8  and  C_9
REMARK    7  A    between atoms: C_9  and  C_10
REMARK    8  A    between atoms: C_9  and  C_28
REMARK    9  A    between atoms: C_10  and  N_11
REMARK   10  A    between atoms: C_12  and  C_14
REMARK   11  A    between atoms: C_14  and  C_15
REMARK   12  A    between atoms: C_17  and  C_18
REMARK   13  A    between atoms: C_18  and  C_19
REMARK   14  A    between atoms: C_19  and  C_20
REMARK   15  A    between atoms: C_28  and  O_30
REMARK                            x       y       z     vdW  Elec       q    Type
REMARK                         _______ _______ _______ _____ _____    ______ ____
ROOT
ATOM      1  N   UNL     1       6.561   6.400  17.552  0.00  0.00    +0.000 N 
ATOM      2  C   UNL     1       7.666   7.022  18.088  0.00  0.00    +0.000 C 
ATOM      3  O   UNL     1       8.243   6.574  19.073  0.00  0.00    +0.000 OA
ATOM      4  H   UNL     1       5.900   6.975  17.043  0.00  0.00    +0.000 HD
ENDROOT
BRANCH   1   5
ATOM      5  C   UNL     1       6.046   5.167  18.145  0.00  0.00    +0.000 C 
BRANCH   5   6
ATOM      6  C   UNL     1       5.035   4.469  17.225  0.00  0.00    +0.000 C 
BRANCH   6   7
ATOM      7  N   UNL     1       4.696   3.026  17.682  0.00  0.00    +0.000 NA
ATOM      8  H   UNL     1       4.997   2.387  16.932  0.00  0.00    +0.000 HD
BRANCH   7   9
ATOM      9  S   UNL     1       3.027   2.838  17.979  0.00  0.00    +0.000 S 
ATOM     10  O   UNL     1       2.860   1.509  18.523  0.00  0.00    +0.000 OA
ATOM     11  O   UNL     1       2.349   3.263  16.773  0.00  0.00    +0.000 OA
BRANCH   9  12
ATOM     12  C   UNL     1       2.617   4.047  19.251  0.00  0.00    +0.000 C 
BRANCH  12  13
ATOM     13  C   UNL     1       1.163   3.772  19.652  0.00  0.00    +0.000 C 
BRANCH  13  15
ATOM     14  C   UNL     1       2.276   3.046  21.762  0.00  0.00    +0.000 C 
ATOM     15  C   UNL     1       1.007   2.954  20.922  0.00  0.00    +0.000 C 
ENDBRANCH  13  15
ENDBRANCH  12  13
ENDBRANCH   9  12
ENDBRANCH   7   9
ENDBRANCH   6   7
BRANCH   6  16
ATOM     16  C   UNL     1       5.610   4.376  15.825  0.00  0.00    +0.000 C 
ATOM     17  O   UNL     1       5.505   5.290  14.983  0.00  0.00    +0.000 OA
BRANCH  16  18
ATOM     18  O   UNL     1       6.188   3.194  15.511  0.00  0.00    +0.000 OA
ATOM     19  H   UNL     1       6.572   2.758  16.299  0.00  0.00    +0.000 HD
ENDBRANCH  16  18
ENDBRANCH   6  16
ENDBRANCH   5   6
ENDBRANCH   1   5
BRANCH   2  20
ATOM     20  C   UNL     1       8.112   8.266  17.352  0.00  0.00    +0.000 C 
BRANCH  20  21
ATOM     21  C   UNL     1       8.056   9.498  18.256  0.00  0.00    +0.000 C 
ATOM     22  C   UNL     1       9.257   9.590  19.175  0.00  0.00    +0.000 C 
ATOM     23  C   UNL     1       9.700  10.974  18.902  0.00  0.00    +0.000 C 
ATOM     24  N   UNL     1       9.059  11.568  17.946  0.00  0.00    +0.000 NA
ATOM     25  O   UNL     1       8.078  10.681  17.447  0.00  0.00    +0.000 OA
BRANCH  23  26
ATOM     26  C   UNL     1      10.870  11.605  19.634  0.00  0.00    +0.000 C 
BRANCH  26  27
ATOM     27  C   UNL     1      10.426  13.041  20.056  0.00  0.00    +0.000 C 
BRANCH  27  28
ATOM     28  C   UNL     1      11.216  14.321  19.683  0.00  0.00    +0.000 C 
ATOM     29  C   UNL     1      10.234  15.427  19.312  0.00  0.00    +0.000 C 
ATOM     30  C   UNL     1       9.596  15.145  17.942  0.00  0.00    +0.000 C 
ATOM     31  N   UNL     1      10.607  15.216  16.889  0.00  0.00    +0.000 NA
ATOM     32  C   UNL     1      11.631  14.186  17.086  0.00  0.00    +0.000 C 
ATOM     33  C   UNL     1      12.232  14.190  18.500  0.00  0.00    +0.000 C 
ATOM     34  H   UNL     1      11.043  16.137  16.918  0.00  0.00    +0.000 HD
ENDBRANCH  27  28
ENDBRANCH  26  27
ENDBRANCH  23  26
ENDBRANCH  20  21
ENDBRANCH   2  20
TORSDOF 14
ENDMDL
MODEL 3
REMARK VINA RESULT:      -7.0      2.121      3.404
REMARK  Name = 
REMARK  15 active torsions:
REMARK  status: ('A' for Active; 'I' for Inactive)
REMARK    1  A    between atoms: C_1  and  C_2
REMARK    2  A    between atoms: C_2  and  C_3
REMARK    3  A    between atoms: C_3  and  C_4
REMARK    4  A    between atoms: C_4  and  S_5
REMARK    5  A    between atoms: S_5  and  N_8
REMARK    6  A    between atoms: N_8  and  C_9
REMARK    7  A    between atoms: C_9  and  C_10
REMARK    8  A    between atoms: C_9  and  C_28
REMARK    9  A    between atoms: C_10  and  N_11
REMARK   10  A    between atoms: C_12  and  C_14
REMARK   11  A    between atoms: C_14  and  C_15
REMARK   12  A    between atoms: C_17  and  C_18
REMARK   13  A    between atoms: C_18  and  C_19
REMARK   14  A    between atoms: C_19  and  C_20
REMARK   15  A    between atoms: C_28  and  O_30
REMARK                            x       y       z     vdW  Elec       q    Type
REMARK                         _______ _______ _______ _____ _____    ______ ____
ROOT
ATOM      1  N   UNL     1       3.866   6.528  18.673  0.00  0.00    +0.000 N 
ATOM      2  C   UNL     1       2.503   6.561  18.867  0.00  0.00    +0.000 C 
ATOM      3  O   UNL     1       1.929   5.721  19.552  0.00  0.00    +0.000 OA
ATOM      4  H   UNL     1       4.228   6.945  17.823  0.00  0.00    +0.000 HD
ENDROOT
BRANCH   1   5
ATOM      5  C   UNL     1       4.676   5.482  19.294  0.00  0.00    +0.000 C 
BRANCH   5   6
ATOM      6  C   UNL     1       5.011   4.355  18.307  0.00  0.00    +0.000 C 
BRANCH   6   7
ATOM      7  N   UNL     1       4.827   4.774  16.825  0.00  0.00    +0.000 NA
ATOM      8  H   UNL     1       4.663   3.914  16.280  0.00  0.00    +0.000 HD
BRANCH   7   9
ATOM      9  S   UNL     1       6.199   5.593  16.230  0.00  0.00    +0.000 S 
ATOM     10  O   UNL     1       7.131   5.673  17.332  0.00  0.00    +0.000 OA
ATOM     11  O   UNL     1       5.707   6.775  15.556  0.00  0.00    +0.000 OA
BRANCH   9  12
ATOM     12  C   UNL     1       6.892   4.526  14.954  0.00  0.00    +0.000 C 
BRANCH  12  13
ATOM     13  C   UNL     1       5.714   4.075  14.084  0.00  0.00    +0.000 C 
BRANCH  13  15
ATOM     14  C   UNL     1       4.858   3.228  11.900  0.00  0.00    +0.000 C 
ATOM     15  C   UNL     1       6.104   3.608  12.692  0.00  0.00    +0.000 C 
ENDBRANCH  13  15
ENDBRANCH  12  13
ENDBRANCH   9  12
ENDBRANCH   7   9
ENDBRANCH   6   7
BRANCH   6  16
ATOM     16  C   UNL     1       4.093   3.175  18.561  0.00  0.00    +0.000 C 
ATOM     17  O   UNL     1       3.844   2.307  17.700  0.00  0.00    +0.000 OA
BRANCH  16  18
ATOM     18  O   UNL     1       3.490   3.158  19.772  0.00  0.00    +0.000 OA
ATOM     19  H   UNL     1       3.534   4.032  20.210  0.00  0.00    +0.000 HD
ENDBRANCH  16  18
ENDBRANCH   6  16
ENDBRANCH   5   6
ENDBRANCH   1   5
BRANCH   2  20
ATOM     20  C   UNL     1       1.795   7.718  18.196  0.00  0.00    +0.000 C 
BRANCH  20  21
ATOM     21  C   UNL     1       1.890   8.992  19.036  0.00  0.00    +0.000 C 
ATOM     22  C   UNL     1       1.441  10.219  18.270  0.00  0.00    +0.000 C 
ATOM     23  C   UNL     1       0.464  10.790  19.223  0.00  0.00    +0.000 C 
ATOM     24  N   UNL     1       0.224  10.049  20.257  0.00  0.00    +0.000 NA
ATOM     25  O   UNL     1       1.015   8.881  20.166  0.00  0.00    +0.000 OA
BRANCH  23  26
ATOM     26  C   UNL     1      -0.254  12.099  18.954  0.00  0.00    +0.000 C 
BRANCH  26  27
ATOM     27  C   UNL     1      -1.321  11.817  17.850  0.00  0.00    +0.000 C 
BRANCH  27  28
ATOM     28  C   UNL     1      -2.257  10.583  17.866  0.00  0.00    +0.000 C 
ATOM     29  C   UNL     1      -2.156   9.858  16.528  0.00  0.00    +0.000 C 
ATOM     30  C   UNL     1      -2.859  10.665  15.423  0.00  0.00    +0.000 C 
ATOM     31  N   UNL     1      -4.297  10.720  15.675  0.00  0.00    +0.000 NA
ATOM     32  C   UNL     1      -4.574  11.418  16.934  0.00  0.00    +0.000 C 
ATOM     33  C   UNL     1      -3.775  10.865  18.124  0.00  0.00    +0.000 C 
ATOM     34  H   UNL     1      -4.655   9.767  15.731  0.00  0.00    +0.000 HD
ENDBRANCH  27  28
ENDBRANCH  26  27
ENDBRANCH  23  26
ENDBRANCH  20  21
ENDBRANCH   2  20
TORSDOF 14
ENDMDL
MODEL 4
REMARK VINA RESULT:      -6.9      3.331      5.868
REMARK  Name = 
REMARK  15 active torsions:
REMARK  status: ('A' for Active; 'I' for Inactive)
REMARK    1  A    between atoms: C_1  and  C_2
REMARK    2  A    between atoms: C_2  and  C_3
REMARK    3  A    between atoms: C_3  and  C_4
REMARK    4  A    between atoms: C_4  and  S_5
REMARK    5  A    between atoms: S_5  and  N_8
REMARK    6  A    between atoms: N_8  and  C_9
REMARK    7  A    between atoms: C_9  and  C_10
REMARK    8  A    between atoms: C_9  and  C_28
REMARK    9  A    between atoms: C_10  and  N_11
REMARK   10  A    between atoms: C_12  and  C_14
REMARK   11  A    between atoms: C_14  and  C_15
REMARK   12  A    between atoms: C_17  and  C_18
REMARK   13  A    between atoms: C_18  and  C_19
REMARK   14  A    between atoms: C_19  and  C_20
REMARK   15  A    between atoms: C_28  and  O_30
REMARK                            x       y       z     vdW  Elec       q    Type
REMARK                         _______ _______ _______ _____ _____    ______ ____
ROOT
ATOM      1  N   UNL     1       5.841   3.941  17.949  0.00  0.00    +0.000 N 
ATOM      2  C   UNL     1       5.169   4.253  19.110  0.00  0.00    +0.000 C 
ATOM      3  O   UNL     1       5.668   4.972  19.969  0.00  0.00    +0.000 OA
ATOM      4  H   UNL     1       5.602   3.071  17.489  0.00  0.00    +0.000 HD
ENDROOT
BRANCH   1   5
ATOM      5  C   UNL     1       7.179   4.475  17.702  0.00  0.00    +0.000 C 
BRANCH   5   6
ATOM      6  C   UNL     1       7.331   4.995  16.265  0.00  0.00    +0.000 C 
BRANCH   6   7
ATOM      7  N   UNL     1       7.684   6.504  16.201  0.00  0.00    +0.000 NA
ATOM      8  H   UNL     1       8.677   6.577  15.938  0.00  0.00    +0.000 HD
BRANCH   7   9
ATOM      9  S   UNL     1       7.416   7.274  17.699  0.00  0.00    +0.000 S 
ATOM     10  O   UNL     1       8.236   6.577  18.664  0.00  0.00    +0.000 OA
ATOM     11  O   UNL     1       5.981   7.382  17.850  0.00  0.00    +0.000 OA
BRANCH   9  12
ATOM     12  C   UNL     1       8.039   8.954  17.505  0.00  0.00    +0.000 C 
BRANCH  12  13
ATOM     13  C   UNL     1       8.873   9.250  18.757  0.00  0.00    +0.000 C 
BRANCH  13  15
ATOM     14  C   UNL     1      10.085  11.265  17.929  0.00  0.00    +0.000 C 
ATOM     15  C   UNL     1       9.141  10.725  18.997  0.00  0.00    +0.000 C 
ENDBRANCH  13  15
ENDBRANCH  12  13
ENDBRANCH   9  12
ENDBRANCH   7   9
ENDBRANCH   6   7
BRANCH   6  16
ATOM     16  C   UNL     1       6.024   4.804  15.520  0.00  0.00    +0.000 C 
ATOM     17  O   UNL     1       5.764   3.785  14.849  0.00  0.00    +0.000 OA
BRANCH  16  18
ATOM     18  O   UNL     1       5.171   5.853  15.564  0.00  0.00    +0.000 OA
ATOM     19  H   UNL     1       4.887   6.127  14.669  0.00  0.00    +0.000 HD
ENDBRANCH  16  18
ENDBRANCH   6  16
ENDBRANCH   5   6
ENDBRANCH   1   5
BRANCH   2  20
ATOM     20  C   UNL     1       3.780   3.663  19.217  0.00  0.00    +0.000 C 
BRANCH  20  21
ATOM     21  C   UNL     1       2.731   4.593  18.607  0.00  0.00    +0.000 C 
ATOM     22  C   UNL     1       2.280   5.665  19.579  0.00  0.00    +0.000 C 
ATOM     23  C   UNL     1       2.468   6.876  18.753  0.00  0.00    +0.000 C 
ATOM     24  N   UNL     1       3.039   6.666  17.610  0.00  0.00    +0.000 NA
ATOM     25  O   UNL     1       3.303   5.283  17.488  0.00  0.00    +0.000 OA
BRANCH  23  26
ATOM     26  C   UNL     1       2.095   8.259  19.253  0.00  0.00    +0.000 C 
BRANCH  26  27
ATOM     27  C   UNL     1       1.382   8.072  20.628  0.00  0.00    +0.000 C 
BRANCH  27  28
ATOM     28  C   UNL     1      -0.059   8.565  20.914  0.00  0.00    +0.000 C 
ATOM     29  C   UNL     1      -0.201  10.007  20.439  0.00  0.00    +0.000 C 
ATOM     30  C   UNL     1       0.558  10.961  21.377  0.00  0.00    +0.000 C 
ATOM     31  N   UNL     1      -0.065  10.973  22.698  0.00  0.00    +0.000 NA
ATOM     32  C   UNL     1       0.008   9.645  23.315  0.00  0.00    +0.000 C 
ATOM     33  C   UNL     1      -0.523   8.524  22.408  0.00  0.00    +0.000 C 
ATOM     34  H   UNL     1      -1.042  11.245  22.595  0.00  0.00    +0.000 HD
ENDBRANCH  27  28
ENDBRANCH  26  27
ENDBRANCH  23  26
ENDBRANCH  20  21
ENDBRANCH   2  20
TORSDOF 14
ENDMDL
MODEL 5
REMARK VINA RESULT:      -6.9      2.702      4.865
REMARK  Name = 
REMARK  15 active torsions:
REMARK  status: ('A' for Active; 'I' for Inactive)
REMARK    1  A    between atoms: C_1  and  C_2
REMARK    2  A    between atoms: C_2  and  C_3
REMARK    3  A    between atoms: C_3  and  C_4
REMARK    4  A    between atoms: C_4  and  S_5
REMARK    5  A    between atoms: S_5  and  N_8
REMARK    6  A    between atoms: N_8  and  C_9
REMARK    7  A    between atoms: C_9  and  C_10
REMARK    8  A    between atoms: C_9  and  C_28
REMARK    9  A    between atoms: C_10  and  N_11
REMARK   10  A    between atoms: C_12  and  C_14
REMARK   11  A    between atoms: C_14  and  C_15
REMARK   12  A    between atoms: C_17  and  C_18
REMARK   13  A    between atoms: C_18  and  C_19
REMARK   14  A    between atoms: C_19  and  C_20
REMARK   15  A    between atoms: C_28  and  O_30
REMARK                            x       y       z     vdW  Elec       q    Type
REMARK                         _______ _______ _______ _____ _____    ______ ____
ROOT
ATOM      1  N   UNL     1       4.621   4.324  18.084  0.00  0.00    +0.000 N 
ATOM      2  C   UNL     1       4.163   3.443  19.037  0.00  0.00    +0.000 C 
ATOM      3  O   UNL     1       4.859   3.104  19.988  0.00  0.00    +0.000 OA
ATOM      4  H   UNL     1       4.220   4.260  17.156  0.00  0.00    +0.000 HD
ENDROOT
BRANCH   1   5
ATOM      5  C   UNL     1       5.962   4.895  18.188  0.00  0.00    +0.000 C 
BRANCH   5   6
ATOM      6  C   UNL     1       6.050   6.275  17.521  0.00  0.00    +0.000 C 
BRANCH   6   7
ATOM      7  N   UNL     1       5.866   6.216  15.981  0.00  0.00    +0.000 NA
ATOM      8  H   UNL     1       4.865   6.056  15.797  0.00  0.00    +0.000 HD
BRANCH   7   9
ATOM      9  S   UNL     1       6.798   4.968  15.287  0.00  0.00    +0.000 S 
ATOM     10  O   UNL     1       7.201   4.110  16.378  0.00  0.00    +0.000 OA
ATOM     11  O   UNL     1       7.764   5.612  14.424  0.00  0.00    +0.000 OA
BRANCH   9  12
ATOM     12  C   UNL     1       5.674   4.058  14.211  0.00  0.00    +0.000 C 
BRANCH  12  13
ATOM     13  C   UNL     1       6.404   3.887  12.874  0.00  0.00    +0.000 C 
BRANCH  13  15
ATOM     14  C   UNL     1       4.408   3.267  11.514  0.00  0.00    +0.000 C 
ATOM     15  C   UNL     1       5.801   2.835  11.960  0.00  0.00    +0.000 C 
ENDBRANCH  13  15
ENDBRANCH  12  13
ENDBRANCH   9  12
ENDBRANCH   7   9
ENDBRANCH   6   7
BRANCH   6  16
ATOM     16  C   UNL     1       7.414   6.879  17.791  0.00  0.00    +0.000 C 
ATOM     17  O   UNL     1       8.082   6.624  18.813  0.00  0.00    +0.000 OA
BRANCH  16  18
ATOM     18  O   UNL     1       7.840   7.784  16.879  0.00  0.00    +0.000 OA
ATOM     19  H   UNL     1       8.189   8.592  17.307  0.00  0.00    +0.000 HD
ENDBRANCH  16  18
ENDBRANCH   6  16
ENDBRANCH   5   6
ENDBRANCH   1   5
BRANCH   2  20
ATOM     20  C   UNL     1       2.745   2.960  18.825  0.00  0.00    +0.000 C 
BRANCH  20  21
ATOM     21  C   UNL     1       1.754   4.124  18.828  0.00  0.00    +0.000 C 
ATOM     22  C   UNL     1       1.765   4.884  20.139  0.00  0.00    +0.000 C 
ATOM     23  C   UNL     1       1.942   6.267  19.648  0.00  0.00    +0.000 C 
ATOM     24  N   UNL     1       2.151   6.365  18.374  0.00  0.00    +0.000 NA
ATOM     25  O   UNL     1       2.127   5.067  17.815  0.00  0.00    +0.000 OA
BRANCH  23  26
ATOM     26  C   UNL     1       1.959   7.460  20.586  0.00  0.00    +0.000 C 
BRANCH  26  27
ATOM     27  C   UNL     1       1.506   8.702  19.756  0.00  0.00    +0.000 C 
BRANCH  27  28
ATOM     28  C   UNL     1       0.646   9.850  20.343  0.00  0.00    +0.000 C 
ATOM     29  C   UNL     1      -0.715   9.860  19.655  0.00  0.00    +0.000 C 
ATOM     30  C   UNL     1      -0.587  10.382  18.214  0.00  0.00    +0.000 C 
ATOM     31  N   UNL     1      -0.195  11.790  18.219  0.00  0.00    +0.000 NA
ATOM     32  C   UNL     1       1.125  11.956  18.836  0.00  0.00    +0.000 C 
ATOM     33  C   UNL     1       1.237  11.293  20.217  0.00  0.00    +0.000 C 
ATOM     34  H   UNL     1      -0.886  12.318  18.751  0.00  0.00    +0.000 HD
ENDBRANCH  27  28
ENDBRANCH  26  27
ENDBRANCH  23  26
ENDBRANCH  20  21
ENDBRANCH   2  20
TORSDOF 14
ENDMDL
MODEL 6
REMARK VINA RESULT:      -6.9      5.675      8.891
REMARK  Name = 
REMARK  15 active torsions:
REMARK  status: ('A' for Active; 'I' for Inactive)
REMARK    1  A    between atoms: C_1  and  C_2
REMARK    2  A    between atoms: C_2  and  C_3
REMARK    3  A    between atoms: C_3  and  C_4
REMARK    4  A    between atoms: C_4  and  S_5
REMARK    5  A    between atoms: S_5  and  N_8
REMARK    6  A    between atoms: N_8  and  C_9
REMARK    7  A    between atoms: C_9  and  C_10
REMARK    8  A    between atoms: C_9  and  C_28
REMARK    9  A    between atoms: C_10  and  N_11
REMARK   10  A    between atoms: C_12  and  C_14
REMARK   11  A    between atoms: C_14  and  C_15
REMARK   12  A    between atoms: C_17  and  C_18
REMARK   13  A    between atoms: C_18  and  C_19
REMARK   14  A    between atoms: C_19  and  C_20
REMARK   15  A    between atoms: C_28  and  O_30
REMARK                            x       y       z     vdW  Elec       q    Type
REMARK                         _______ _______ _______ _____ _____    ______ ____
ROOT
ATOM      1  N   UNL     1       8.451   8.752  18.661  0.00  0.00    +0.000 N 
ATOM      2  C   UNL     1       8.041   7.645  17.952  0.00  0.00    +0.000 C 
ATOM      3  O   UNL     1       7.782   7.707  16.755  0.00  0.00    +0.000 OA
ATOM      4  H   UNL     1       8.260   8.769  19.656  0.00  0.00    +0.000 HD
ENDROOT
BRANCH   1   5
ATOM      5  C   UNL     1       8.600  10.044  17.994  0.00  0.00    +0.000 C 
BRANCH   5   6
ATOM      6  C   UNL     1       9.595  10.955  18.727  0.00  0.00    +0.000 C 
BRANCH   6   7
ATOM      7  N   UNL     1       8.919  11.858  19.792  0.00  0.00    +0.000 NA
ATOM      8  H   UNL     1       8.282  12.496  19.293  0.00  0.00    +0.000 HD
BRANCH   7   9
ATOM      9  S   UNL     1      10.070  12.751  20.678  0.00  0.00    +0.000 S 
ATOM     10  O   UNL     1      10.247  13.998  19.969  0.00  0.00    +0.000 OA
ATOM     11  O   UNL     1      11.176  11.852  20.932  0.00  0.00    +0.000 OA
BRANCH   9  12
ATOM     12  C   UNL     1       9.305  13.088  22.275  0.00  0.00    +0.000 C 
BRANCH  12  13
ATOM     13  C   UNL     1       8.312  11.947  22.524  0.00  0.00    +0.000 C 
BRANCH  13  15
ATOM     14  C   UNL     1       6.610  11.605  24.314  0.00  0.00    +0.000 C 
ATOM     15  C   UNL     1       8.099  11.610  23.989  0.00  0.00    +0.000 C 
ENDBRANCH  13  15
ENDBRANCH  12  13
ENDBRANCH   9  12
ENDBRANCH   7   9
ENDBRANCH   6   7
BRANCH   6  16
ATOM     16  C   UNL     1      10.274  11.868  17.724  0.00  0.00    +0.000 C 
ATOM     17  O   UNL     1      11.484  11.783  17.436  0.00  0.00    +0.000 OA
BRANCH  16  18
ATOM     18  O   UNL     1       9.494  12.846  17.208  0.00  0.00    +0.000 OA
ATOM     19  H   UNL     1       8.826  13.154  17.853  0.00  0.00    +0.000 HD
ENDBRANCH  16  18
ENDBRANCH   6  16
ENDBRANCH   5   6
ENDBRANCH   1   5
BRANCH   2  20
ATOM     20  C   UNL     1       7.966   6.368  18.760  0.00  0.00    +0.000 C 
BRANCH  20  21
ATOM     21  C   UNL     1       6.516   5.940  18.991  0.00  0.00    +0.000 C 
ATOM     22  C   UNL     1       5.797   5.626  17.695  0.00  0.00    +0.000 C 
ATOM     23  C   UNL     1       5.252   4.287  18.005  0.00  0.00    +0.000 C 
ATOM     24  N   UNL     1       5.646   3.793  19.136  0.00  0.00    +0.000 NA
ATOM     25  O   UNL     1       6.496   4.732  19.763  0.00  0.00    +0.000 OA
BRANCH  23  26
ATOM     26  C   UNL     1       4.373   3.528  17.029  0.00  0.00    +0.000 C 
BRANCH  26  27
ATOM     27  C   UNL     1       3.299   2.772  17.873  0.00  0.00    +0.000 C 
BRANCH  27  28
ATOM     28  C   UNL     1       1.799   3.160  17.886  0.00  0.00    +0.000 C 
ATOM     29  C   UNL     1       1.671   4.663  18.111  0.00  0.00    +0.000 C 
ATOM     30  C   UNL     1       2.013   5.021  19.567  0.00  0.00    +0.000 C 
ATOM     31  N   UNL     1       1.020   4.452  20.475  0.00  0.00    +0.000 NA
ATOM     32  C   UNL     1       1.029   2.988  20.399  0.00  0.00    +0.000 C 
ATOM     33  C   UNL     1       0.909   2.454  18.963  0.00  0.00    +0.000 C 
ATOM     34  H   UNL     1       0.099   4.799  20.209  0.00  0.00    +0.000 HD
ENDBRANCH  27  28
ENDBRANCH  26  27
ENDBRANCH  23  26
ENDBRANCH  20  21
ENDBRANCH   2  20
TORSDOF 14
ENDMDL
MODEL 7
REMARK VINA RESULT:      -6.8      2.869      4.502
REMARK  Name = 
REMARK  15 active torsions:
REMARK  status: ('A' for Active; 'I' for Inactive)
REMARK    1  A    between atoms: C_1  and  C_2
REMARK    2  A    between atoms: C_2  and  C_3
REMARK    3  A    between atoms: C_3  and  C_4
REMARK    4  A    between atoms: C_4  and  S_5
REMARK    5  A    between atoms: S_5  and  N_8
REMARK    6  A    between atoms: N_8  and  C_9
REMARK    7  A    between atoms: C_9  and  C_10
REMARK    8  A    between atoms: C_9  and  C_28
REMARK    9  A    between atoms: C_10  and  N_11
REMARK   10  A    between atoms: C_12  and  C_14
REMARK   11  A    between atoms: C_14  and  C_15
REMARK   12  A    between atoms: C_17  and  C_18
REMARK   13  A    between atoms: C_18  and  C_19
REMARK   14  A    between atoms: C_19  and  C_20
REMARK   15  A    between atoms: C_28  and  O_30
REMARK                            x       y       z     vdW  Elec       q    Type
REMARK                         _______ _______ _______ _____ _____    ______ ____
ROOT
ATOM      1  N   UNL     1       4.093   5.092  19.140  0.00  0.00    +0.000 N 
ATOM      2  C   UNL     1       3.043   4.565  19.857  0.00  0.00    +0.000 C 
ATOM      3  O   UNL     1       3.096   3.441  20.346  0.00  0.00    +0.000 OA
ATOM      4  H   UNL     1       3.878   5.792  18.440  0.00  0.00    +0.000 HD
ENDROOT
BRANCH   1   5
ATOM      5  C   UNL     1       5.319   4.319  18.948  0.00  0.00    +0.000 C 
BRANCH   5   6
ATOM      6  C   UNL     1       6.145   4.842  17.764  0.00  0.00    +0.000 C 
BRANCH   6   7
ATOM      7  N   UNL     1       6.083   3.911  16.524  0.00  0.00    +0.000 NA
ATOM      8  H   UNL     1       6.858   3.237  16.607  0.00  0.00    +0.000 HD
BRANCH   7   9
ATOM      9  S   UNL     1       6.226   4.793  15.071  0.00  0.00    +0.000 S 
ATOM     10  O   UNL     1       7.612   4.693  14.672  0.00  0.00    +0.000 OA
ATOM     11  O   UNL     1       5.587   6.070  15.305  0.00  0.00    +0.000 OA
BRANCH   9  12
ATOM     12  C   UNL     1       5.206   3.922  13.868  0.00  0.00    +0.000 C 
BRANCH  12  13
ATOM     13  C   UNL     1       6.108   3.648  12.658  0.00  0.00    +0.000 C 
BRANCH  13  15
ATOM     14  C   UNL     1       6.323   1.547  11.334  0.00  0.00    +0.000 C 
ATOM     15  C   UNL     1       5.471   2.786  11.583  0.00  0.00    +0.000 C 
ENDBRANCH  13  15
ENDBRANCH  12  13
ENDBRANCH   9  12
ENDBRANCH   7   9
ENDBRANCH   6   7
BRANCH   6  16
ATOM     16  C   UNL     1       7.600   4.952  18.175  0.00  0.00    +0.000 C 
ATOM     17  O   UNL     1       8.047   5.896  18.856  0.00  0.00    +0.000 OA
BRANCH  16  18
ATOM     18  O   UNL     1       8.416   3.988  17.689  0.00  0.00    +0.000 OA
ATOM     19  H   UNL     1       7.929   3.353  17.125  0.00  0.00    +0.000 HD
ENDBRANCH  16  18
ENDBRANCH   6  16
ENDBRANCH   5   6
ENDBRANCH   1   5
BRANCH   2  20
ATOM     20  C   UNL     1       1.853   5.487  20.009  0.00  0.00    +0.000 C 
BRANCH  20  21
ATOM     21  C   UNL     1       2.292   6.946  20.140  0.00  0.00    +0.000 C 
ATOM     22  C   UNL     1       2.304   7.664  18.806  0.00  0.00    +0.000 C 
ATOM     23  C   UNL     1       1.499   8.860  19.135  0.00  0.00    +0.000 C 
ATOM     24  N   UNL     1       0.970   8.845  20.317  0.00  0.00    +0.000 NA
ATOM     25  O   UNL     1       1.356   7.650  20.966  0.00  0.00    +0.000 OA
BRANCH  23  26
ATOM     26  C   UNL     1       1.251   9.967  18.127  0.00  0.00    +0.000 C 
BRANCH  26  27
ATOM     27  C   UNL     1       0.237  10.959  18.779  0.00  0.00    +0.000 C 
BRANCH  27  28
ATOM     28  C   UNL     1       0.663  12.121  19.712  0.00  0.00    +0.000 C 
ATOM     29  C   UNL     1      -0.441  12.374  20.734  0.00  0.00    +0.000 C 
ATOM     30  C   UNL     1      -1.651  13.048  20.066  0.00  0.00    +0.000 C 
ATOM     31  N   UNL     1      -1.294  14.388  19.608  0.00  0.00    +0.000 NA
ATOM     32  C   UNL     1      -0.245  14.322  18.587  0.00  0.00    +0.000 C 
ATOM     33  C   UNL     1       0.972  13.490  19.019  0.00  0.00    +0.000 C 
ATOM     34  H   UNL     1      -0.957  14.926  20.406  0.00  0.00    +0.000 HD
ENDBRANCH  27  28
ENDBRANCH  26  27
ENDBRANCH  23  26
ENDBRANCH  20  21
ENDBRANCH   2  20
TORSDOF 14
ENDMDL
MODEL 8
REMARK VINA RESULT:      -6.8      5.854      9.027
REMARK  Name = 
REMARK  15 active torsions:
REMARK  status: ('A' for Active; 'I' for Inactive)
REMARK    1  A    between atoms: C_1  and  C_2
REMARK    2  A    between atoms: C_2  and  C_3
REMARK    3  A    between atoms: C_3  and  C_4
REMARK    4  A    between atoms: C_4  and  S_5
REMARK    5  A    between atoms: S_5  and  N_8
REMARK    6  A    between atoms: N_8  and  C_9
REMARK    7  A    between atoms: C_9  and  C_10
REMARK    8  A    between atoms: C_9  and  C_28
REMARK    9  A    between atoms: C_10  and  N_11
REMARK   10  A    between atoms: C_12  and  C_14
REMARK   11  A    between atoms: C_14  and  C_15
REMARK   12  A    between atoms: C_17  and  C_18
REMARK   13  A    between atoms: C_18  and  C_19
REMARK   14  A    between atoms: C_19  and  C_20
REMARK   15  A    between atoms: C_28  and  O_30
REMARK                            x       y       z     vdW  Elec       q    Type
REMARK                         _______ _______ _______ _____ _____    ______ ____
ROOT
ATOM      1  N   UNL     1       8.819   8.880  18.876  0.00  0.00    +0.000 N 
ATOM      2  C   UNL     1       8.100   8.006  18.092  0.00  0.00    +0.000 C 
ATOM      3  O   UNL     1       7.594   8.359  17.032  0.00  0.00    +0.000 OA
ATOM      4  H   UNL     1       8.858   8.693  19.871  0.00  0.00    +0.000 HD
ENDROOT
BRANCH   1   5
ATOM      5  C   UNL     1       9.010  10.266  18.455  0.00  0.00    +0.000 C 
BRANCH   5   6
ATOM      6  C   UNL     1       9.702  11.103  19.540  0.00  0.00    +0.000 C 
BRANCH   6   7
ATOM      7  N   UNL     1       8.939  12.412  19.875  0.00  0.00    +0.000 NA
ATOM      8  H   UNL     1       9.253  13.130  19.206  0.00  0.00    +0.000 HD
BRANCH   7   9
ATOM      9  S   UNL     1       9.244  12.923  21.473  0.00  0.00    +0.000 S 
ATOM     10  O   UNL     1      10.111  14.075  21.370  0.00  0.00    +0.000 OA
ATOM     11  O   UNL     1       9.627  11.740  22.213  0.00  0.00    +0.000 OA
BRANCH   9  12
ATOM     12  C   UNL     1       7.650  13.447  22.132  0.00  0.00    +0.000 C 
BRANCH  12  13
ATOM     13  C   UNL     1       7.163  12.309  23.035  0.00  0.00    +0.000 C 
BRANCH  13  15
ATOM     14  C   UNL     1       8.179  12.456  25.308  0.00  0.00    +0.000 C 
ATOM     15  C   UNL     1       6.925  12.713  24.479  0.00  0.00    +0.000 C 
ENDBRANCH  13  15
ENDBRANCH  12  13
ENDBRANCH   9  12
ENDBRANCH   7   9
ENDBRANCH   6   7
BRANCH   6  16
ATOM     16  C   UNL     1      11.088  11.497  19.065  0.00  0.00    +0.000 C 
ATOM     17  O   UNL     1      11.422  11.494  17.863  0.00  0.00    +0.000 OA
BRANCH  16  18
ATOM     18  O   UNL     1      11.978  11.783  20.043  0.00  0.00    +0.000 OA
ATOM     19  H   UNL     1      12.111  11.023  20.645  0.00  0.00    +0.000 HD
ENDBRANCH  16  18
ENDBRANCH   6  16
ENDBRANCH   5   6
ENDBRANCH   1   5
BRANCH   2  20
ATOM     20  C   UNL     1       8.014   6.595  18.630  0.00  0.00    +0.000 C 
BRANCH  20  21
ATOM     21  C   UNL     1       6.560   6.164  18.833  0.00  0.00    +0.000 C 
ATOM     22  C   UNL     1       5.910   5.715  17.540  0.00  0.00    +0.000 C 
ATOM     23  C   UNL     1       5.370   4.401  17.952  0.00  0.00    +0.000 C 
ATOM     24  N   UNL     1       5.715   4.025  19.142  0.00  0.00    +0.000 NA
ATOM     25  O   UNL     1       6.519   5.035  19.716  0.00  0.00    +0.000 OA
BRANCH  23  26
ATOM     26  C   UNL     1       4.550   3.536  17.013  0.00  0.00    +0.000 C 
BRANCH  26  27
ATOM     27  C   UNL     1       3.539   2.737  17.892  0.00  0.00    +0.000 C 
BRANCH  27  28
ATOM     28  C   UNL     1       2.007   2.971  17.855  0.00  0.00    +0.000 C 
ATOM     29  C   UNL     1       1.724   4.464  17.988  0.00  0.00    +0.000 C 
ATOM     30  C   UNL     1       1.993   4.938  19.426  0.00  0.00    +0.000 C 
ATOM     31  N   UNL     1       1.040   4.324  20.348  0.00  0.00    +0.000 NA
ATOM     32  C   UNL     1       1.198   2.867  20.359  0.00  0.00    +0.000 C 
ATOM     33  C   UNL     1       1.167   2.242  18.955  0.00  0.00    +0.000 C 
ATOM     34  H   UNL     1       0.096   4.560  20.045  0.00  0.00    +0.000 HD
ENDBRANCH  27  28
ENDBRANCH  26  27
ENDBRANCH  23  26
ENDBRANCH  20  21
ENDBRANCH   2  20
TORSDOF 14
ENDMDL
MODEL 9
REMARK VINA RESULT:      -6.8      3.697      9.267
REMARK  Name = 
REMARK  15 active torsions:
REMARK  status: ('A' for Active; 'I' for Inactive)
REMARK    1  A    between atoms: C_1  and  C_2
REMARK    2  A    between atoms: C_2  and  C_3
REMARK    3  A    between atoms: C_3  and  C_4
REMARK    4  A    between atoms: C_4  and  S_5
REMARK    5  A    between atoms: S_5  and  N_8
REMARK    6  A    between atoms: N_8  and  C_9
REMARK    7  A    between atoms: C_9  and  C_10
REMARK    8  A    between atoms: C_9  and  C_28
REMARK    9  A    between atoms: C_10  and  N_11
REMARK   10  A    between atoms: C_12  and  C_14
REMARK   11  A    between atoms: C_14  and  C_15
REMARK   12  A    between atoms: C_17  and  C_18
REMARK   13  A    between atoms: C_18  and  C_19
REMARK   14  A    between atoms: C_19  and  C_20
REMARK   15  A    between atoms: C_28  and  O_30
REMARK                            x       y       z     vdW  Elec       q    Type
REMARK                         _______ _______ _______ _____ _____    ______ ____
ROOT
ATOM      1  N   UNL     1      -0.021   9.755  17.725  0.00  0.00    +0.000 N 
ATOM      2  C   UNL     1       1.074   9.394  18.477  0.00  0.00    +0.000 C 
ATOM      3  O   UNL     1       1.055   9.435  19.703  0.00  0.00    +0.000 OA
ATOM      4  H   UNL     1       0.148  10.097  16.786  0.00  0.00    +0.000 HD
ENDROOT
BRANCH   1   5
ATOM      5  C   UNL     1      -1.254  10.192  18.377  0.00  0.00    +0.000 C 
BRANCH   5   6
ATOM      6  C   UNL     1      -1.672  11.599  17.927  0.00  0.00    +0.000 C 
BRANCH   6   7
ATOM      7  N   UNL     1      -1.979  12.549  19.114  0.00  0.00    +0.000 NA
ATOM      8  H   UNL     1      -2.710  13.204  18.803  0.00  0.00    +0.000 HD
BRANCH   7   9
ATOM      9  S   UNL     1      -0.589  13.408  19.604  0.00  0.00    +0.000 S 
ATOM     10  O   UNL     1      -0.937  14.810  19.538  0.00  0.00    +0.000 OA
ATOM     11  O   UNL     1       0.517  12.858  18.850  0.00  0.00    +0.000 OA
BRANCH   9  12
ATOM     12  C   UNL     1      -0.314  12.954  21.326  0.00  0.00    +0.000 C 
BRANCH  12  13
ATOM     13  C   UNL     1      -1.186  11.721  21.590  0.00  0.00    +0.000 C 
BRANCH  13  15
ATOM     14  C   UNL     1      -0.545   9.772  23.006  0.00  0.00    +0.000 C 
ATOM     15  C   UNL     1      -1.106  11.189  23.010  0.00  0.00    +0.000 C 
ENDBRANCH  13  15
ENDBRANCH  12  13
ENDBRANCH   9  12
ENDBRANCH   7   9
ENDBRANCH   6   7
BRANCH   6  16
ATOM     16  C   UNL     1      -2.931  11.506  17.086  0.00  0.00    +0.000 C 
ATOM     17  O   UNL     1      -2.943  11.048  15.926  0.00  0.00    +0.000 OA
BRANCH  16  18
ATOM     18  O   UNL     1      -4.045  12.026  17.649  0.00  0.00    +0.000 OA
ATOM     19  H   UNL     1      -4.594  12.502  16.993  0.00  0.00    +0.000 HD
ENDBRANCH  16  18
ENDBRANCH   6  16
ENDBRANCH   5   6
ENDBRANCH   1   5
BRANCH   2  20
ATOM     20  C   UNL     1       2.269   8.929  17.675  0.00  0.00    +0.000 C 
BRANCH  20  21
ATOM     21  C   UNL     1       2.965   7.745  18.348  0.00  0.00    +0.000 C 
ATOM     22  C   UNL     1       2.229   6.441  18.120  0.00  0.00    +0.000 C 
ATOM     23  C   UNL     1       3.331   5.592  17.619  0.00  0.00    +0.000 C 
ATOM     24  N   UNL     1       4.447   6.219  17.420  0.00  0.00    +0.000 NA
ATOM     25  O   UNL     1       4.269   7.575  17.777  0.00  0.00    +0.000 OA
BRANCH  23  26
ATOM     26  C   UNL     1       3.133   4.125  17.287  0.00  0.00    +0.000 C 
BRANCH  26  27
ATOM     27  C   UNL     1       1.697   3.739  17.760  0.00  0.00    +0.000 C 
BRANCH  27  28
ATOM     28  C   UNL     1       1.410   2.584  18.753  0.00  0.00    +0.000 C 
ATOM     29  C   UNL     1       0.630   3.130  19.946  0.00  0.00    +0.000 C 
ATOM     30  C   UNL     1       1.544   3.981  20.843  0.00  0.00    +0.000 C 
ATOM     31  N   UNL     1       2.571   3.144  21.458  0.00  0.00    +0.000 NA
ATOM     32  C   UNL     1       3.437   2.552  20.434  0.00  0.00    +0.000 C 
ATOM     33  C   UNL     1       2.658   1.832  19.323  0.00  0.00    +0.000 C 
ATOM     34  H   UNL     1       2.113   2.401  21.985  0.00  0.00    +0.000 HD
ENDBRANCH  27  28
ENDBRANCH  26  27
ENDBRANCH  23  26
ENDBRANCH  20  21
ENDBRANCH   2  20
TORSDOF 14
ENDMDL
