MODEL 1
REMARK VINA RESULT:      -7.7      0.000      0.000
REMARK  Name = 
REMARK  6 active torsions:
REMARK  status: ('A' for Active; 'I' for Inactive)
REMARK    1  A    between atoms: C_2  and  N_3
REMARK    2  A    between atoms: C_2  and  N_17
REMARK    3  A    between atoms: N_3  and  C_4
REMARK    4  A    between atoms: C_7  and  O_8
REMARK    5  A    between atoms: O_8  and  C_9
REMARK    6  A    between atoms: N_17  and  C_18
REMARK                            x       y       z     vdW  Elec       q    Type
REMARK                         _______ _______ _______ _____ _____    ______ ____
ROOT
ATOM      1  C   UNL     1       4.908   5.685  18.734  0.00  0.00    +0.000 A 
ATOM      2  C   UNL     1       4.527   6.204  17.488  0.00  0.00    +0.000 A 
ATOM      3  C   UNL     1       5.406   6.180  16.406  0.00  0.00    +0.000 A 
ATOM      4  C   UNL     1       6.680   5.645  16.562  0.00  0.00    +0.000 A 
ATOM      5  C   UNL     1       7.054   5.096  17.795  0.00  0.00    +0.000 A 
ATOM      6  C   UNL     1       6.188   5.159  18.890  0.00  0.00    +0.000 A 
ENDROOT
BRANCH   1   7
ATOM      7  N   UNL     1       4.036   5.699  19.847  0.00  0.00    +0.000 N 
ATOM      8  H   UNL     1       4.460   5.719  20.768  0.00  0.00    +0.000 HD
BRANCH   7  10
ATOM      9  S   UNL     1       2.038   7.392  19.485  0.00  0.00    +0.000 S 
ATOM     10  C   UNL     1       2.672   5.889  19.801  0.00  0.00    +0.000 C 
BRANCH  10  11
ATOM     11  N   UNL     1       1.960   4.761  20.100  0.00  0.00    +0.000 N 
ATOM     12  H   UNL     1       1.421   4.835  20.953  0.00  0.00    +0.000 HD
BRANCH  11  13
ATOM     13  C   UNL     1       1.930   3.475  19.433  0.00  0.00    +0.000 C 
ATOM     14  C   UNL     1       2.001   3.697  17.922  0.00  0.00    +0.000 C 
ATOM     15  C   UNL     1       2.421   2.352  17.361  0.00  0.00    +0.000 C 
ATOM     16  C   UNL     1       3.217   1.673  18.473  0.00  0.00    +0.000 C 
ATOM     17  C   UNL     1       3.136   2.587  19.698  0.00  0.00    +0.000 C 
ENDBRANCH  11  13
ENDBRANCH  10  11
ENDBRANCH   7  10
ENDBRANCH   1   7
BRANCH   4  18
ATOM     18  O   UNL     1       7.475   5.658  15.440  0.00  0.00    +0.000 OA
BRANCH  18  19
ATOM     19  C   UNL     1       7.088   4.950  14.324  0.00  0.00    +0.000 A 
ATOM     20  C   UNL     1       7.765   5.256  13.143  0.00  0.00    +0.000 A 
ATOM     21  C   UNL     1       7.426   4.608  11.955  0.00  0.00    +0.000 A 
ATOM     22  C   UNL     1       6.409   3.653  11.948  0.00  0.00    +0.000 A 
ATOM     23  C   UNL     1       5.761   3.315  13.134  0.00  0.00    +0.000 A 
ATOM     24  C   UNL     1       6.122   3.939  14.327  0.00  0.00    +0.000 A 
ENDBRANCH  18  19
ENDBRANCH   4  18
TORSDOF 6
ENDMDL
MODEL 2
REMARK VINA RESULT:      -7.6      5.386      7.752
REMARK  Name = 
REMARK  6 active torsions:
REMARK  status: ('A' for Active; 'I' for Inactive)
REMARK    1  A    between atoms: C_2  and  N_3
REMARK    2  A    between atoms: C_2  and  N_17
REMARK    3  A    between atoms: N_3  and  C_4
REMARK    4  A    between atoms: C_7  and  O_8
REMARK    5  A    between atoms: O_8  and  C_9
REMARK    6  A    between atoms: N_17  and  C_18
REMARK                            x       y       z     vdW  Elec       q    Type
REMARK                         _______ _______ _______ _____ _____    ______ ____
ROOT
ATOM      1  C   UNL     1       1.090   9.747  18.708  0.00  0.00    +0.000 A 
ATOM      2  C   UNL     1       1.774   8.974  17.759  0.00  0.00    +0.000 A 
ATOM      3  C   UNL     1       2.387   7.776  18.120  0.00  0.00    +0.000 A 
ATOM      4  C   UNL     1       2.330   7.341  19.441  0.00  0.00    +0.000 A 
ATOM      5  C   UNL     1       1.620   8.092  20.387  0.00  0.00    +0.000 A 
ATOM      6  C   UNL     1       1.043   9.315  20.031  0.00  0.00    +0.000 A 
ENDROOT
BRANCH   1   7
ATOM      7  N   UNL     1       0.463  10.967  18.367  0.00  0.00    +0.000 N 
ATOM      8  H   UNL     1       0.888  11.516  17.627  0.00  0.00    +0.000 HD
BRANCH   7  10
ATOM      9  S   UNL     1      -0.984  12.921  19.403  0.00  0.00    +0.000 S 
ATOM     10  C   UNL     1      -0.776  11.387  18.800  0.00  0.00    +0.000 C 
BRANCH  10  11
ATOM     11  N   UNL     1      -1.730  10.411  18.733  0.00  0.00    +0.000 N 
ATOM     12  H   UNL     1      -1.639   9.705  19.452  0.00  0.00    +0.000 HD
BRANCH  11  13
ATOM     13  C   UNL     1      -2.780  10.200  17.757  0.00  0.00    +0.000 C 
ATOM     14  C   UNL     1      -3.765  11.366  17.827  0.00  0.00    +0.000 C 
ATOM     15  C   UNL     1      -4.524  11.301  16.515  0.00  0.00    +0.000 C 
ATOM     16  C   UNL     1      -3.569  10.646  15.520  0.00  0.00    +0.000 C 
ATOM     17  C   UNL     1      -2.322  10.234  16.306  0.00  0.00    +0.000 C 
ENDBRANCH  11  13
ENDBRANCH  10  11
ENDBRANCH   7  10
ENDBRANCH   1   7
BRANCH   4  18
ATOM     18  O   UNL     1       2.956   6.145  19.704  0.00  0.00    +0.000 OA
BRANCH  18  19
ATOM     19  C   UNL     1       2.319   4.963  19.398  0.00  0.00    +0.000 A 
ATOM     20  C   UNL     1       1.464   4.460  20.380  0.00  0.00    +0.000 A 
ATOM     21  C   UNL     1       0.793   3.254  20.171  0.00  0.00    +0.000 A 
ATOM     22  C   UNL     1       0.977   2.552  18.980  0.00  0.00    +0.000 A 
ATOM     23  C   UNL     1       1.795   3.075  17.981  0.00  0.00    +0.000 A 
ATOM     24  C   UNL     1       2.440   4.295  18.176  0.00  0.00    +0.000 A 
ENDBRANCH  18  19
ENDBRANCH   4  18
TORSDOF 6
ENDMDL
MODEL 3
REMARK VINA RESULT:      -7.6      5.377      7.734
REMARK  Name = 
REMARK  6 active torsions:
REMARK  status: ('A' for Active; 'I' for Inactive)
REMARK    1  A    between atoms: C_2  and  N_3
REMARK    2  A    between atoms: C_2  and  N_17
REMARK    3  A    between atoms: N_3  and  C_4
REMARK    4  A    between atoms: C_7  and  O_8
REMARK    5  A    between atoms: O_8  and  C_9
REMARK    6  A    between atoms: N_17  and  C_18
REMARK                            x       y       z     vdW  Elec       q    Type
REMARK                         _______ _______ _______ _____ _____    ______ ____
ROOT
ATOM      1  C   UNL     1       1.327   9.673  18.757  0.00  0.00    +0.000 A 
ATOM      2  C   UNL     1       1.173   9.117  20.036  0.00  0.00    +0.000 A 
ATOM      3  C   UNL     1       1.721   7.874  20.346  0.00  0.00    +0.000 A 
ATOM      4  C   UNL     1       2.424   7.167  19.375  0.00  0.00    +0.000 A 
ATOM      5  C   UNL     1       2.610   7.732  18.107  0.00  0.00    +0.000 A 
ATOM      6  C   UNL     1       2.023   8.959  17.785  0.00  0.00    +0.000 A 
ENDROOT
BRANCH   1   7
ATOM      7  N   UNL     1       0.779  10.931  18.418  0.00  0.00    +0.000 N 
ATOM      8  H   UNL     1       1.164  11.401  17.606  0.00  0.00    +0.000 HD
BRANCH   7  10
ATOM      9  S   UNL     1      -0.246  12.678  20.116  0.00  0.00    +0.000 S 
ATOM     10  C   UNL     1      -0.358  11.489  18.961  0.00  0.00    +0.000 C 
BRANCH  10  11
ATOM     11  N   UNL     1      -1.512  10.919  18.500  0.00  0.00    +0.000 N 
ATOM     12  H   UNL     1      -1.777  10.080  18.999  0.00  0.00    +0.000 HD
BRANCH  11  13
ATOM     13  C   UNL     1      -2.347  11.287  17.375  0.00  0.00    +0.000 C 
ATOM     14  C   UNL     1      -2.372  10.130  16.376  0.00  0.00    +0.000 C 
ATOM     15  C   UNL     1      -3.586  10.405  15.509  0.00  0.00    +0.000 C 
ATOM     16  C   UNL     1      -4.548  11.200  16.388  0.00  0.00    +0.000 C 
ATOM     17  C   UNL     1      -3.820  11.476  17.706  0.00  0.00    +0.000 C 
ENDBRANCH  11  13
ENDBRANCH  10  11
ENDBRANCH   7  10
ENDBRANCH   1   7
BRANCH   4  18
ATOM     18  O   UNL     1       2.935   5.954  19.772  0.00  0.00    +0.000 OA
BRANCH  18  19
ATOM     19  C   UNL     1       2.310   4.792  19.382  0.00  0.00    +0.000 A 
ATOM     20  C   UNL     1       1.328   4.308  20.247  0.00  0.00    +0.000 A 
ATOM     21  C   UNL     1       0.656   3.122  19.949  0.00  0.00    +0.000 A 
ATOM     22  C   UNL     1       0.964   2.421  18.783  0.00  0.00    +0.000 A 
ATOM     23  C   UNL     1       1.912   2.925  17.896  0.00  0.00    +0.000 A 
ATOM     24  C   UNL     1       2.561   4.126  18.178  0.00  0.00    +0.000 A 
ENDBRANCH  18  19
ENDBRANCH   4  18
TORSDOF 6
ENDMDL
MODEL 4
REMARK VINA RESULT:      -7.6      5.377      7.785
REMARK  Name = 
REMARK  6 active torsions:
REMARK  status: ('A' for Active; 'I' for Inactive)
REMARK    1  A    between atoms: C_2  and  N_3
REMARK    2  A    between atoms: C_2  and  N_17
REMARK    3  A    between atoms: N_3  and  C_4
REMARK    4  A    between atoms: C_7  and  O_8
REMARK    5  A    between atoms: O_8  and  C_9
REMARK    6  A    between atoms: N_17  and  C_18
REMARK                            x       y       z     vdW  Elec       q    Type
REMARK                         _______ _______ _______ _____ _____    ______ ____
ROOT
ATOM      1  C   UNL     1       0.705  10.066  19.855  0.00  0.00    +0.000 A 
ATOM      2  C   UNL     1       1.304   9.733  18.631  0.00  0.00    +0.000 A 
ATOM      3  C   UNL     1       2.010   8.540  18.484  0.00  0.00    +0.000 A 
ATOM      4  C   UNL     1       2.133   7.671  19.563  0.00  0.00    +0.000 A 
ATOM      5  C   UNL     1       1.509   7.983  20.778  0.00  0.00    +0.000 A 
ATOM      6  C   UNL     1       0.838   9.199  20.936  0.00  0.00    +0.000 A 
ENDROOT
BRANCH   1   7
ATOM      7  N   UNL     1      -0.014  11.271  20.030  0.00  0.00    +0.000 N 
ATOM      8  H   UNL     1       0.248  11.857  20.816  0.00  0.00    +0.000 HD
BRANCH   7  10
ATOM      9  S   UNL     1      -0.478  13.168  18.250  0.00  0.00    +0.000 S 
ATOM     10  C   UNL     1      -0.898  11.822  19.129  0.00  0.00    +0.000 C 
BRANCH  10  11
ATOM     11  N   UNL     1      -2.111  11.192  19.108  0.00  0.00    +0.000 N 
ATOM     12  H   UNL     1      -2.576  11.179  20.007  0.00  0.00    +0.000 HD
BRANCH  11  13
ATOM     13  C   UNL     1      -2.776  10.485  18.032  0.00  0.00    +0.000 C 
ATOM     14  C   UNL     1      -3.662  11.467  17.267  0.00  0.00    +0.000 C 
ATOM     15  C   UNL     1      -3.932  10.780  15.942  0.00  0.00    +0.000 C 
ATOM     16  C   UNL     1      -2.732   9.869  15.699  0.00  0.00    +0.000 C 
ATOM     17  C   UNL     1      -1.850   9.954  16.948  0.00  0.00    +0.000 C 
ENDBRANCH  11  13
ENDBRANCH  10  11
ENDBRANCH   7  10
ENDBRANCH   1   7
BRANCH   4  18
ATOM     18  O   UNL     1       2.840   6.516  19.323  0.00  0.00    +0.000 OA
BRANCH  18  19
ATOM     19  C   UNL     1       2.203   5.299  19.410  0.00  0.00    +0.000 A 
ATOM     20  C   UNL     1       1.955   4.653  18.198  0.00  0.00    +0.000 A 
ATOM     21  C   UNL     1       1.292   3.425  18.183  0.00  0.00    +0.000 A 
ATOM     22  C   UNL     1       0.878   2.842  19.380  0.00  0.00    +0.000 A 
ATOM     23  C   UNL     1       1.164   3.464  20.594  0.00  0.00    +0.000 A 
ATOM     24  C   UNL     1       1.854   4.675  20.611  0.00  0.00    +0.000 A 
ENDBRANCH  18  19
ENDBRANCH   4  18
TORSDOF 6
ENDMDL
MODEL 5
REMARK VINA RESULT:      -7.5      4.728      7.798
REMARK  Name = 
REMARK  6 active torsions:
REMARK  status: ('A' for Active; 'I' for Inactive)
REMARK    1  A    between atoms: C_2  and  N_3
REMARK    2  A    between atoms: C_2  and  N_17
REMARK    3  A    between atoms: N_3  and  C_4
REMARK    4  A    between atoms: C_7  and  O_8
REMARK    5  A    between atoms: O_8  and  C_9
REMARK    6  A    between atoms: N_17  and  C_18
REMARK                            x       y       z     vdW  Elec       q    Type
REMARK                         _______ _______ _______ _____ _____    ______ ____
ROOT
ATOM      1  C   UNL     1       2.252   7.278  19.775  0.00  0.00    +0.000 A 
ATOM      2  C   UNL     1       1.483   8.076  20.634  0.00  0.00    +0.000 A 
ATOM      3  C   UNL     1       0.868   9.237  20.169  0.00  0.00    +0.000 A 
ATOM      4  C   UNL     1       1.023   9.617  18.840  0.00  0.00    +0.000 A 
ATOM      5  C   UNL     1       1.762   8.806  17.970  0.00  0.00    +0.000 A 
ATOM      6  C   UNL     1       2.413   7.665  18.448  0.00  0.00    +0.000 A 
ENDROOT
BRANCH   1   7
ATOM      7  N   UNL     1       2.888   6.097  20.223  0.00  0.00    +0.000 N 
ATOM      8  H   UNL     1       3.189   6.071  21.191  0.00  0.00    +0.000 HD
BRANCH   7  10
ATOM      9  S   UNL     1       1.583   4.039  19.200  0.00  0.00    +0.000 S 
ATOM     10  C   UNL     1       2.960   4.907  19.532  0.00  0.00    +0.000 C 
BRANCH  10  11
ATOM     11  N   UNL     1       4.241   4.531  19.238  0.00  0.00    +0.000 N 
ATOM     12  H   UNL     1       4.532   3.683  19.707  0.00  0.00    +0.000 HD
BRANCH  11  13
ATOM     13  C   UNL     1       5.246   5.198  18.436  0.00  0.00    +0.000 C 
ATOM     14  C   UNL     1       6.488   5.437  19.294  0.00  0.00    +0.000 C 
ATOM     15  C   UNL     1       7.597   5.694  18.293  0.00  0.00    +0.000 C 
ATOM     16  C   UNL     1       7.189   4.946  17.025  0.00  0.00    +0.000 C 
ATOM     17  C   UNL     1       5.792   4.374  17.279  0.00  0.00    +0.000 C 
ENDBRANCH  11  13
ENDBRANCH  10  11
ENDBRANCH   7  10
ENDBRANCH   1   7
BRANCH   4  18
ATOM     18  O   UNL     1       0.374  10.772  18.469  0.00  0.00    +0.000 OA
BRANCH  18  19
ATOM     19  C   UNL     1      -0.979  10.741  18.216  0.00  0.00    +0.000 A 
ATOM     20  C   UNL     1      -1.749  11.677  18.907  0.00  0.00    +0.000 A 
ATOM     21  C   UNL     1      -3.134  11.706  18.735  0.00  0.00    +0.000 A 
ATOM     22  C   UNL     1      -3.748  10.799  17.872  0.00  0.00    +0.000 A 
ATOM     23  C   UNL     1      -2.976   9.893  17.148  0.00  0.00    +0.000 A 
ATOM     24  C   UNL     1      -1.590   9.885  17.295  0.00  0.00    +0.000 A 
ENDBRANCH  18  19
ENDBRANCH   4  18
TORSDOF 6
ENDMDL
MODEL 6
REMARK VINA RESULT:      -7.4      0.801      1.125
REMARK  Name = 
REMARK  6 active torsions:
REMARK  status: ('A' for Active; 'I' for Inactive)
REMARK    1  A    between atoms: C_2  and  N_3
REMARK    2  A    between atoms: C_2  and  N_17
REMARK    3  A    between atoms: N_3  and  C_4
REMARK    4  A    between atoms: C_7  and  O_8
REMARK    5  A    between atoms: O_8  and  C_9
REMARK    6  A    between atoms: N_17  and  C_18
REMARK                            x       y       z     vdW  Elec       q    Type
REMARK                         _______ _______ _______ _____ _____    ______ ____
ROOT
ATOM      1  C   UNL     1       4.726   5.913  18.613  0.00  0.00    +0.000 A 
ATOM      2  C   UNL     1       4.594   6.654  17.430  0.00  0.00    +0.000 A 
ATOM      3  C   UNL     1       5.531   6.535  16.405  0.00  0.00    +0.000 A 
ATOM      4  C   UNL     1       6.617   5.679  16.556  0.00  0.00    +0.000 A 
ATOM      5  C   UNL     1       6.736   4.911  17.722  0.00  0.00    +0.000 A 
ATOM      6  C   UNL     1       5.819   5.064  18.766  0.00  0.00    +0.000 A 
ENDROOT
BRANCH   1   7
ATOM      7  N   UNL     1       3.791   6.017  19.668  0.00  0.00    +0.000 N 
ATOM      8  H   UNL     1       4.156   6.000  20.614  0.00  0.00    +0.000 HD
BRANCH   7  10
ATOM      9  S   UNL     1       1.855   7.730  20.217  0.00  0.00    +0.000 S 
ATOM     10  C   UNL     1       2.458   6.340  19.536  0.00  0.00    +0.000 C 
BRANCH  10  11
ATOM     11  N   UNL     1       1.736   5.388  18.872  0.00  0.00    +0.000 N 
ATOM     12  H   UNL     1       1.458   5.667  17.940  0.00  0.00    +0.000 HD
BRANCH  11  13
ATOM     13  C   UNL     1       1.252   4.100  19.327  0.00  0.00    +0.000 C 
ATOM     14  C   UNL     1       2.154   3.003  18.761  0.00  0.00    +0.000 C 
ATOM     15  C   UNL     1       1.870   1.794  19.631  0.00  0.00    +0.000 C 
ATOM     16  C   UNL     1       1.429   2.352  20.982  0.00  0.00    +0.000 C 
ATOM     17  C   UNL     1       1.349   3.873  20.828  0.00  0.00    +0.000 C 
ENDBRANCH  11  13
ENDBRANCH  10  11
ENDBRANCH   7  10
ENDBRANCH   1   7
BRANCH   4  18
ATOM     18  O   UNL     1       7.485   5.620  15.491  0.00  0.00    +0.000 OA
BRANCH  18  19
ATOM     19  C   UNL     1       7.117   4.944  14.350  0.00  0.00    +0.000 A 
ATOM     20  C   UNL     1       7.822   5.274  13.192  0.00  0.00    +0.000 A 
ATOM     21  C   UNL     1       7.503   4.658  11.980  0.00  0.00    +0.000 A 
ATOM     22  C   UNL     1       6.480   3.712  11.927  0.00  0.00    +0.000 A 
ATOM     23  C   UNL     1       5.805   3.349  13.091  0.00  0.00    +0.000 A 
ATOM     24  C   UNL     1       6.144   3.941  14.307  0.00  0.00    +0.000 A 
ENDBRANCH  18  19
ENDBRANCH   4  18
TORSDOF 6
ENDMDL
MODEL 7
REMARK VINA RESULT:      -7.4      4.785      7.819
REMARK  Name = 
REMARK  6 active torsions:
REMARK  status: ('A' for Active; 'I' for Inactive)
REMARK    1  A    between atoms: C_2  and  N_3
REMARK    2  A    between atoms: C_2  and  N_17
REMARK    3  A    between atoms: N_3  and  C_4
REMARK    4  A    between atoms: C_7  and  O_8
REMARK    5  A    between atoms: O_8  and  C_9
REMARK    6  A    between atoms: N_17  and  C_18
REMARK                            x       y       z     vdW  Elec       q    Type
REMARK                         _______ _______ _______ _____ _____    ______ ____
ROOT
ATOM      1  C   UNL     1       2.295   7.393  19.711  0.00  0.00    +0.000 A 
ATOM      2  C   UNL     1       2.379   7.858  18.391  0.00  0.00    +0.000 A 
ATOM      3  C   UNL     1       1.687   8.999  17.990  0.00  0.00    +0.000 A 
ATOM      4  C   UNL     1       0.893   9.683  18.906  0.00  0.00    +0.000 A 
ATOM      5  C   UNL     1       0.832   9.243  20.234  0.00  0.00    +0.000 A 
ATOM      6  C   UNL     1       1.493   8.074  20.623  0.00  0.00    +0.000 A 
ENDROOT
BRANCH   1   7
ATOM      7  N   UNL     1       2.986   6.237  20.141  0.00  0.00    +0.000 N 
ATOM      8  H   UNL     1       3.302   6.218  21.104  0.00  0.00    +0.000 HD
BRANCH   7  10
ATOM      9  S   UNL     1       1.768   4.091  19.194  0.00  0.00    +0.000 S 
ATOM     10  C   UNL     1       3.098   5.056  19.441  0.00  0.00    +0.000 C 
BRANCH  10  11
ATOM     11  N   UNL     1       4.380   4.773  19.061  0.00  0.00    +0.000 N 
ATOM     12  H   UNL     1       4.811   4.036  19.605  0.00  0.00    +0.000 HD
BRANCH  11  13
ATOM     13  C   UNL     1       5.222   5.414  18.072  0.00  0.00    +0.000 C 
ATOM     14  C   UNL     1       6.531   4.635  17.953  0.00  0.00    +0.000 C 
ATOM     15  C   UNL     1       7.117   5.079  16.626  0.00  0.00    +0.000 C 
ATOM     16  C   UNL     1       5.924   5.481  15.764  0.00  0.00    +0.000 C 
ATOM     17  C   UNL     1       4.681   5.379  16.651  0.00  0.00    +0.000 C 
ENDBRANCH  11  13
ENDBRANCH  10  11
ENDBRANCH   7  10
ENDBRANCH   1   7
BRANCH   4  18
ATOM     18  O   UNL     1       0.253  10.801  18.423  0.00  0.00    +0.000 OA
BRANCH  18  19
ATOM     19  C   UNL     1      -1.100  10.756  18.176  0.00  0.00    +0.000 A 
ATOM     20  C   UNL     1      -1.876  11.692  18.860  0.00  0.00    +0.000 A 
ATOM     21  C   UNL     1      -3.262  11.707  18.693  0.00  0.00    +0.000 A 
ATOM     22  C   UNL     1      -3.871  10.787  17.840  0.00  0.00    +0.000 A 
ATOM     23  C   UNL     1      -3.094   9.881  17.122  0.00  0.00    +0.000 A 
ATOM     24  C   UNL     1      -1.707   9.886  17.265  0.00  0.00    +0.000 A 
ENDBRANCH  18  19
ENDBRANCH   4  18
TORSDOF 6
ENDMDL
MODEL 8
REMARK VINA RESULT:      -7.4      4.920      7.866
REMARK  Name = 
REMARK  6 active torsions:
REMARK  status: ('A' for Active; 'I' for Inactive)
REMARK    1  A    between atoms: C_2  and  N_3
REMARK    2  A    between atoms: C_2  and  N_17
REMARK    3  A    between atoms: N_3  and  C_4
REMARK    4  A    between atoms: C_7  and  O_8
REMARK    5  A    between atoms: O_8  and  C_9
REMARK    6  A    between atoms: N_17  and  C_18
REMARK                            x       y       z     vdW  Elec       q    Type
REMARK                         _______ _______ _______ _____ _____    ______ ____
ROOT
ATOM      1  C   UNL     1       2.165   7.560  19.662  0.00  0.00    +0.000 A 
ATOM      2  C   UNL     1       2.237   8.057  18.352  0.00  0.00    +0.000 A 
ATOM      3  C   UNL     1       1.532   9.202  17.983  0.00  0.00    +0.000 A 
ATOM      4  C   UNL     1       0.740   9.857  18.919  0.00  0.00    +0.000 A 
ATOM      5  C   UNL     1       0.690   9.385  20.237  0.00  0.00    +0.000 A 
ATOM      6  C   UNL     1       1.363   8.212  20.594  0.00  0.00    +0.000 A 
ENDROOT
BRANCH   1   7
ATOM      7  N   UNL     1       2.868   6.400  20.060  0.00  0.00    +0.000 N 
ATOM      8  H   UNL     1       3.080   6.303  21.046  0.00  0.00    +0.000 HD
BRANCH   7  10
ATOM      9  S   UNL     1       1.866   4.350  18.726  0.00  0.00    +0.000 S 
ATOM     10  C   UNL     1       3.117   5.297  19.273  0.00  0.00    +0.000 C 
BRANCH  10  11
ATOM     11  N   UNL     1       4.449   5.066  19.074  0.00  0.00    +0.000 N 
ATOM     12  H   UNL     1       4.950   4.825  19.920  0.00  0.00    +0.000 HD
BRANCH  11  13
ATOM     13  C   UNL     1       5.248   5.192  17.872  0.00  0.00    +0.000 C 
ATOM     14  C   UNL     1       4.975   3.991  16.966  0.00  0.00    +0.000 C 
ATOM     15  C   UNL     1       5.465   4.428  15.599  0.00  0.00    +0.000 C 
ATOM     16  C   UNL     1       5.333   5.949  15.581  0.00  0.00    +0.000 C 
ATOM     17  C   UNL     1       4.884   6.371  16.982  0.00  0.00    +0.000 C 
ENDBRANCH  11  13
ENDBRANCH  10  11
ENDBRANCH   7  10
ENDBRANCH   1   7
BRANCH   4  18
ATOM     18  O   UNL     1       0.088  10.981  18.468  0.00  0.00    +0.000 OA
BRANCH  18  19
ATOM     19  C   UNL     1      -1.272  10.939  18.255  0.00  0.00    +0.000 A 
ATOM     20  C   UNL     1      -1.716   9.979  17.345  0.00  0.00    +0.000 A 
ATOM     21  C   UNL     1      -3.076   9.876  17.045  0.00  0.00    +0.000 A 
ATOM     22  C   UNL     1      -3.991  10.733  17.657  0.00  0.00    +0.000 A 
ATOM     23  C   UNL     1      -3.554  11.663  18.598  0.00  0.00    +0.000 A 
ATOM     24  C   UNL     1      -2.200  11.744  18.921  0.00  0.00    +0.000 A 
ENDBRANCH  18  19
ENDBRANCH   4  18
TORSDOF 6
ENDMDL
MODEL 9
REMARK VINA RESULT:      -7.3      1.849      3.471
REMARK  Name = 
REMARK  6 active torsions:
REMARK  status: ('A' for Active; 'I' for Inactive)
REMARK    1  A    between atoms: C_2  and  N_3
REMARK    2  A    between atoms: C_2  and  N_17
REMARK    3  A    between atoms: N_3  and  C_4
REMARK    4  A    between atoms: C_7  and  O_8
REMARK    5  A    between atoms: O_8  and  C_9
REMARK    6  A    between atoms: N_17  and  C_18
REMARK                            x       y       z     vdW  Elec       q    Type
REMARK                         _______ _______ _______ _____ _____    ______ ____
ROOT
ATOM      1  C   UNL     1       4.977   5.599  18.710  0.00  0.00    +0.000 A 
ATOM      2  C   UNL     1       6.045   4.703  18.560  0.00  0.00    +0.000 A 
ATOM      3  C   UNL     1       6.842   4.725  17.416  0.00  0.00    +0.000 A 
ATOM      4  C   UNL     1       6.571   5.640  16.404  0.00  0.00    +0.000 A 
ATOM      5  C   UNL     1       5.526   6.559  16.562  0.00  0.00    +0.000 A 
ATOM      6  C   UNL     1       4.702   6.506  17.690  0.00  0.00    +0.000 A 
ENDROOT
BRANCH   1   7
ATOM      7  N   UNL     1       4.154   5.594  19.859  0.00  0.00    +0.000 N 
ATOM      8  H   UNL     1       4.589   5.838  20.742  0.00  0.00    +0.000 HD
BRANCH   7  10
ATOM      9  S   UNL     1       2.016   4.352  18.924  0.00  0.00    +0.000 S 
ATOM     10  C   UNL     1       2.780   5.486  19.868  0.00  0.00    +0.000 C 
BRANCH  10  11
ATOM     11  N   UNL     1       2.171   6.422  20.656  0.00  0.00    +0.000 N 
ATOM     12  H   UNL     1       2.308   6.270  21.647  0.00  0.00    +0.000 HD
BRANCH  11  13
ATOM     13  C   UNL     1       1.309   7.529  20.291  0.00  0.00    +0.000 C 
ATOM     14  C   UNL     1       1.297   8.546  21.432  0.00  0.00    +0.000 C 
ATOM     15  C   UNL     1       0.778   9.821  20.797  0.00  0.00    +0.000 C 
ATOM     16  C   UNL     1       1.167   9.735  19.323  0.00  0.00    +0.000 C 
ATOM     17  C   UNL     1       1.795   8.356  19.110  0.00  0.00    +0.000 C 
ENDBRANCH  11  13
ENDBRANCH  10  11
ENDBRANCH   7  10
ENDBRANCH   1   7
BRANCH   4  18
ATOM     18  O   UNL     1       7.413   5.594  15.317  0.00  0.00    +0.000 OA
BRANCH  18  19
ATOM     19  C   UNL     1       7.031   4.900  14.190  0.00  0.00    +0.000 A 
ATOM     20  C   UNL     1       7.785   5.143  13.041  0.00  0.00    +0.000 A 
ATOM     21  C   UNL     1       7.458   4.506  11.843  0.00  0.00    +0.000 A 
ATOM     22  C   UNL     1       6.378   3.624  11.795  0.00  0.00    +0.000 A 
ATOM     23  C   UNL     1       5.652   3.347  12.951  0.00  0.00    +0.000 A 
ATOM     24  C   UNL     1       5.998   3.960  14.155  0.00  0.00    +0.000 A 
ENDBRANCH  18  19
ENDBRANCH   4  18
TORSDOF 6
ENDMDL
