MODEL 1
REMARK VINA RESULT:      -7.5      0.000      0.000
REMARK  Name = 
REMARK  10 active torsions:
REMARK  status: ('A' for Active; 'I' for Inactive)
REMARK    1  A    between atoms: C_1  and  C_2
REMARK    2  A    between atoms: C_2  and  C_3
REMARK    3  A    between atoms: C_3  and  C_4
REMARK    4  A    between atoms: C_7  and  S_8
REMARK    5  A    between atoms: S_8  and  N_11
REMARK    6  A    between atoms: N_11  and  C_12
REMARK    7  A    between atoms: C_12  and  C_13
REMARK    8  A    between atoms: C_16  and  S_17
REMARK    9  A    between atoms: S_17  and  C_18
REMARK   10  A    between atoms: N_19  and  C_20
REMARK                            x       y       z     vdW  Elec       q    Type
REMARK                         _______ _______ _______ _____ _____    ______ ____
ROOT
ATOM      1  S   UNL     1       7.243   5.476  16.580  0.00  0.00    +0.000 S 
ATOM      2  O   UNL     1       8.004   4.414  17.203  0.00  0.00    +0.000 OA
ATOM      3  O   UNL     1       7.803   6.789  16.364  0.00  0.00    +0.000 OA
ENDROOT
BRANCH   1   7
ATOM      4  C   UNL     1       5.764   3.710  12.621  0.00  0.00    +0.000 A 
ATOM      5  C   UNL     1       7.034   4.297  12.713  0.00  0.00    +0.000 A 
ATOM      6  C   UNL     1       7.474   4.860  13.914  0.00  0.00    +0.000 A 
ATOM      7  C   UNL     1       6.636   4.851  15.033  0.00  0.00    +0.000 A 
ATOM      8  C   UNL     1       5.365   4.276  14.958  0.00  0.00    +0.000 A 
ATOM      9  C   UNL     1       4.932   3.714  13.751  0.00  0.00    +0.000 A 
BRANCH   4  10
ATOM     10  C   UNL     1       5.295   3.086  11.325  0.00  0.00    +0.000 C 
BRANCH  10  12
ATOM     11  C   UNL     1       3.267   3.983  10.057  0.00  0.00    +0.000 C 
ATOM     12  C   UNL     1       3.772   3.041  11.141  0.00  0.00    +0.000 C 
ENDBRANCH  10  12
ENDBRANCH   4  10
ENDBRANCH   1   7
BRANCH   1  13
ATOM     13  N   UNL     1       5.847   5.660  17.515  0.00  0.00    +0.000 NA
ATOM     14  H   UNL     1       5.056   5.229  17.033  0.00  0.00    +0.000 HD
BRANCH  13  15
ATOM     15  C   UNL     1       5.986   5.310  18.935  0.00  0.00    +0.000 C 
BRANCH  15  16
ATOM     16  C   UNL     1       4.871   4.403  19.345  0.00  0.00    +0.000 A 
ATOM     17  N   UNL     1       4.973   3.108  19.570  0.00  0.00    +0.000 NA
ATOM     18  N   UNL     1       3.754   2.647  19.998  0.00  0.00    +0.000 NA
ATOM     19  C   UNL     1       2.924   3.666  20.018  0.00  0.00    +0.000 A 
ATOM     20  N   UNL     1       3.576   4.797  19.606  0.00  0.00    +0.000 N 
ATOM     21  C   UNL     1       3.079   6.140  19.472  0.00  0.00    +0.000 C 
BRANCH  19  22
ATOM     22  S   UNL     1       1.263   3.616  20.502  0.00  0.00    +0.000 S 
ATOM     23  C   UNL     1       1.321   2.425  21.868  0.00  0.00    +0.000 C 
ENDBRANCH  19  22
ENDBRANCH  15  16
ENDBRANCH  13  15
ENDBRANCH   1  13
TORSDOF 7
ENDMDL
MODEL 2
REMARK VINA RESULT:      -7.5      0.726      1.359
REMARK  Name = 
REMARK  10 active torsions:
REMARK  status: ('A' for Active; 'I' for Inactive)
REMARK    1  A    between atoms: C_1  and  C_2
REMARK    2  A    between atoms: C_2  and  C_3
REMARK    3  A    between atoms: C_3  and  C_4
REMARK    4  A    between atoms: C_7  and  S_8
REMARK    5  A    between atoms: S_8  and  N_11
REMARK    6  A    between atoms: N_11  and  C_12
REMARK    7  A    between atoms: C_12  and  C_13
REMARK    8  A    between atoms: C_16  and  S_17
REMARK    9  A    between atoms: S_17  and  C_18
REMARK   10  A    between atoms: N_19  and  C_20
REMARK                            x       y       z     vdW  Elec       q    Type
REMARK                         _______ _______ _______ _____ _____    ______ ____
ROOT
ATOM      1  S   UNL     1       7.181   5.707  16.759  0.00  0.00    +0.000 S 
ATOM      2  O   UNL     1       7.899   4.654  17.446  0.00  0.00    +0.000 OA
ATOM      3  O   UNL     1       7.785   6.990  16.488  0.00  0.00    +0.000 OA
ENDROOT
BRANCH   1   7
ATOM      4  C   UNL     1       5.725   3.795  12.859  0.00  0.00    +0.000 A 
ATOM      5  C   UNL     1       6.973   4.432  12.922  0.00  0.00    +0.000 A 
ATOM      6  C   UNL     1       7.405   5.038  14.105  0.00  0.00    +0.000 A 
ATOM      7  C   UNL     1       6.581   5.024  15.233  0.00  0.00    +0.000 A 
ATOM      8  C   UNL     1       5.332   4.399  15.187  0.00  0.00    +0.000 A 
ATOM      9  C   UNL     1       4.907   3.794  13.998  0.00  0.00    +0.000 A 
BRANCH   4  10
ATOM     10  C   UNL     1       5.265   3.124  11.583  0.00  0.00    +0.000 C 
BRANCH  10  12
ATOM     11  C   UNL     1       3.406   3.831   9.981  0.00  0.00    +0.000 C 
ATOM     12  C   UNL     1       3.755   3.197  11.320  0.00  0.00    +0.000 C 
ENDBRANCH  10  12
ENDBRANCH   4  10
ENDBRANCH   1   7
BRANCH   1  13
ATOM     13  N   UNL     1       5.777   5.977  17.659  0.00  0.00    +0.000 NA
ATOM     14  H   UNL     1       4.966   5.959  17.037  0.00  0.00    +0.000 HD
BRANCH  13  15
ATOM     15  C   UNL     1       5.649   5.181  18.886  0.00  0.00    +0.000 C 
BRANCH  15  16
ATOM     16  C   UNL     1       4.207   5.062  19.264  0.00  0.00    +0.000 A 
ATOM     17  N   UNL     1       3.348   6.058  19.352  0.00  0.00    +0.000 NA
ATOM     18  N   UNL     1       2.114   5.538  19.650  0.00  0.00    +0.000 NA
ATOM     19  C   UNL     1       2.240   4.234  19.749  0.00  0.00    +0.000 A 
ATOM     20  N   UNL     1       3.545   3.881  19.523  0.00  0.00    +0.000 N 
ATOM     21  C   UNL     1       4.150   2.577  19.523  0.00  0.00    +0.000 C 
BRANCH  19  22
ATOM     22  S   UNL     1       0.969   3.110  20.093  0.00  0.00    +0.000 S 
ATOM     23  C   UNL     1       1.388   2.598  21.781  0.00  0.00    +0.000 C 
ENDBRANCH  19  22
ENDBRANCH  15  16
ENDBRANCH  13  15
ENDBRANCH   1  13
TORSDOF 7
ENDMDL
MODEL 3
REMARK VINA RESULT:      -7.3      0.761      1.722
REMARK  Name = 
REMARK  10 active torsions:
REMARK  status: ('A' for Active; 'I' for Inactive)
REMARK    1  A    between atoms: C_1  and  C_2
REMARK    2  A    between atoms: C_2  and  C_3
REMARK    3  A    between atoms: C_3  and  C_4
REMARK    4  A    between atoms: C_7  and  S_8
REMARK    5  A    between atoms: S_8  and  N_11
REMARK    6  A    between atoms: N_11  and  C_12
REMARK    7  A    between atoms: C_12  and  C_13
REMARK    8  A    between atoms: C_16  and  S_17
REMARK    9  A    between atoms: S_17  and  C_18
REMARK   10  A    between atoms: N_19  and  C_20
REMARK                            x       y       z     vdW  Elec       q    Type
REMARK                         _______ _______ _______ _____ _____    ______ ____
ROOT
ATOM      1  S   UNL     1       7.159   5.655  16.750  0.00  0.00    +0.000 S 
ATOM      2  O   UNL     1       7.778   4.653  17.593  0.00  0.00    +0.000 OA
ATOM      3  O   UNL     1       7.812   6.908  16.453  0.00  0.00    +0.000 OA
ENDROOT
BRANCH   1   7
ATOM      4  C   UNL     1       5.921   3.743  12.776  0.00  0.00    +0.000 A 
ATOM      5  C   UNL     1       5.145   3.563  13.930  0.00  0.00    +0.000 A 
ATOM      6  C   UNL     1       5.537   4.125  15.148  0.00  0.00    +0.000 A 
ATOM      7  C   UNL     1       6.723   4.861  15.223  0.00  0.00    +0.000 A 
ATOM      8  C   UNL     1       7.513   5.045  14.086  0.00  0.00    +0.000 A 
ATOM      9  C   UNL     1       7.112   4.479  12.869  0.00  0.00    +0.000 A 
BRANCH   4  10
ATOM     10  C   UNL     1       5.488   3.149  11.454  0.00  0.00    +0.000 C 
BRANCH  10  12
ATOM     11  C   UNL     1       3.371   3.951  10.270  0.00  0.00    +0.000 C 
ATOM     12  C   UNL     1       3.971   2.985  11.282  0.00  0.00    +0.000 C 
ENDBRANCH  10  12
ENDBRANCH   4  10
ENDBRANCH   1   7
BRANCH   1  13
ATOM     13  N   UNL     1       5.668   6.007  17.462  0.00  0.00    +0.000 NA
ATOM     14  H   UNL     1       4.919   5.593  16.904  0.00  0.00    +0.000 HD
BRANCH  13  15
ATOM     15  C   UNL     1       5.584   5.764  18.908  0.00  0.00    +0.000 C 
BRANCH  15  16
ATOM     16  C   UNL     1       4.178   5.419  19.283  0.00  0.00    +0.000 A 
ATOM     17  N   UNL     1       3.197   6.278  19.469  0.00  0.00    +0.000 NA
ATOM     18  N   UNL     1       2.048   5.572  19.725  0.00  0.00    +0.000 NA
ATOM     19  C   UNL     1       2.349   4.293  19.702  0.00  0.00    +0.000 A 
ATOM     20  N   UNL     1       3.684   4.141  19.436  0.00  0.00    +0.000 N 
ATOM     21  C   UNL     1       4.457   2.935  19.311  0.00  0.00    +0.000 C 
BRANCH  19  22
ATOM     22  S   UNL     1       1.245   2.983  19.949  0.00  0.00    +0.000 S 
ATOM     23  C   UNL     1       1.579   2.551  21.677  0.00  0.00    +0.000 C 
ENDBRANCH  19  22
ENDBRANCH  15  16
ENDBRANCH  13  15
ENDBRANCH   1  13
TORSDOF 7
ENDMDL
MODEL 4
REMARK VINA RESULT:      -7.2      0.813      1.584
REMARK  Name = 
REMARK  10 active torsions:
REMARK  status: ('A' for Active; 'I' for Inactive)
REMARK    1  A    between atoms: C_1  and  C_2
REMARK    2  A    between atoms: C_2  and  C_3
REMARK    3  A    between atoms: C_3  and  C_4
REMARK    4  A    between atoms: C_7  and  S_8
REMARK    5  A    between atoms: S_8  and  N_11
REMARK    6  A    between atoms: N_11  and  C_12
REMARK    7  A    between atoms: C_12  and  C_13
REMARK    8  A    between atoms: C_16  and  S_17
REMARK    9  A    between atoms: S_17  and  C_18
REMARK   10  A    between atoms: N_19  and  C_20
REMARK                            x       y       z     vdW  Elec       q    Type
REMARK                         _______ _______ _______ _____ _____    ______ ____
ROOT
ATOM      1  S   UNL     1       7.251   5.692  16.932  0.00  0.00    +0.000 S 
ATOM      2  O   UNL     1       7.942   4.691  17.717  0.00  0.00    +0.000 OA
ATOM      3  O   UNL     1       7.865   6.956  16.599  0.00  0.00    +0.000 OA
ENDROOT
BRANCH   1   7
ATOM      4  C   UNL     1       5.753   3.801  13.038  0.00  0.00    +0.000 A 
ATOM      5  C   UNL     1       5.040   3.638  14.235  0.00  0.00    +0.000 A 
ATOM      6  C   UNL     1       5.511   4.193  15.427  0.00  0.00    +0.000 A 
ATOM      7  C   UNL     1       6.713   4.905  15.434  0.00  0.00    +0.000 A 
ATOM      8  C   UNL     1       7.442   5.072  14.253  0.00  0.00    +0.000 A 
ATOM      9  C   UNL     1       6.962   4.513  13.062  0.00  0.00    +0.000 A 
BRANCH   4  10
ATOM     10  C   UNL     1       5.234   3.215  11.744  0.00  0.00    +0.000 C 
BRANCH  10  12
ATOM     11  C   UNL     1       7.212   1.714  11.147  0.00  0.00    +0.000 C 
ATOM     12  C   UNL     1       5.720   1.792  11.434  0.00  0.00    +0.000 C 
ENDBRANCH  10  12
ENDBRANCH   4  10
ENDBRANCH   1   7
BRANCH   1  13
ATOM     13  N   UNL     1       5.812   6.018  17.755  0.00  0.00    +0.000 NA
ATOM     14  H   UNL     1       5.019   5.712  17.187  0.00  0.00    +0.000 HD
BRANCH  13  15
ATOM     15  C   UNL     1       5.778   5.598  19.162  0.00  0.00    +0.000 C 
BRANCH  15  16
ATOM     16  C   UNL     1       4.848   4.439  19.323  0.00  0.00    +0.000 A 
ATOM     17  N   UNL     1       5.204   3.176  19.448  0.00  0.00    +0.000 NA
ATOM     18  N   UNL     1       4.072   2.427  19.649  0.00  0.00    +0.000 NA
ATOM     19  C   UNL     1       3.042   3.243  19.634  0.00  0.00    +0.000 A 
ATOM     20  N   UNL     1       3.476   4.525  19.422  0.00  0.00    +0.000 N 
ATOM     21  C   UNL     1       2.715   5.742  19.332  0.00  0.00    +0.000 C 
BRANCH  19  22
ATOM     22  S   UNL     1       1.385   2.796  19.860  0.00  0.00    +0.000 S 
ATOM     23  C   UNL     1       1.275   2.728  21.669  0.00  0.00    +0.000 C 
ENDBRANCH  19  22
ENDBRANCH  15  16
ENDBRANCH  13  15
ENDBRANCH   1  13
TORSDOF 7
ENDMDL
MODEL 5
REMARK VINA RESULT:      -7.2      0.488      1.141
REMARK  Name = 
REMARK  10 active torsions:
REMARK  status: ('A' for Active; 'I' for Inactive)
REMARK    1  A    between atoms: C_1  and  C_2
REMARK    2  A    between atoms: C_2  and  C_3
REMARK    3  A    between atoms: C_3  and  C_4
REMARK    4  A    between atoms: C_7  and  S_8
REMARK    5  A    between atoms: S_8  and  N_11
REMARK    6  A    between atoms: N_11  and  C_12
REMARK    7  A    between atoms: C_12  and  C_13
REMARK    8  A    between atoms: C_16  and  S_17
REMARK    9  A    between atoms: S_17  and  C_18
REMARK   10  A    between atoms: N_19  and  C_20
REMARK                            x       y       z     vdW  Elec       q    Type
REMARK                         _______ _______ _______ _____ _____    ______ ____
ROOT
ATOM      1  S   UNL     1       7.209   5.730  16.867  0.00  0.00    +0.000 S 
ATOM      2  O   UNL     1       7.932   4.767  17.672  0.00  0.00    +0.000 OA
ATOM      3  O   UNL     1       7.789   6.998  16.492  0.00  0.00    +0.000 OA
ENDROOT
BRANCH   1   7
ATOM      4  C   UNL     1       5.731   3.709  13.031  0.00  0.00    +0.000 A 
ATOM      5  C   UNL     1       4.930   3.734  14.182  0.00  0.00    +0.000 A 
ATOM      6  C   UNL     1       5.392   4.327  15.359  0.00  0.00    +0.000 A 
ATOM      7  C   UNL     1       6.671   4.889  15.398  0.00  0.00    +0.000 A 
ATOM      8  C   UNL     1       7.486   4.868  14.264  0.00  0.00    +0.000 A 
ATOM      9  C   UNL     1       7.015   4.272  13.087  0.00  0.00    +0.000 A 
BRANCH   4  10
ATOM     10  C   UNL     1       5.224   3.082  11.751  0.00  0.00    +0.000 C 
BRANCH  10  12
ATOM     11  C   UNL     1       3.085   3.082  10.354  0.00  0.00    +0.000 C 
ATOM     12  C   UNL     1       4.190   3.918  10.984  0.00  0.00    +0.000 C 
ENDBRANCH  10  12
ENDBRANCH   4  10
ENDBRANCH   1   7
BRANCH   1  13
ATOM     13  N   UNL     1       5.772   6.047  17.699  0.00  0.00    +0.000 NA
ATOM     14  H   UNL     1       4.977   5.751  17.128  0.00  0.00    +0.000 HD
BRANCH  13  15
ATOM     15  C   UNL     1       5.741   5.607  19.099  0.00  0.00    +0.000 C 
BRANCH  15  16
ATOM     16  C   UNL     1       4.735   4.513  19.265  0.00  0.00    +0.000 A 
ATOM     17  N   UNL     1       4.986   3.221  19.222  0.00  0.00    +0.000 NA
ATOM     18  N   UNL     1       3.823   2.545  19.493  0.00  0.00    +0.000 NA
ATOM     19  C   UNL     1       2.877   3.436  19.686  0.00  0.00    +0.000 A 
ATOM     20  N   UNL     1       3.397   4.696  19.545  0.00  0.00    +0.000 N 
ATOM     21  C   UNL     1       2.746   5.971  19.669  0.00  0.00    +0.000 C 
BRANCH  19  22
ATOM     22  S   UNL     1       1.225   3.099  20.077  0.00  0.00    +0.000 S 
ATOM     23  C   UNL     1       1.360   2.606  21.816  0.00  0.00    +0.000 C 
ENDBRANCH  19  22
ENDBRANCH  15  16
ENDBRANCH  13  15
ENDBRANCH   1  13
TORSDOF 7
ENDMDL
MODEL 6
REMARK VINA RESULT:      -7.1      1.239      2.205
REMARK  Name = 
REMARK  10 active torsions:
REMARK  status: ('A' for Active; 'I' for Inactive)
REMARK    1  A    between atoms: C_1  and  C_2
REMARK    2  A    between atoms: C_2  and  C_3
REMARK    3  A    between atoms: C_3  and  C_4
REMARK    4  A    between atoms: C_7  and  S_8
REMARK    5  A    between atoms: S_8  and  N_11
REMARK    6  A    between atoms: N_11  and  C_12
REMARK    7  A    between atoms: C_12  and  C_13
REMARK    8  A    between atoms: C_16  and  S_17
REMARK    9  A    between atoms: S_17  and  C_18
REMARK   10  A    between atoms: N_19  and  C_20
REMARK                            x       y       z     vdW  Elec       q    Type
REMARK                         _______ _______ _______ _____ _____    ______ ____
ROOT
ATOM      1  S   UNL     1       7.149   5.735  16.886  0.00  0.00    +0.000 S 
ATOM      2  O   UNL     1       7.924   4.842  17.721  0.00  0.00    +0.000 OA
ATOM      3  O   UNL     1       7.613   7.061  16.553  0.00  0.00    +0.000 OA
ENDROOT
BRANCH   1   7
ATOM      4  C   UNL     1       6.069   3.602  12.979  0.00  0.00    +0.000 A 
ATOM      5  C   UNL     1       5.384   3.311  14.167  0.00  0.00    +0.000 A 
ATOM      6  C   UNL     1       5.732   3.942  15.364  0.00  0.00    +0.000 A 
ATOM      7  C   UNL     1       6.782   4.863  15.383  0.00  0.00    +0.000 A 
ATOM      8  C   UNL     1       7.481   5.162  14.210  0.00  0.00    +0.000 A 
ATOM      9  C   UNL     1       7.126   4.524  13.015  0.00  0.00    +0.000 A 
BRANCH   4  10
ATOM     10  C   UNL     1       5.682   2.931  11.680  0.00  0.00    +0.000 C 
BRANCH  10  12
ATOM     11  C   UNL     1       6.194   0.470  11.226  0.00  0.00    +0.000 C 
ATOM     12  C   UNL     1       6.694   1.905  11.151  0.00  0.00    +0.000 C 
ENDBRANCH  10  12
ENDBRANCH   4  10
ENDBRANCH   1   7
BRANCH   1  13
ATOM     13  N   UNL     1       5.645   5.890  17.639  0.00  0.00    +0.000 NA
ATOM     14  H   UNL     1       4.923   5.475  17.046  0.00  0.00    +0.000 HD
BRANCH  13  15
ATOM     15  C   UNL     1       5.601   5.495  19.053  0.00  0.00    +0.000 C 
BRANCH  15  16
ATOM     16  C   UNL     1       4.187   5.240  19.465  0.00  0.00    +0.000 A 
ATOM     17  N   UNL     1       3.236   6.146  19.561  0.00  0.00    +0.000 NA
ATOM     18  N   UNL     1       2.065   5.511  19.892  0.00  0.00    +0.000 NA
ATOM     19  C   UNL     1       2.323   4.227  20.003  0.00  0.00    +0.000 A 
ATOM     20  N   UNL     1       3.650   4.003  19.752  0.00  0.00    +0.000 N 
ATOM     21  C   UNL     1       4.382   2.765  19.753  0.00  0.00    +0.000 C 
BRANCH  19  22
ATOM     22  S   UNL     1       1.177   2.989  20.388  0.00  0.00    +0.000 S 
ATOM     23  C   UNL     1       0.806   2.318  18.745  0.00  0.00    +0.000 C 
ENDBRANCH  19  22
ENDBRANCH  15  16
ENDBRANCH  13  15
ENDBRANCH   1  13
TORSDOF 7
ENDMDL
MODEL 7
REMARK VINA RESULT:      -6.9      1.253      1.955
REMARK  Name = 
REMARK  10 active torsions:
REMARK  status: ('A' for Active; 'I' for Inactive)
REMARK    1  A    between atoms: C_1  and  C_2
REMARK    2  A    between atoms: C_2  and  C_3
REMARK    3  A    between atoms: C_3  and  C_4
REMARK    4  A    between atoms: C_7  and  S_8
REMARK    5  A    between atoms: S_8  and  N_11
REMARK    6  A    between atoms: N_11  and  C_12
REMARK    7  A    between atoms: C_12  and  C_13
REMARK    8  A    between atoms: C_16  and  S_17
REMARK    9  A    between atoms: S_17  and  C_18
REMARK   10  A    between atoms: N_19  and  C_20
REMARK                            x       y       z     vdW  Elec       q    Type
REMARK                         _______ _______ _______ _____ _____    ______ ____
ROOT
ATOM      1  S   UNL     1       6.581   6.270  16.887  0.00  0.00    +0.000 S 
ATOM      2  O   UNL     1       7.851   6.943  16.713  0.00  0.00    +0.000 OA
ATOM      3  O   UNL     1       5.363   6.998  17.155  0.00  0.00    +0.000 OA
ENDROOT
BRANCH   1   7
ATOM      4  C   UNL     1       5.845   3.757  13.128  0.00  0.00    +0.000 A 
ATOM      5  C   UNL     1       4.874   3.840  14.136  0.00  0.00    +0.000 A 
ATOM      6  C   UNL     1       5.110   4.585  15.294  0.00  0.00    +0.000 A 
ATOM      7  C   UNL     1       6.331   5.244  15.459  0.00  0.00    +0.000 A 
ATOM      8  C   UNL     1       7.314   5.168  14.469  0.00  0.00    +0.000 A 
ATOM      9  C   UNL     1       7.069   4.419  13.311  0.00  0.00    +0.000 A 
BRANCH   4  10
ATOM     10  C   UNL     1       5.583   2.964  11.867  0.00  0.00    +0.000 C 
BRANCH  10  12
ATOM     11  C   UNL     1       6.379   0.681  11.042  0.00  0.00    +0.000 C 
ATOM     12  C   UNL     1       6.764   2.115  11.377  0.00  0.00    +0.000 C 
ENDBRANCH  10  12
ENDBRANCH   4  10
ENDBRANCH   1   7
BRANCH   1  13
ATOM     13  N   UNL     1       6.808   5.164  18.144  0.00  0.00    +0.000 NA
ATOM     14  H   UNL     1       7.809   5.006  18.281  0.00  0.00    +0.000 HD
BRANCH  13  15
ATOM     15  C   UNL     1       6.039   5.428  19.366  0.00  0.00    +0.000 C 
BRANCH  15  16
ATOM     16  C   UNL     1       4.909   4.454  19.474  0.00  0.00    +0.000 A 
ATOM     17  N   UNL     1       5.024   3.143  19.531  0.00  0.00    +0.000 NA
ATOM     18  N   UNL     1       3.773   2.607  19.703  0.00  0.00    +0.000 NA
ATOM     19  C   UNL     1       2.912   3.599  19.738  0.00  0.00    +0.000 A 
ATOM     20  N   UNL     1       3.577   4.788  19.589  0.00  0.00    +0.000 N 
ATOM     21  C   UNL     1       3.056   6.128  19.569  0.00  0.00    +0.000 C 
BRANCH  19  22
ATOM     22  S   UNL     1       1.201   3.456  19.955  0.00  0.00    +0.000 S 
ATOM     23  C   UNL     1       0.786   2.192  18.723  0.00  0.00    +0.000 C 
ENDBRANCH  19  22
ENDBRANCH  15  16
ENDBRANCH  13  15
ENDBRANCH   1  13
TORSDOF 7
ENDMDL
MODEL 8
REMARK VINA RESULT:      -6.8      3.094      4.325
REMARK  Name = 
REMARK  10 active torsions:
REMARK  status: ('A' for Active; 'I' for Inactive)
REMARK    1  A    between atoms: C_1  and  C_2
REMARK    2  A    between atoms: C_2  and  C_3
REMARK    3  A    between atoms: C_3  and  C_4
REMARK    4  A    between atoms: C_7  and  S_8
REMARK    5  A    between atoms: S_8  and  N_11
REMARK    6  A    between atoms: N_11  and  C_12
REMARK    7  A    between atoms: C_12  and  C_13
REMARK    8  A    between atoms: C_16  and  S_17
REMARK    9  A    between atoms: S_17  and  C_18
REMARK   10  A    between atoms: N_19  and  C_20
REMARK                            x       y       z     vdW  Elec       q    Type
REMARK                         _______ _______ _______ _____ _____    ______ ____
ROOT
ATOM      1  S   UNL     1       5.080   4.597  18.995  0.00  0.00    +0.000 S 
ATOM      2  O   UNL     1       5.119   3.303  19.643  0.00  0.00    +0.000 OA
ATOM      3  O   UNL     1       5.782   5.739  19.532  0.00  0.00    +0.000 OA
ENDROOT
BRANCH   1   7
ATOM      4  C   UNL     1       6.323   4.141  14.610  0.00  0.00    +0.000 A 
ATOM      5  C   UNL     1       5.006   3.875  15.013  0.00  0.00    +0.000 A 
ATOM      6  C   UNL     1       4.634   3.989  16.355  0.00  0.00    +0.000 A 
ATOM      7  C   UNL     1       5.586   4.356  17.310  0.00  0.00    +0.000 A 
ATOM      8  C   UNL     1       6.904   4.619  16.929  0.00  0.00    +0.000 A 
ATOM      9  C   UNL     1       7.268   4.503  15.581  0.00  0.00    +0.000 A 
BRANCH   4  10
ATOM     10  C   UNL     1       6.721   4.035  13.154  0.00  0.00    +0.000 C 
BRANCH  10  12
ATOM     11  C   UNL     1       5.926   2.176  11.593  0.00  0.00    +0.000 C 
ATOM     12  C   UNL     1       5.617   3.530  12.214  0.00  0.00    +0.000 C 
ENDBRANCH  10  12
ENDBRANCH   4  10
ENDBRANCH   1   7
BRANCH   1  13
ATOM     13  N   UNL     1       3.446   5.007  18.871  0.00  0.00    +0.000 NA
ATOM     14  H   UNL     1       2.887   4.154  18.795  0.00  0.00    +0.000 HD
BRANCH  13  15
ATOM     15  C   UNL     1       2.964   5.991  19.848  0.00  0.00    +0.000 C 
BRANCH  15  16
ATOM     16  C   UNL     1       2.537   7.239  19.143  0.00  0.00    +0.000 A 
ATOM     17  N   UNL     1       2.787   7.537  17.884  0.00  0.00    +0.000 NA
ATOM     18  N   UNL     1       2.167   8.725  17.590  0.00  0.00    +0.000 NA
ATOM     19  C   UNL     1       1.557   9.139  18.677  0.00  0.00    +0.000 A 
ATOM     20  N   UNL     1       1.766   8.241  19.691  0.00  0.00    +0.000 N 
ATOM     21  C   UNL     1       1.294   8.272  21.049  0.00  0.00    +0.000 C 
BRANCH  19  22
ATOM     22  S   UNL     1       0.614  10.582  18.829  0.00  0.00    +0.000 S 
ATOM     23  C   UNL     1      -0.901  10.117  17.948  0.00  0.00    +0.000 C 
ENDBRANCH  19  22
ENDBRANCH  15  16
ENDBRANCH  13  15
ENDBRANCH   1  13
TORSDOF 7
ENDMDL
MODEL 9
REMARK VINA RESULT:      -6.7      2.890      4.039
REMARK  Name = 
REMARK  10 active torsions:
REMARK  status: ('A' for Active; 'I' for Inactive)
REMARK    1  A    between atoms: C_1  and  C_2
REMARK    2  A    between atoms: C_2  and  C_3
REMARK    3  A    between atoms: C_3  and  C_4
REMARK    4  A    between atoms: C_7  and  S_8
REMARK    5  A    between atoms: S_8  and  N_11
REMARK    6  A    between atoms: N_11  and  C_12
REMARK    7  A    between atoms: C_12  and  C_13
REMARK    8  A    between atoms: C_16  and  S_17
REMARK    9  A    between atoms: S_17  and  C_18
REMARK   10  A    between atoms: N_19  and  C_20
REMARK                            x       y       z     vdW  Elec       q    Type
REMARK                         _______ _______ _______ _____ _____    ______ ____
ROOT
ATOM      1  S   UNL     1       5.651   4.724  19.053  0.00  0.00    +0.000 S 
ATOM      2  O   UNL     1       4.947   3.542  19.507  0.00  0.00    +0.000 OA
ATOM      3  O   UNL     1       6.872   5.171  19.681  0.00  0.00    +0.000 OA
ENDROOT
BRANCH   1   7
ATOM      4  C   UNL     1       6.318   4.373  14.535  0.00  0.00    +0.000 A 
ATOM      5  C   UNL     1       5.101   3.984  15.112  0.00  0.00    +0.000 A 
ATOM      6  C   UNL     1       4.908   4.066  16.493  0.00  0.00    +0.000 A 
ATOM      7  C   UNL     1       5.941   4.527  17.312  0.00  0.00    +0.000 A 
ATOM      8  C   UNL     1       7.164   4.914  16.757  0.00  0.00    +0.000 A 
ATOM      9  C   UNL     1       7.349   4.829  15.371  0.00  0.00    +0.000 A 
BRANCH   4  10
ATOM     10  C   UNL     1       6.522   4.301  13.038  0.00  0.00    +0.000 C 
BRANCH  10  12
ATOM     11  C   UNL     1       4.607   3.371  11.627  0.00  0.00    +0.000 C 
ATOM     12  C   UNL     1       5.907   3.069  12.358  0.00  0.00    +0.000 C 
ENDBRANCH  10  12
ENDBRANCH   4  10
ENDBRANCH   1   7
BRANCH   1  13
ATOM     13  N   UNL     1       4.535   5.990  19.135  0.00  0.00    +0.000 NA
ATOM     14  H   UNL     1       4.757   6.686  18.419  0.00  0.00    +0.000 HD
BRANCH  13  15
ATOM     15  C   UNL     1       3.125   5.588  19.206  0.00  0.00    +0.000 C 
BRANCH  15  16
ATOM     16  C   UNL     1       2.300   6.719  19.731  0.00  0.00    +0.000 A 
ATOM     17  N   UNL     1       1.710   6.762  20.908  0.00  0.00    +0.000 NA
ATOM     18  N   UNL     1       1.116   7.991  21.049  0.00  0.00    +0.000 NA
ATOM     19  C   UNL     1       1.344   8.675  19.951  0.00  0.00    +0.000 A 
ATOM     20  N   UNL     1       2.081   7.915  19.081  0.00  0.00    +0.000 N 
ATOM     21  C   UNL     1       2.567   8.244  17.768  0.00  0.00    +0.000 C 
BRANCH  19  22
ATOM     22  S   UNL     1       0.822  10.294  19.633  0.00  0.00    +0.000 S 
ATOM     23  C   UNL     1       0.467  10.893  21.307  0.00  0.00    +0.000 C 
ENDBRANCH  19  22
ENDBRANCH  15  16
ENDBRANCH  13  15
ENDBRANCH   1  13
TORSDOF 7
ENDMDL
