MODEL 1
REMARK VINA RESULT:      -8.9      0.000      0.000
REMARK  Name = 
REMARK  12 active torsions:
REMARK  status: ('A' for Active; 'I' for Inactive)
REMARK    1  A    between atoms: C_1  and  C_2
REMARK    2  A    between atoms: C_2  and  C_3
REMARK    3  A    between atoms: C_3  and  C_4
REMARK    4  A    between atoms: C_4  and  C_5
REMARK    5  A    between atoms: C_5  and  C_6
REMARK    6  A    between atoms: C_6  and  N_7
REMARK    7  A    between atoms: N_7  and  C_8
REMARK    8  A    between atoms: N_7  and  S_17
REMARK    9  A    between atoms: C_11  and  C_12
REMARK   10  A    between atoms: C_12  and  O_14
REMARK   11  A    between atoms: S_17  and  C_20
REMARK   12  A    between atoms: C_23  and  C_24
REMARK                            x       y       z     vdW  Elec       q    Type
REMARK                         _______ _______ _______ _____ _____    ______ ____
ROOT
ATOM      1  N   UNL     1       5.430   5.274  16.526  0.00  0.00    +0.000 N 
ENDROOT
BRANCH   1   2
ATOM      2  C   UNL     1       4.242   4.762  17.175  0.00  0.00    +0.000 A 
ATOM      3  C   UNL     1       3.933   3.408  17.004  0.00  0.00    +0.000 A 
ATOM      4  C   UNL     1       2.783   2.851  17.567  0.00  0.00    +0.000 A 
ATOM      5  C   UNL     1       1.946   3.619  18.377  0.00  0.00    +0.000 A 
ATOM      6  C   UNL     1       2.268   4.969  18.597  0.00  0.00    +0.000 A 
ATOM      7  C   UNL     1       3.383   5.548  17.948  0.00  0.00    +0.000 A 
BRANCH   5   8
ATOM      8  C   UNL     1       0.751   2.982  19.009  0.00  0.00    +0.000 C 
ATOM      9  O   UNL     1       0.149   2.061  18.526  0.00  0.00    +0.000 OA
BRANCH   8  10
ATOM     10  O   UNL     1       0.394   3.563  20.192  0.00  0.00    +0.000 OA
ATOM     11  H   UNL     1       0.026   2.972  20.871  0.00  0.00    +0.000 HD
ENDBRANCH   8  10
ENDBRANCH   5   8
ENDBRANCH   1   2
BRANCH   1  12
ATOM     12  S   UNL     1       6.973   4.998  17.228  0.00  0.00    +0.000 S 
ATOM     13  O   UNL     1       6.785   4.178  18.420  0.00  0.00    +0.000 OA
ATOM     14  O   UNL     1       7.893   4.583  16.195  0.00  0.00    +0.000 OA
BRANCH  12  15
ATOM     15  C   UNL     1       7.499   6.605  17.811  0.00  0.00    +0.000 A 
ATOM     16  C   UNL     1       7.192   7.743  17.071  0.00  0.00    +0.000 A 
ATOM     17  C   UNL     1       7.727   8.974  17.456  0.00  0.00    +0.000 A 
ATOM     18  C   UNL     1       8.561   9.091  18.585  0.00  0.00    +0.000 A 
ATOM     19  C   UNL     1       8.769   7.945  19.368  0.00  0.00    +0.000 A 
ATOM     20  C   UNL     1       8.216   6.711  19.005  0.00  0.00    +0.000 A 
BRANCH  18  21
ATOM     21  C   UNL     1       9.208  10.375  18.896  0.00  0.00    +0.000 A 
ATOM     22  C   UNL     1       9.455  11.316  17.876  0.00  0.00    +0.000 A 
ATOM     23  C   UNL     1      10.134  12.507  18.128  0.00  0.00    +0.000 A 
ATOM     24  C   UNL     1      10.567  12.794  19.416  0.00  0.00    +0.000 A 
ATOM     25  C   UNL     1      10.320  11.893  20.451  0.00  0.00    +0.000 A 
ATOM     26  C   UNL     1       9.650  10.696  20.193  0.00  0.00    +0.000 A 
ENDBRANCH  18  21
ENDBRANCH  12  15
ENDBRANCH   1  12
BRANCH   1  27
ATOM     27  C   UNL     1       5.422   5.580  15.078  0.00  0.00    +0.000 C 
BRANCH  27  28
ATOM     28  C   UNL     1       5.979   4.459  14.205  0.00  0.00    +0.000 C 
BRANCH  28  29
ATOM     29  C   UNL     1       4.932   3.594  13.499  0.00  0.00    +0.000 C 
BRANCH  29  30
ATOM     30  C   UNL     1       5.265   3.544  12.005  0.00  0.00    +0.000 C 
BRANCH  30  32
ATOM     31  C   UNL     1       3.438   3.967  10.347  0.00  0.00    +0.000 C 
ATOM     32  C   UNL     1       4.153   2.912  11.177  0.00  0.00    +0.000 C 
ENDBRANCH  30  32
ENDBRANCH  29  30
ENDBRANCH  28  29
ENDBRANCH  27  28
ENDBRANCH   1  27
TORSDOF 11
ENDMDL
MODEL 2
REMARK VINA RESULT:      -8.6      7.243     10.207
REMARK  Name = 
REMARK  12 active torsions:
REMARK  status: ('A' for Active; 'I' for Inactive)
REMARK    1  A    between atoms: C_1  and  C_2
REMARK    2  A    between atoms: C_2  and  C_3
REMARK    3  A    between atoms: C_3  and  C_4
REMARK    4  A    between atoms: C_4  and  C_5
REMARK    5  A    between atoms: C_5  and  C_6
REMARK    6  A    between atoms: C_6  and  N_7
REMARK    7  A    between atoms: N_7  and  C_8
REMARK    8  A    between atoms: N_7  and  S_17
REMARK    9  A    between atoms: C_11  and  C_12
REMARK   10  A    between atoms: C_12  and  O_14
REMARK   11  A    between atoms: S_17  and  C_20
REMARK   12  A    between atoms: C_23  and  C_24
REMARK                            x       y       z     vdW  Elec       q    Type
REMARK                         _______ _______ _______ _____ _____    ______ ____
ROOT
ATOM      1  N   UNL     1      -0.048  12.120  19.403  0.00  0.00    +0.000 N 
ENDROOT
BRANCH   1   2
ATOM      2  C   UNL     1       0.802  13.242  19.068  0.00  0.00    +0.000 A 
ATOM      3  C   UNL     1       0.414  14.514  19.504  0.00  0.00    +0.000 A 
ATOM      4  C   UNL     1       1.163  15.649  19.186  0.00  0.00    +0.000 A 
ATOM      5  C   UNL     1       2.361  15.534  18.481  0.00  0.00    +0.000 A 
ATOM      6  C   UNL     1       2.789  14.258  18.076  0.00  0.00    +0.000 A 
ATOM      7  C   UNL     1       1.979  13.125  18.321  0.00  0.00    +0.000 A 
BRANCH   5   8
ATOM      8  C   UNL     1       3.168  16.760  18.201  0.00  0.00    +0.000 C 
ATOM      9  O   UNL     1       4.012  17.191  18.941  0.00  0.00    +0.000 OA
BRANCH   8  10
ATOM     10  O   UNL     1       2.838  17.363  17.021  0.00  0.00    +0.000 OA
ATOM     11  H   UNL     1       2.118  18.015  17.054  0.00  0.00    +0.000 HD
ENDBRANCH   8  10
ENDBRANCH   5   8
ENDBRANCH   1   2
BRANCH   1  12
ATOM     12  S   UNL     1       0.411  11.049  20.665  0.00  0.00    +0.000 S 
ATOM     13  O   UNL     1       1.519  11.658  21.392  0.00  0.00    +0.000 OA
ATOM     14  O   UNL     1      -0.773  10.616  21.369  0.00  0.00    +0.000 OA
BRANCH  12  15
ATOM     15  C   UNL     1       1.093   9.626  19.824  0.00  0.00    +0.000 A 
ATOM     16  C   UNL     1       1.373   8.466  20.541  0.00  0.00    +0.000 A 
ATOM     17  C   UNL     1       2.036   7.414  19.907  0.00  0.00    +0.000 A 
ATOM     18  C   UNL     1       2.417   7.495  18.554  0.00  0.00    +0.000 A 
ATOM     19  C   UNL     1       2.032   8.635  17.831  0.00  0.00    +0.000 A 
ATOM     20  C   UNL     1       1.344   9.685  18.451  0.00  0.00    +0.000 A 
BRANCH  18  21
ATOM     21  C   UNL     1       3.222   6.422  17.947  0.00  0.00    +0.000 A 
ATOM     22  C   UNL     1       4.444   6.718  17.313  0.00  0.00    +0.000 A 
ATOM     23  C   UNL     1       5.190   5.736  16.665  0.00  0.00    +0.000 A 
ATOM     24  C   UNL     1       4.736   4.423  16.652  0.00  0.00    +0.000 A 
ATOM     25  C   UNL     1       3.539   4.093  17.288  0.00  0.00    +0.000 A 
ATOM     26  C   UNL     1       2.790   5.083  17.927  0.00  0.00    +0.000 A 
ENDBRANCH  18  21
ENDBRANCH  12  15
ENDBRANCH   1  12
BRANCH   1  27
ATOM     27  C   UNL     1      -1.488  12.141  19.062  0.00  0.00    +0.000 C 
BRANCH  27  28
ATOM     28  C   UNL     1      -1.792  11.713  17.629  0.00  0.00    +0.000 C 
BRANCH  28  29
ATOM     29  C   UNL     1      -1.950  10.206  17.414  0.00  0.00    +0.000 C 
BRANCH  29  30
ATOM     30  C   UNL     1      -3.385   9.925  16.960  0.00  0.00    +0.000 C 
BRANCH  30  32
ATOM     31  C   UNL     1      -3.092  10.073  14.478  0.00  0.00    +0.000 C 
ATOM     32  C   UNL     1      -3.763  10.688  15.697  0.00  0.00    +0.000 C 
ENDBRANCH  30  32
ENDBRANCH  29  30
ENDBRANCH  28  29
ENDBRANCH  27  28
ENDBRANCH   1  27
TORSDOF 11
ENDMDL
MODEL 3
REMARK VINA RESULT:      -8.6      3.177      6.520
REMARK  Name = 
REMARK  12 active torsions:
REMARK  status: ('A' for Active; 'I' for Inactive)
REMARK    1  A    between atoms: C_1  and  C_2
REMARK    2  A    between atoms: C_2  and  C_3
REMARK    3  A    between atoms: C_3  and  C_4
REMARK    4  A    between atoms: C_4  and  C_5
REMARK    5  A    between atoms: C_5  and  C_6
REMARK    6  A    between atoms: C_6  and  N_7
REMARK    7  A    between atoms: N_7  and  C_8
REMARK    8  A    between atoms: N_7  and  S_17
REMARK    9  A    between atoms: C_11  and  C_12
REMARK   10  A    between atoms: C_12  and  O_14
REMARK   11  A    between atoms: S_17  and  C_20
REMARK   12  A    between atoms: C_23  and  C_24
REMARK                            x       y       z     vdW  Elec       q    Type
REMARK                         _______ _______ _______ _____ _____    ______ ____
ROOT
ATOM      1  N   UNL     1       5.372   4.220  17.122  0.00  0.00    +0.000 N 
ENDROOT
BRANCH   1   2
ATOM      2  C   UNL     1       6.159   5.389  17.450  0.00  0.00    +0.000 A 
ATOM      3  C   UNL     1       5.828   6.599  16.830  0.00  0.00    +0.000 A 
ATOM      4  C   UNL     1       6.566   7.760  17.066  0.00  0.00    +0.000 A 
ATOM      5  C   UNL     1       7.615   7.760  17.987  0.00  0.00    +0.000 A 
ATOM      6  C   UNL     1       7.930   6.563  18.653  0.00  0.00    +0.000 A 
ATOM      7  C   UNL     1       7.238   5.371  18.339  0.00  0.00    +0.000 A 
BRANCH   5   8
ATOM      8  C   UNL     1       8.352   9.030  18.258  0.00  0.00    +0.000 C 
ATOM      9  O   UNL     1       8.287  10.006  17.558  0.00  0.00    +0.000 OA
BRANCH   8  10
ATOM     10  O   UNL     1       9.128   8.972  19.379  0.00  0.00    +0.000 OA
ATOM     11  H   UNL     1       8.722   8.575  20.168  0.00  0.00    +0.000 HD
ENDBRANCH   8  10
ENDBRANCH   5   8
ENDBRANCH   1   2
BRANCH   1  12
ATOM     12  S   UNL     1       4.320   3.541  18.299  0.00  0.00    +0.000 S 
ATOM     13  O   UNL     1       3.412   2.628  17.616  0.00  0.00    +0.000 OA
ATOM     14  O   UNL     1       5.104   3.087  19.424  0.00  0.00    +0.000 OA
BRANCH  12  15
ATOM     15  C   UNL     1       3.318   4.914  18.855  0.00  0.00    +0.000 A 
ATOM     16  C   UNL     1       2.853   5.848  17.934  0.00  0.00    +0.000 A 
ATOM     17  C   UNL     1       2.194   6.990  18.391  0.00  0.00    +0.000 A 
ATOM     18  C   UNL     1       1.977   7.212  19.765  0.00  0.00    +0.000 A 
ATOM     19  C   UNL     1       2.366   6.204  20.662  0.00  0.00    +0.000 A 
ATOM     20  C   UNL     1       3.005   5.043  20.210  0.00  0.00    +0.000 A 
BRANCH  18  21
ATOM     21  C   UNL     1       1.390   8.480  20.226  0.00  0.00    +0.000 A 
ATOM     22  C   UNL     1       0.951   8.622  21.557  0.00  0.00    +0.000 A 
ATOM     23  C   UNL     1       0.323   9.784  22.002  0.00  0.00    +0.000 A 
ATOM     24  C   UNL     1       0.136  10.844  21.124  0.00  0.00    +0.000 A 
ATOM     25  C   UNL     1       0.578  10.743  19.805  0.00  0.00    +0.000 A 
ATOM     26  C   UNL     1       1.196   9.574  19.361  0.00  0.00    +0.000 A 
ENDBRANCH  18  21
ENDBRANCH  12  15
ENDBRANCH   1  12
BRANCH   1  27
ATOM     27  C   UNL     1       5.062   3.895  15.712  0.00  0.00    +0.000 C 
BRANCH  27  28
ATOM     28  C   UNL     1       6.294   3.760  14.822  0.00  0.00    +0.000 C 
BRANCH  28  29
ATOM     29  C   UNL     1       6.261   4.573  13.526  0.00  0.00    +0.000 C 
BRANCH  29  30
ATOM     30  C   UNL     1       6.722   3.676  12.374  0.00  0.00    +0.000 C 
BRANCH  30  32
ATOM     31  C   UNL     1       4.374   3.408  11.548  0.00  0.00    +0.000 C 
ATOM     32  C   UNL     1       5.653   2.682  11.938  0.00  0.00    +0.000 C 
ENDBRANCH  30  32
ENDBRANCH  29  30
ENDBRANCH  28  29
ENDBRANCH  27  28
ENDBRANCH   1  27
TORSDOF 11
ENDMDL
MODEL 4
REMARK VINA RESULT:      -8.5      0.706      1.681
REMARK  Name = 
REMARK  12 active torsions:
REMARK  status: ('A' for Active; 'I' for Inactive)
REMARK    1  A    between atoms: C_1  and  C_2
REMARK    2  A    between atoms: C_2  and  C_3
REMARK    3  A    between atoms: C_3  and  C_4
REMARK    4  A    between atoms: C_4  and  C_5
REMARK    5  A    between atoms: C_5  and  C_6
REMARK    6  A    between atoms: C_6  and  N_7
REMARK    7  A    between atoms: N_7  and  C_8
REMARK    8  A    between atoms: N_7  and  S_17
REMARK    9  A    between atoms: C_11  and  C_12
REMARK   10  A    between atoms: C_12  and  O_14
REMARK   11  A    between atoms: S_17  and  C_20
REMARK   12  A    between atoms: C_23  and  C_24
REMARK                            x       y       z     vdW  Elec       q    Type
REMARK                         _______ _______ _______ _____ _____    ______ ____
ROOT
ATOM      1  N   UNL     1       5.563   5.220  16.998  0.00  0.00    +0.000 N 
ENDROOT
BRANCH   1   2
ATOM      2  C   UNL     1       4.365   4.555  17.463  0.00  0.00    +0.000 A 
ATOM      3  C   UNL     1       3.390   5.329  18.101  0.00  0.00    +0.000 A 
ATOM      4  C   UNL     1       2.226   4.751  18.611  0.00  0.00    +0.000 A 
ATOM      5  C   UNL     1       1.972   3.391  18.433  0.00  0.00    +0.000 A 
ATOM      6  C   UNL     1       2.920   2.608  17.752  0.00  0.00    +0.000 A 
ATOM      7  C   UNL     1       4.138   3.183  17.321  0.00  0.00    +0.000 A 
BRANCH   5   8
ATOM      8  C   UNL     1       0.692   2.811  18.942  0.00  0.00    +0.000 C 
ATOM      9  O   UNL     1       0.085   1.935  18.387  0.00  0.00    +0.000 OA
BRANCH   8  10
ATOM     10  O   UNL     1       0.264   3.390  20.102  0.00  0.00    +0.000 OA
ATOM     11  H   UNL     1       0.269   4.363  20.128  0.00  0.00    +0.000 HD
ENDBRANCH   8  10
ENDBRANCH   5   8
ENDBRANCH   1   2
BRANCH   1  12
ATOM     12  S   UNL     1       7.043   5.006  17.845  0.00  0.00    +0.000 S 
ATOM     13  O   UNL     1       6.727   4.559  19.196  0.00  0.00    +0.000 OA
ATOM     14  O   UNL     1       7.953   4.248  17.019  0.00  0.00    +0.000 OA
BRANCH  12  15
ATOM     15  C   UNL     1       7.709   6.657  18.013  0.00  0.00    +0.000 A 
ATOM     16  C   UNL     1       8.499   6.975  19.114  0.00  0.00    +0.000 A 
ATOM     17  C   UNL     1       8.895   8.299  19.312  0.00  0.00    +0.000 A 
ATOM     18  C   UNL     1       8.524   9.318  18.414  0.00  0.00    +0.000 A 
ATOM     19  C   UNL     1       7.815   8.949  17.259  0.00  0.00    +0.000 A 
ATOM     20  C   UNL     1       7.435   7.620  17.039  0.00  0.00    +0.000 A 
BRANCH  18  21
ATOM     21  C   UNL     1       8.852  10.722  18.711  0.00  0.00    +0.000 A 
ATOM     22  C   UNL     1       9.417  11.076  19.952  0.00  0.00    +0.000 A 
ATOM     23  C   UNL     1       9.669  12.404  20.291  0.00  0.00    +0.000 A 
ATOM     24  C   UNL     1       9.374  13.413  19.382  0.00  0.00    +0.000 A 
ATOM     25  C   UNL     1       8.833  13.095  18.137  0.00  0.00    +0.000 A 
ATOM     26  C   UNL     1       8.573  11.764  17.807  0.00  0.00    +0.000 A 
ENDBRANCH  18  21
ENDBRANCH  12  15
ENDBRANCH   1  12
BRANCH   1  27
ATOM     27  C   UNL     1       5.681   5.656  15.588  0.00  0.00    +0.000 C 
BRANCH  27  28
ATOM     28  C   UNL     1       5.382   4.558  14.572  0.00  0.00    +0.000 C 
BRANCH  28  29
ATOM     29  C   UNL     1       6.607   3.926  13.909  0.00  0.00    +0.000 C 
BRANCH  29  30
ATOM     30  C   UNL     1       6.360   3.847  12.399  0.00  0.00    +0.000 C 
BRANCH  30  32
ATOM     31  C   UNL     1       4.200   3.244  11.285  0.00  0.00    +0.000 C 
ATOM     32  C   UNL     1       5.422   2.709  12.016  0.00  0.00    +0.000 C 
ENDBRANCH  30  32
ENDBRANCH  29  30
ENDBRANCH  28  29
ENDBRANCH  27  28
ENDBRANCH   1  27
TORSDOF 11
ENDMDL
MODEL 5
REMARK VINA RESULT:      -8.5      2.574      4.109
REMARK  Name = 
REMARK  12 active torsions:
REMARK  status: ('A' for Active; 'I' for Inactive)
REMARK    1  A    between atoms: C_1  and  C_2
REMARK    2  A    between atoms: C_2  and  C_3
REMARK    3  A    between atoms: C_3  and  C_4
REMARK    4  A    between atoms: C_4  and  C_5
REMARK    5  A    between atoms: C_5  and  C_6
REMARK    6  A    between atoms: C_6  and  N_7
REMARK    7  A    between atoms: N_7  and  C_8
REMARK    8  A    between atoms: N_7  and  S_17
REMARK    9  A    between atoms: C_11  and  C_12
REMARK   10  A    between atoms: C_12  and  O_14
REMARK   11  A    between atoms: S_17  and  C_20
REMARK   12  A    between atoms: C_23  and  C_24
REMARK                            x       y       z     vdW  Elec       q    Type
REMARK                         _______ _______ _______ _____ _____    ______ ____
ROOT
ATOM      1  N   UNL     1       4.455   5.017  17.426  0.00  0.00    +0.000 N 
ENDROOT
BRANCH   1   2
ATOM      2  C   UNL     1       3.670   5.882  18.280  0.00  0.00    +0.000 A 
ATOM      3  C   UNL     1       3.158   7.061  17.728  0.00  0.00    +0.000 A 
ATOM      4  C   UNL     1       2.424   7.963  18.501  0.00  0.00    +0.000 A 
ATOM      5  C   UNL     1       2.121   7.676  19.832  0.00  0.00    +0.000 A 
ATOM      6  C   UNL     1       2.589   6.473  20.388  0.00  0.00    +0.000 A 
ATOM      7  C   UNL     1       3.409   5.609  19.627  0.00  0.00    +0.000 A 
BRANCH   5   8
ATOM      8  C   UNL     1       1.289   8.636  20.618  0.00  0.00    +0.000 C 
ATOM      9  O   UNL     1       0.568   9.461  20.122  0.00  0.00    +0.000 OA
BRANCH   8  10
ATOM     10  O   UNL     1       1.440   8.498  21.968  0.00  0.00    +0.000 OA
ATOM     11  H   UNL     1       2.116   9.057  22.387  0.00  0.00    +0.000 HD
ENDBRANCH   8  10
ENDBRANCH   5   8
ENDBRANCH   1   2
BRANCH   1  12
ATOM     12  S   UNL     1       6.049   4.574  17.892  0.00  0.00    +0.000 S 
ATOM     13  O   UNL     1       5.994   4.072  19.260  0.00  0.00    +0.000 OA
ATOM     14  O   UNL     1       6.641   3.776  16.844  0.00  0.00    +0.000 OA
BRANCH  12  15
ATOM     15  C   UNL     1       6.943   6.121  17.967  0.00  0.00    +0.000 A 
ATOM     16  C   UNL     1       7.928   6.304  18.933  0.00  0.00    +0.000 A 
ATOM     17  C   UNL     1       8.520   7.560  19.077  0.00  0.00    +0.000 A 
ATOM     18  C   UNL     1       8.150   8.644  18.257  0.00  0.00    +0.000 A 
ATOM     19  C   UNL     1       7.228   8.402  17.226  0.00  0.00    +0.000 A 
ATOM     20  C   UNL     1       6.648   7.139  17.057  0.00  0.00    +0.000 A 
BRANCH  18  21
ATOM     21  C   UNL     1       8.700   9.985  18.512  0.00  0.00    +0.000 A 
ATOM     22  C   UNL     1       8.422  11.050  17.632  0.00  0.00    +0.000 A 
ATOM     23  C   UNL     1       8.989  12.311  17.806  0.00  0.00    +0.000 A 
ATOM     24  C   UNL     1       9.840  12.541  18.881  0.00  0.00    +0.000 A 
ATOM     25  C   UNL     1      10.120  11.514  19.780  0.00  0.00    +0.000 A 
ATOM     26  C   UNL     1       9.558  10.249  19.596  0.00  0.00    +0.000 A 
ENDBRANCH  18  21
ENDBRANCH  12  15
ENDBRANCH   1  12
BRANCH   1  27
ATOM     27  C   UNL     1       3.792   4.121  16.452  0.00  0.00    +0.000 C 
BRANCH  27  28
ATOM     28  C   UNL     1       2.672   3.275  17.050  0.00  0.00    +0.000 C 
BRANCH  28  29
ATOM     29  C   UNL     1       3.126   2.040  17.831  0.00  0.00    +0.000 C 
BRANCH  29  30
ATOM     30  C   UNL     1       2.165   1.822  19.003  0.00  0.00    +0.000 C 
BRANCH  30  32
ATOM     31  C   UNL     1       0.755   3.362  20.384  0.00  0.00    +0.000 C 
ATOM     32  C   UNL     1       0.994   2.796  18.993  0.00  0.00    +0.000 C 
ENDBRANCH  30  32
ENDBRANCH  29  30
ENDBRANCH  28  29
ENDBRANCH  27  28
ENDBRANCH   1  27
TORSDOF 11
ENDMDL
MODEL 6
REMARK VINA RESULT:      -8.5      4.451      7.358
REMARK  Name = 
REMARK  12 active torsions:
REMARK  status: ('A' for Active; 'I' for Inactive)
REMARK    1  A    between atoms: C_1  and  C_2
REMARK    2  A    between atoms: C_2  and  C_3
REMARK    3  A    between atoms: C_3  and  C_4
REMARK    4  A    between atoms: C_4  and  C_5
REMARK    5  A    between atoms: C_5  and  C_6
REMARK    6  A    between atoms: C_6  and  N_7
REMARK    7  A    between atoms: N_7  and  C_8
REMARK    8  A    between atoms: N_7  and  S_17
REMARK    9  A    between atoms: C_11  and  C_12
REMARK   10  A    between atoms: C_12  and  O_14
REMARK   11  A    between atoms: S_17  and  C_20
REMARK   12  A    between atoms: C_23  and  C_24
REMARK                            x       y       z     vdW  Elec       q    Type
REMARK                         _______ _______ _______ _____ _____    ______ ____
ROOT
ATOM      1  N   UNL     1       4.523   4.110  17.623  0.00  0.00    +0.000 N 
ENDROOT
BRANCH   1   2
ATOM      2  C   UNL     1       5.392   4.362  16.493  0.00  0.00    +0.000 A 
ATOM      3  C   UNL     1       4.808   4.462  15.226  0.00  0.00    +0.000 A 
ATOM      4  C   UNL     1       5.586   4.664  14.084  0.00  0.00    +0.000 A 
ATOM      5  C   UNL     1       6.966   4.844  14.188  0.00  0.00    +0.000 A 
ATOM      6  C   UNL     1       7.562   4.794  15.460  0.00  0.00    +0.000 A 
ATOM      7  C   UNL     1       6.780   4.495  16.599  0.00  0.00    +0.000 A 
BRANCH   5   8
ATOM      8  C   UNL     1       7.765   5.112  12.954  0.00  0.00    +0.000 C 
ATOM      9  O   UNL     1       7.525   4.625  11.881  0.00  0.00    +0.000 OA
BRANCH   8  10
ATOM     10  O   UNL     1       8.815   5.959  13.167  0.00  0.00    +0.000 OA
ATOM     11  H   UNL     1       9.616   5.796  12.639  0.00  0.00    +0.000 HD
ENDBRANCH   8  10
ENDBRANCH   5   8
ENDBRANCH   1   2
BRANCH   1  12
ATOM     12  S   UNL     1       4.725   5.010  19.072  0.00  0.00    +0.000 S 
ATOM     13  O   UNL     1       4.362   4.148  20.191  0.00  0.00    +0.000 OA
ATOM     14  O   UNL     1       6.011   5.667  19.044  0.00  0.00    +0.000 OA
BRANCH  12  15
ATOM     15  C   UNL     1       3.466   6.278  18.995  0.00  0.00    +0.000 A 
ATOM     16  C   UNL     1       3.400   7.121  17.890  0.00  0.00    +0.000 A 
ATOM     17  C   UNL     1       2.509   8.196  17.901  0.00  0.00    +0.000 A 
ATOM     18  C   UNL     1       1.666   8.438  19.003  0.00  0.00    +0.000 A 
ATOM     19  C   UNL     1       1.683   7.513  20.059  0.00  0.00    +0.000 A 
ATOM     20  C   UNL     1       2.554   6.417  20.045  0.00  0.00    +0.000 A 
BRANCH  18  21
ATOM     21  C   UNL     1       0.826   9.646  19.040  0.00  0.00    +0.000 A 
ATOM     22  C   UNL     1       0.991  10.599  20.065  0.00  0.00    +0.000 A 
ATOM     23  C   UNL     1       0.161  11.714  20.168  0.00  0.00    +0.000 A 
ATOM     24  C   UNL     1      -0.847  11.912  19.232  0.00  0.00    +0.000 A 
ATOM     25  C   UNL     1      -1.023  10.997  18.194  0.00  0.00    +0.000 A 
ATOM     26  C   UNL     1      -0.196   9.877  18.101  0.00  0.00    +0.000 A 
ENDBRANCH  18  21
ENDBRANCH  12  15
ENDBRANCH   1  12
BRANCH   1  27
ATOM     27  C   UNL     1       3.194   3.490  17.424  0.00  0.00    +0.000 C 
BRANCH  27  28
ATOM     28  C   UNL     1       3.089   2.064  17.955  0.00  0.00    +0.000 C 
BRANCH  28  29
ATOM     29  C   UNL     1       1.915   1.798  18.899  0.00  0.00    +0.000 C 
BRANCH  29  30
ATOM     30  C   UNL     1       1.187   3.120  19.158  0.00  0.00    +0.000 C 
BRANCH  30  32
ATOM     31  C   UNL     1       1.758   2.658  21.552  0.00  0.00    +0.000 C 
ATOM     32  C   UNL     1       0.734   3.267  20.606  0.00  0.00    +0.000 C 
ENDBRANCH  30  32
ENDBRANCH  29  30
ENDBRANCH  28  29
ENDBRANCH  27  28
ENDBRANCH   1  27
TORSDOF 11
ENDMDL
MODEL 7
REMARK VINA RESULT:      -8.4      0.723      1.356
REMARK  Name = 
REMARK  12 active torsions:
REMARK  status: ('A' for Active; 'I' for Inactive)
REMARK    1  A    between atoms: C_1  and  C_2
REMARK    2  A    between atoms: C_2  and  C_3
REMARK    3  A    between atoms: C_3  and  C_4
REMARK    4  A    between atoms: C_4  and  C_5
REMARK    5  A    between atoms: C_5  and  C_6
REMARK    6  A    between atoms: C_6  and  N_7
REMARK    7  A    between atoms: N_7  and  C_8
REMARK    8  A    between atoms: N_7  and  S_17
REMARK    9  A    between atoms: C_11  and  C_12
REMARK   10  A    between atoms: C_12  and  O_14
REMARK   11  A    between atoms: S_17  and  C_20
REMARK   12  A    between atoms: C_23  and  C_24
REMARK                            x       y       z     vdW  Elec       q    Type
REMARK                         _______ _______ _______ _____ _____    ______ ____
ROOT
ATOM      1  N   UNL     1       5.515   5.052  16.554  0.00  0.00    +0.000 N 
ENDROOT
BRANCH   1   2
ATOM      2  C   UNL     1       4.336   4.505  17.190  0.00  0.00    +0.000 A 
ATOM      3  C   UNL     1       3.576   5.352  18.003  0.00  0.00    +0.000 A 
ATOM      4  C   UNL     1       2.448   4.886  18.681  0.00  0.00    +0.000 A 
ATOM      5  C   UNL     1       2.007   3.573  18.507  0.00  0.00    +0.000 A 
ATOM      6  C   UNL     1       2.734   2.722  17.656  0.00  0.00    +0.000 A 
ATOM      7  C   UNL     1       3.927   3.176  17.048  0.00  0.00    +0.000 A 
BRANCH   5   8
ATOM      8  C   UNL     1       0.766   3.118  19.204  0.00  0.00    +0.000 C 
ATOM      9  O   UNL     1       0.100   2.184  18.845  0.00  0.00    +0.000 OA
BRANCH   8  10
ATOM     10  O   UNL     1       0.447   3.883  20.288  0.00  0.00    +0.000 OA
ATOM     11  H   UNL     1       1.160   4.434  20.655  0.00  0.00    +0.000 HD
ENDBRANCH   8  10
ENDBRANCH   5   8
ENDBRANCH   1   2
BRANCH   1  12
ATOM     12  S   UNL     1       7.049   4.884  17.308  0.00  0.00    +0.000 S 
ATOM     13  O   UNL     1       6.863   4.127  18.541  0.00  0.00    +0.000 OA
ATOM     14  O   UNL     1       8.013   4.451  16.324  0.00  0.00    +0.000 OA
BRANCH  12  15
ATOM     15  C   UNL     1       7.491   6.543  17.807  0.00  0.00    +0.000 A 
ATOM     16  C   UNL     1       7.031   7.632  17.073  0.00  0.00    +0.000 A 
ATOM     17  C   UNL     1       7.495   8.912  17.383  0.00  0.00    +0.000 A 
ATOM     18  C   UNL     1       8.410   9.126  18.432  0.00  0.00    +0.000 A 
ATOM     19  C   UNL     1       8.776   8.023  19.219  0.00  0.00    +0.000 A 
ATOM     20  C   UNL     1       8.296   6.739  18.932  0.00  0.00    +0.000 A 
BRANCH  18  21
ATOM     21  C   UNL     1       8.975  10.466  18.658  0.00  0.00    +0.000 A 
ATOM     22  C   UNL     1       8.672  11.526  17.781  0.00  0.00    +0.000 A 
ATOM     23  C   UNL     1       9.252  12.785  17.926  0.00  0.00    +0.000 A 
ATOM     24  C   UNL     1      10.140  13.018  18.969  0.00  0.00    +0.000 A 
ATOM     25  C   UNL     1      10.446  11.995  19.865  0.00  0.00    +0.000 A 
ATOM     26  C   UNL     1       9.871  10.733  19.710  0.00  0.00    +0.000 A 
ENDBRANCH  18  21
ENDBRANCH  12  15
ENDBRANCH   1  12
BRANCH   1  27
ATOM     27  C   UNL     1       5.533   5.298  15.094  0.00  0.00    +0.000 C 
BRANCH  27  28
ATOM     28  C   UNL     1       5.551   4.027  14.251  0.00  0.00    +0.000 C 
BRANCH  28  29
ATOM     29  C   UNL     1       4.826   4.120  12.906  0.00  0.00    +0.000 C 
BRANCH  29  30
ATOM     30  C   UNL     1       5.409   3.065  11.962  0.00  0.00    +0.000 C 
BRANCH  30  32
ATOM     31  C   UNL     1       7.481   1.987  11.060  0.00  0.00    +0.000 C 
ATOM     32  C   UNL     1       6.919   3.193  11.798  0.00  0.00    +0.000 C 
ENDBRANCH  30  32
ENDBRANCH  29  30
ENDBRANCH  28  29
ENDBRANCH  27  28
ENDBRANCH   1  27
TORSDOF 11
ENDMDL
MODEL 8
REMARK VINA RESULT:      -8.3      4.326      7.292
REMARK  Name = 
REMARK  12 active torsions:
REMARK  status: ('A' for Active; 'I' for Inactive)
REMARK    1  A    between atoms: C_1  and  C_2
REMARK    2  A    between atoms: C_2  and  C_3
REMARK    3  A    between atoms: C_3  and  C_4
REMARK    4  A    between atoms: C_4  and  C_5
REMARK    5  A    between atoms: C_5  and  C_6
REMARK    6  A    between atoms: C_6  and  N_7
REMARK    7  A    between atoms: N_7  and  C_8
REMARK    8  A    between atoms: N_7  and  S_17
REMARK    9  A    between atoms: C_11  and  C_12
REMARK   10  A    between atoms: C_12  and  O_14
REMARK   11  A    between atoms: S_17  and  C_20
REMARK   12  A    between atoms: C_23  and  C_24
REMARK                            x       y       z     vdW  Elec       q    Type
REMARK                         _______ _______ _______ _____ _____    ______ ____
ROOT
ATOM      1  N   UNL     1       4.832   3.402  17.439  0.00  0.00    +0.000 N 
ENDROOT
BRANCH   1   2
ATOM      2  C   UNL     1       5.517   3.833  16.240  0.00  0.00    +0.000 A 
ATOM      3  C   UNL     1       6.752   4.475  16.384  0.00  0.00    +0.000 A 
ATOM      4  C   UNL     1       7.453   4.954  15.275  0.00  0.00    +0.000 A 
ATOM      5  C   UNL     1       6.971   4.740  13.984  0.00  0.00    +0.000 A 
ATOM      6  C   UNL     1       5.754   4.055  13.820  0.00  0.00    +0.000 A 
ATOM      7  C   UNL     1       5.006   3.656  14.951  0.00  0.00    +0.000 A 
BRANCH   5   8
ATOM      8  C   UNL     1       7.769   5.217  12.815  0.00  0.00    +0.000 C 
ATOM      9  O   UNL     1       7.524   4.931  11.673  0.00  0.00    +0.000 OA
BRANCH   8  10
ATOM     10  O   UNL     1       8.827   6.004  13.171  0.00  0.00    +0.000 OA
ATOM     11  H   UNL     1       9.303   6.445  12.446  0.00  0.00    +0.000 HD
ENDBRANCH   8  10
ENDBRANCH   5   8
ENDBRANCH   1   2
BRANCH   1  12
ATOM     12  S   UNL     1       5.225   4.116  18.951  0.00  0.00    +0.000 S 
ATOM     13  O   UNL     1       4.773   3.215  20.005  0.00  0.00    +0.000 OA
ATOM     14  O   UNL     1       6.596   4.568  18.917  0.00  0.00    +0.000 OA
BRANCH  12  15
ATOM     15  C   UNL     1       4.178   5.562  19.053  0.00  0.00    +0.000 A 
ATOM     16  C   UNL     1       3.322   5.721  20.139  0.00  0.00    +0.000 A 
ATOM     17  C   UNL     1       2.408   6.776  20.140  0.00  0.00    +0.000 A 
ATOM     18  C   UNL     1       2.341   7.691  19.072  0.00  0.00    +0.000 A 
ATOM     19  C   UNL     1       3.285   7.565  18.040  0.00  0.00    +0.000 A 
ATOM     20  C   UNL     1       4.223   6.525  18.042  0.00  0.00    +0.000 A 
BRANCH  18  21
ATOM     21  C   UNL     1       1.288   8.718  19.043  0.00  0.00    +0.000 A 
ATOM     22  C   UNL     1       0.661   9.133  20.234  0.00  0.00    +0.000 A 
ATOM     23  C   UNL     1      -0.391  10.048  20.229  0.00  0.00    +0.000 A 
ATOM     24  C   UNL     1      -0.829  10.586  19.025  0.00  0.00    +0.000 A 
ATOM     25  C   UNL     1      -0.216  10.211  17.830  0.00  0.00    +0.000 A 
ATOM     26  C   UNL     1       0.829   9.286  17.839  0.00  0.00    +0.000 A 
ENDBRANCH  18  21
ENDBRANCH  12  15
ENDBRANCH   1  12
BRANCH   1  27
ATOM     27  C   UNL     1       3.503   2.756  17.353  0.00  0.00    +0.000 C 
BRANCH  27  28
ATOM     28  C   UNL     1       2.377   3.704  16.951  0.00  0.00    +0.000 C 
BRANCH  28  29
ATOM     29  C   UNL     1       1.237   3.836  17.962  0.00  0.00    +0.000 C 
BRANCH  29  30
ATOM     30  C   UNL     1       1.425   2.777  19.053  0.00  0.00    +0.000 C 
BRANCH  30  32
ATOM     31  C   UNL     1       1.601   2.642  21.547  0.00  0.00    +0.000 C 
ATOM     32  C   UNL     1       0.789   3.180  20.378  0.00  0.00    +0.000 C 
ENDBRANCH  30  32
ENDBRANCH  29  30
ENDBRANCH  28  29
ENDBRANCH  27  28
ENDBRANCH   1  27
TORSDOF 11
ENDMDL
MODEL 9
REMARK VINA RESULT:      -8.3      4.595      7.403
REMARK  Name = 
REMARK  12 active torsions:
REMARK  status: ('A' for Active; 'I' for Inactive)
REMARK    1  A    between atoms: C_1  and  C_2
REMARK    2  A    between atoms: C_2  and  C_3
REMARK    3  A    between atoms: C_3  and  C_4
REMARK    4  A    between atoms: C_4  and  C_5
REMARK    5  A    between atoms: C_5  and  C_6
REMARK    6  A    between atoms: C_6  and  N_7
REMARK    7  A    between atoms: N_7  and  C_8
REMARK    8  A    between atoms: N_7  and  S_17
REMARK    9  A    between atoms: C_11  and  C_12
REMARK   10  A    between atoms: C_12  and  O_14
REMARK   11  A    between atoms: S_17  and  C_20
REMARK   12  A    between atoms: C_23  and  C_24
REMARK                            x       y       z     vdW  Elec       q    Type
REMARK                         _______ _______ _______ _____ _____    ______ ____
ROOT
ATOM      1  N   UNL     1       4.009   4.500  17.596  0.00  0.00    +0.000 N 
ENDROOT
BRANCH   1   2
ATOM      2  C   UNL     1       4.912   4.578  16.468  0.00  0.00    +0.000 A 
ATOM      3  C   UNL     1       5.099   5.824  15.861  0.00  0.00    +0.000 A 
ATOM      4  C   UNL     1       5.925   5.970  14.745  0.00  0.00    +0.000 A 
ATOM      5  C   UNL     1       6.644   4.883  14.247  0.00  0.00    +0.000 A 
ATOM      6  C   UNL     1       6.504   3.633  14.875  0.00  0.00    +0.000 A 
ATOM      7  C   UNL     1       5.594   3.475  15.946  0.00  0.00    +0.000 A 
BRANCH   5   8
ATOM      8  C   UNL     1       7.561   5.081  13.085  0.00  0.00    +0.000 C 
ATOM      9  O   UNL     1       7.396   4.575  12.007  0.00  0.00    +0.000 OA
BRANCH   8  10
ATOM     10  O   UNL     1       8.626   5.886  13.371  0.00  0.00    +0.000 OA
ATOM     11  H   UNL     1       9.065   6.310  12.613  0.00  0.00    +0.000 HD
ENDBRANCH   8  10
ENDBRANCH   5   8
ENDBRANCH   1   2
BRANCH   1  12
ATOM     12  S   UNL     1       4.342   5.399  19.021  0.00  0.00    +0.000 S 
ATOM     13  O   UNL     1       4.053   4.546  20.168  0.00  0.00    +0.000 OA
ATOM     14  O   UNL     1       5.634   6.030  18.889  0.00  0.00    +0.000 OA
BRANCH  12  15
ATOM     15  C   UNL     1       3.106   6.691  19.041  0.00  0.00    +0.000 A 
ATOM     16  C   UNL     1       2.955   7.521  17.934  0.00  0.00    +0.000 A 
ATOM     17  C   UNL     1       2.090   8.613  18.011  0.00  0.00    +0.000 A 
ATOM     18  C   UNL     1       1.355   8.887  19.181  0.00  0.00    +0.000 A 
ATOM     19  C   UNL     1       1.451   7.975  20.244  0.00  0.00    +0.000 A 
ATOM     20  C   UNL     1       2.297   6.861  20.167  0.00  0.00    +0.000 A 
BRANCH  18  21
ATOM     21  C   UNL     1       0.546  10.112  19.277  0.00  0.00    +0.000 A 
ATOM     22  C   UNL     1      -0.466  10.375  18.332  0.00  0.00    +0.000 A 
ATOM     23  C   UNL     1      -1.197  11.562  18.354  0.00  0.00    +0.000 A 
ATOM     24  C   UNL     1      -0.943  12.510  19.337  0.00  0.00    +0.000 A 
ATOM     25  C   UNL     1       0.039  12.271  20.298  0.00  0.00    +0.000 A 
ATOM     26  C   UNL     1       0.776  11.086  20.267  0.00  0.00    +0.000 A 
ENDBRANCH  18  21
ENDBRANCH  12  15
ENDBRANCH   1  12
BRANCH   1  27
ATOM     27  C   UNL     1       2.598   4.093  17.401  0.00  0.00    +0.000 C 
BRANCH  27  28
ATOM     28  C   UNL     1       2.371   2.587  17.480  0.00  0.00    +0.000 C 
BRANCH  28  29
ATOM     29  C   UNL     1       2.046   2.044  18.873  0.00  0.00    +0.000 C 
BRANCH  29  30
ATOM     30  C   UNL     1       0.742   2.685  19.356  0.00  0.00    +0.000 C 
BRANCH  30  32
ATOM     31  C   UNL     1       1.549   2.698  21.726  0.00  0.00    +0.000 C 
ATOM     32  C   UNL     1       0.931   3.528  20.611  0.00  0.00    +0.000 C 
ENDBRANCH  30  32
ENDBRANCH  29  30
ENDBRANCH  28  29
ENDBRANCH  27  28
ENDBRANCH   1  27
TORSDOF 11
ENDMDL
