MODEL 1
REMARK VINA RESULT:      -7.5      0.000      0.000
REMARK  Name = 
REMARK  5 active torsions:
REMARK  status: ('A' for Active; 'I' for Inactive)
REMARK    1  A    between atoms: C_1  and  C_2
REMARK    2  A    between atoms: C_6  and  C_7
REMARK    3  A    between atoms: C_13  and  C_14
REMARK    4  A    between atoms: N_15  and  N_16
REMARK    5  A    between atoms: C_21  and  C_22
REMARK                            x       y       z     vdW  Elec       q    Type
REMARK                         _______ _______ _______ _____ _____    ______ ____
ROOT
ATOM      1  C   UNL     1       6.193   3.899  15.766  0.00  0.00    +0.000 C 
ATOM      2  C   UNL     1       5.236   4.796  16.484  0.00  0.00    +0.000 A 
ATOM      3  S   UNL     1       5.175   6.505  16.053  0.00  0.00    +0.000 S 
ATOM      4  C   UNL     1       3.969   6.727  17.270  0.00  0.00    +0.000 A 
ATOM      5  N   UNL     1       3.385   7.795  17.713  0.00  0.00    +0.000 NA
ATOM      6  C   UNL     1       2.582   7.320  18.722  0.00  0.00    +0.000 A 
ATOM      7  C   UNL     1       2.705   5.932  18.888  0.00  0.00    +0.000 A 
ATOM      8  N   UNL     1       3.643   5.567  17.926  0.00  0.00    +0.000 N 
ATOM      9  C   UNL     1       4.376   4.459  17.480  0.00  0.00    +0.000 A 
ATOM     10  C   UNL     1       4.287   3.077  18.029  0.00  0.00    +0.000 C 
ENDROOT
BRANCH   6  11
ATOM     11  C   UNL     1       1.780   8.261  19.492  0.00  0.00    +0.000 A 
ATOM     12  C   UNL     1       1.482   8.086  20.843  0.00  0.00    +0.000 A 
ATOM     13  C   UNL     1       0.697   9.043  21.469  0.00  0.00    +0.000 A 
ATOM     14  N   UNL     1       0.192  10.132  20.850  0.00  0.00    +0.000 NA
ATOM     15  C   UNL     1       0.459  10.260  19.535  0.00  0.00    +0.000 A 
ATOM     16  C   UNL     1       1.236   9.363  18.824  0.00  0.00    +0.000 A 
ENDBRANCH   6  11
BRANCH   7  17
ATOM     17  C   UNL     1       2.050   5.126  19.881  0.00  0.00    +0.000 C 
ATOM     18  N   UNL     1       1.446   4.016  19.605  0.00  0.00    +0.000 NA
BRANCH  18  19
ATOM     19  N   UNL     1       0.842   3.402  20.672  0.00  0.00    +0.000 N 
ATOM     20  C   UNL     1       1.538   2.771  21.661  0.00  0.00    +0.000 C 
ATOM     21  N   UNL     1       2.818   2.638  21.678  0.00  0.00    +0.000 NA
ATOM     22  N   UNL     1       0.791   2.276  22.670  0.00  0.00    +0.000 N 
ATOM     23  H   UNL     1      -0.107   3.656  20.941  0.00  0.00    +0.000 HD
ATOM     24  H   UNL     1       3.130   3.099  20.813  0.00  0.00    +0.000 HD
ATOM     25  H   UNL     1       0.022   1.693  22.363  0.00  0.00    +0.000 HD
ATOM     26  H   UNL     1       1.399   1.738  23.285  0.00  0.00    +0.000 HD
ENDBRANCH  18  19
ENDBRANCH   7  17
TORSDOF 3
ENDMDL
MODEL 2
REMARK VINA RESULT:      -7.5      1.884      5.409
REMARK  Name = 
REMARK  5 active torsions:
REMARK  status: ('A' for Active; 'I' for Inactive)
REMARK    1  A    between atoms: C_1  and  C_2
REMARK    2  A    between atoms: C_6  and  C_7
REMARK    3  A    between atoms: C_13  and  C_14
REMARK    4  A    between atoms: N_15  and  N_16
REMARK    5  A    between atoms: C_21  and  C_22
REMARK                            x       y       z     vdW  Elec       q    Type
REMARK                         _______ _______ _______ _____ _____    ______ ____
ROOT
ATOM      1  C   UNL     1      -0.587  11.148  20.454  0.00  0.00    +0.000 C 
ATOM      2  C   UNL     1       0.375  10.181  19.842  0.00  0.00    +0.000 A 
ATOM      3  S   UNL     1       1.062  10.541  18.257  0.00  0.00    +0.000 S 
ATOM      4  C   UNL     1       1.918   9.043  18.333  0.00  0.00    +0.000 A 
ATOM      5  N   UNL     1       2.662   8.436  17.464  0.00  0.00    +0.000 NA
ATOM      6  C   UNL     1       2.991   7.261  18.095  0.00  0.00    +0.000 A 
ATOM      7  C   UNL     1       2.414   7.166  19.371  0.00  0.00    +0.000 A 
ATOM      8  N   UNL     1       1.694   8.351  19.497  0.00  0.00    +0.000 N 
ATOM      9  C   UNL     1       0.801   9.001  20.360  0.00  0.00    +0.000 A 
ATOM     10  C   UNL     1       0.321   8.480  21.670  0.00  0.00    +0.000 C 
ENDROOT
BRANCH   6  11
ATOM     11  C   UNL     1       3.812   6.285  17.393  0.00  0.00    +0.000 A 
ATOM     12  C   UNL     1       4.908   6.633  16.604  0.00  0.00    +0.000 A 
ATOM     13  C   UNL     1       5.609   5.616  15.972  0.00  0.00    +0.000 A 
ATOM     14  N   UNL     1       5.290   4.308  16.061  0.00  0.00    +0.000 NA
ATOM     15  C   UNL     1       4.202   3.997  16.795  0.00  0.00    +0.000 A 
ATOM     16  C   UNL     1       3.444   4.937  17.468  0.00  0.00    +0.000 A 
ENDBRANCH   6  11
BRANCH   7  17
ATOM     17  C   UNL     1       2.512   6.053  20.275  0.00  0.00    +0.000 C 
ATOM     18  N   UNL     1       1.574   5.175  20.421  0.00  0.00    +0.000 NA
BRANCH  18  19
ATOM     19  N   UNL     1       1.824   4.206  21.358  0.00  0.00    +0.000 N 
ATOM     20  C   UNL     1       2.024   2.895  21.038  0.00  0.00    +0.000 C 
ATOM     21  N   UNL     1       1.949   2.418  19.845  0.00  0.00    +0.000 NA
ATOM     22  N   UNL     1       2.323   2.084  22.075  0.00  0.00    +0.000 N 
ATOM     23  H   UNL     1       2.184   4.459  22.277  0.00  0.00    +0.000 HD
ATOM     24  H   UNL     1       1.717   3.234  19.262  0.00  0.00    +0.000 HD
ATOM     25  H   UNL     1       1.676   2.156  22.851  0.00  0.00    +0.000 HD
ATOM     26  H   UNL     1       2.340   1.124  21.737  0.00  0.00    +0.000 HD
ENDBRANCH  18  19
ENDBRANCH   7  17
TORSDOF 3
ENDMDL
MODEL 3
REMARK VINA RESULT:      -7.4      2.534      6.682
REMARK  Name = 
REMARK  5 active torsions:
REMARK  status: ('A' for Active; 'I' for Inactive)
REMARK    1  A    between atoms: C_1  and  C_2
REMARK    2  A    between atoms: C_6  and  C_7
REMARK    3  A    between atoms: C_13  and  C_14
REMARK    4  A    between atoms: N_15  and  N_16
REMARK    5  A    between atoms: C_21  and  C_22
REMARK                            x       y       z     vdW  Elec       q    Type
REMARK                         _______ _______ _______ _____ _____    ______ ____
ROOT
ATOM      1  C   UNL     1       1.249   2.690  21.605  0.00  0.00    +0.000 C 
ATOM      2  C   UNL     1       2.084   3.073  20.425  0.00  0.00    +0.000 A 
ATOM      3  S   UNL     1       2.893   1.808  19.499  0.00  0.00    +0.000 S 
ATOM      4  C   UNL     1       3.564   3.034  18.486  0.00  0.00    +0.000 A 
ATOM      5  N   UNL     1       4.421   2.971  17.516  0.00  0.00    +0.000 NA
ATOM      6  C   UNL     1       4.597   4.288  17.164  0.00  0.00    +0.000 A 
ATOM      7  C   UNL     1       3.831   5.155  17.958  0.00  0.00    +0.000 A 
ATOM      8  N   UNL     1       3.170   4.301  18.837  0.00  0.00    +0.000 N 
ATOM      9  C   UNL     1       2.326   4.324  19.955  0.00  0.00    +0.000 A 
ATOM     10  C   UNL     1       1.776   5.545  20.607  0.00  0.00    +0.000 C 
ENDROOT
BRANCH   6  11
ATOM     11  C   UNL     1       5.539   4.617  16.103  0.00  0.00    +0.000 A 
ATOM     12  C   UNL     1       5.332   4.284  14.765  0.00  0.00    +0.000 A 
ATOM     13  C   UNL     1       6.306   4.640  13.844  0.00  0.00    +0.000 A 
ATOM     14  N   UNL     1       7.451   5.280  14.162  0.00  0.00    +0.000 NA
ATOM     15  C   UNL     1       7.650   5.556  15.466  0.00  0.00    +0.000 A 
ATOM     16  C   UNL     1       6.736   5.248  16.458  0.00  0.00    +0.000 A 
ENDBRANCH   6  11
BRANCH   7  17
ATOM     17  C   UNL     1       3.817   6.591  17.891  0.00  0.00    +0.000 C 
ATOM     18  N   UNL     1       2.728   7.288  17.872  0.00  0.00    +0.000 NA
BRANCH  18  19
ATOM     19  N   UNL     1       2.906   8.643  17.765  0.00  0.00    +0.000 N 
ATOM     20  C   UNL     1       1.879   9.537  17.844  0.00  0.00    +0.000 C 
ATOM     21  N   UNL     1       0.640   9.213  17.971  0.00  0.00    +0.000 NA
ATOM     22  N   UNL     1       2.236  10.837  17.783  0.00  0.00    +0.000 N 
ATOM     23  H   UNL     1       3.820   9.057  17.943  0.00  0.00    +0.000 HD
ATOM     24  H   UNL     1       0.651   8.184  17.993  0.00  0.00    +0.000 HD
ATOM     25  H   UNL     1       2.832  11.063  16.996  0.00  0.00    +0.000 HD
ATOM     26  H   UNL     1       1.390  11.401  17.740  0.00  0.00    +0.000 HD
ENDBRANCH  18  19
ENDBRANCH   7  17
TORSDOF 3
ENDMDL
MODEL 4
REMARK VINA RESULT:      -7.4      1.847      5.350
REMARK  Name = 
REMARK  5 active torsions:
REMARK  status: ('A' for Active; 'I' for Inactive)
REMARK    1  A    between atoms: C_1  and  C_2
REMARK    2  A    between atoms: C_6  and  C_7
REMARK    3  A    between atoms: C_13  and  C_14
REMARK    4  A    between atoms: N_15  and  N_16
REMARK    5  A    between atoms: C_21  and  C_22
REMARK                            x       y       z     vdW  Elec       q    Type
REMARK                         _______ _______ _______ _____ _____    ______ ____
ROOT
ATOM      1  C   UNL     1      -0.429  11.182  19.988  0.00  0.00    +0.000 C 
ATOM      2  C   UNL     1       0.560  10.190  19.464  0.00  0.00    +0.000 A 
ATOM      3  S   UNL     1       1.336  10.493  17.909  0.00  0.00    +0.000 S 
ATOM      4  C   UNL     1       2.177   8.995  18.083  0.00  0.00    +0.000 A 
ATOM      5  N   UNL     1       2.965   8.356  17.277  0.00  0.00    +0.000 NA
ATOM      6  C   UNL     1       3.251   7.201  17.965  0.00  0.00    +0.000 A 
ATOM      7  C   UNL     1       2.603   7.151  19.209  0.00  0.00    +0.000 A 
ATOM      8  N   UNL     1       1.884   8.343  19.254  0.00  0.00    +0.000 N 
ATOM      9  C   UNL     1       0.949   9.026  20.044  0.00  0.00    +0.000 A 
ATOM     10  C   UNL     1       0.393   8.552  21.342  0.00  0.00    +0.000 C 
ENDROOT
BRANCH   6  11
ATOM     11  C   UNL     1       4.103   6.198  17.342  0.00  0.00    +0.000 A 
ATOM     12  C   UNL     1       3.766   4.847  17.269  0.00  0.00    +0.000 A 
ATOM     13  C   UNL     1       4.664   3.980  16.662  0.00  0.00    +0.000 A 
ATOM     14  N   UNL     1       5.852   4.360  16.146  0.00  0.00    +0.000 NA
ATOM     15  C   UNL     1       6.176   5.664  16.264  0.00  0.00    +0.000 A 
ATOM     16  C   UNL     1       5.346   6.605  16.846  0.00  0.00    +0.000 A 
ENDBRANCH   6  11
BRANCH   7  17
ATOM     17  C   UNL     1       2.643   6.070  20.154  0.00  0.00    +0.000 C 
ATOM     18  N   UNL     1       1.650   5.266  20.353  0.00  0.00    +0.000 NA
BRANCH  18  19
ATOM     19  N   UNL     1       1.853   4.317  21.322  0.00  0.00    +0.000 N 
ATOM     20  C   UNL     1       1.666   2.983  21.108  0.00  0.00    +0.000 C 
ATOM     21  N   UNL     1       1.233   2.476  20.007  0.00  0.00    +0.000 NA
ATOM     22  N   UNL     1       1.973   2.181  22.149  0.00  0.00    +0.000 N 
ATOM     23  H   UNL     1       2.446   4.521  22.125  0.00  0.00    +0.000 HD
ATOM     24  H   UNL     1       1.085   3.291  19.397  0.00  0.00    +0.000 HD
ATOM     25  H   UNL     1       1.538   2.456  23.021  0.00  0.00    +0.000 HD
ATOM     26  H   UNL     1       1.693   1.231  21.916  0.00  0.00    +0.000 HD
ENDBRANCH  18  19
ENDBRANCH   7  17
TORSDOF 3
ENDMDL
MODEL 5
REMARK VINA RESULT:      -7.4      0.159      1.012
REMARK  Name = 
REMARK  5 active torsions:
REMARK  status: ('A' for Active; 'I' for Inactive)
REMARK    1  A    between atoms: C_1  and  C_2
REMARK    2  A    between atoms: C_6  and  C_7
REMARK    3  A    between atoms: C_13  and  C_14
REMARK    4  A    between atoms: N_15  and  N_16
REMARK    5  A    between atoms: C_21  and  C_22
REMARK                            x       y       z     vdW  Elec       q    Type
REMARK                         _______ _______ _______ _____ _____    ______ ____
ROOT
ATOM      1  C   UNL     1       6.305   4.025  15.980  0.00  0.00    +0.000 C 
ATOM      2  C   UNL     1       5.298   4.903  16.654  0.00  0.00    +0.000 A 
ATOM      3  S   UNL     1       5.203   6.605  16.198  0.00  0.00    +0.000 S 
ATOM      4  C   UNL     1       3.950   6.806  17.370  0.00  0.00    +0.000 A 
ATOM      5  N   UNL     1       3.321   7.862  17.779  0.00  0.00    +0.000 NA
ATOM      6  C   UNL     1       2.498   7.376  18.767  0.00  0.00    +0.000 A 
ATOM      7  C   UNL     1       2.656   5.994  18.955  0.00  0.00    +0.000 A 
ATOM      8  N   UNL     1       3.636   5.645  18.030  0.00  0.00    +0.000 N 
ATOM      9  C   UNL     1       4.416   4.553  17.624  0.00  0.00    +0.000 A 
ATOM     10  C   UNL     1       4.348   3.176  18.188  0.00  0.00    +0.000 C 
ENDROOT
BRANCH   6  11
ATOM     11  C   UNL     1       1.643   8.302  19.496  0.00  0.00    +0.000 A 
ATOM     12  C   UNL     1       1.016   9.396  18.899  0.00  0.00    +0.000 A 
ATOM     13  C   UNL     1       0.234  10.218  19.698  0.00  0.00    +0.000 A 
ATOM     14  N   UNL     1       0.050  10.033  21.022  0.00  0.00    +0.000 NA
ATOM     15  C   UNL     1       0.698   8.995  21.586  0.00  0.00    +0.000 A 
ATOM     16  C   UNL     1       1.494   8.116  20.874  0.00  0.00    +0.000 A 
ENDBRANCH   6  11
BRANCH   7  17
ATOM     17  C   UNL     1       1.990   5.181  19.935  0.00  0.00    +0.000 C 
ATOM     18  N   UNL     1       1.494   4.017  19.671  0.00  0.00    +0.000 NA
BRANCH  18  19
ATOM     19  N   UNL     1       0.859   3.402  20.719  0.00  0.00    +0.000 N 
ATOM     20  C   UNL     1       1.526   2.745  21.712  0.00  0.00    +0.000 C 
ATOM     21  N   UNL     1       2.802   2.584  21.747  0.00  0.00    +0.000 NA
ATOM     22  N   UNL     1       0.752   2.253  22.702  0.00  0.00    +0.000 N 
ATOM     23  H   UNL     1      -0.088   3.674  20.976  0.00  0.00    +0.000 HD
ATOM     24  H   UNL     1       3.138   3.049  20.893  0.00  0.00    +0.000 HD
ATOM     25  H   UNL     1      -0.024   1.690  22.375  0.00  0.00    +0.000 HD
ATOM     26  H   UNL     1       1.338   1.695  23.320  0.00  0.00    +0.000 HD
ENDBRANCH  18  19
ENDBRANCH   7  17
TORSDOF 3
ENDMDL
MODEL 6
REMARK VINA RESULT:      -7.3      2.366      6.423
REMARK  Name = 
REMARK  5 active torsions:
REMARK  status: ('A' for Active; 'I' for Inactive)
REMARK    1  A    between atoms: C_1  and  C_2
REMARK    2  A    between atoms: C_6  and  C_7
REMARK    3  A    between atoms: C_13  and  C_14
REMARK    4  A    between atoms: N_15  and  N_16
REMARK    5  A    between atoms: C_21  and  C_22
REMARK                            x       y       z     vdW  Elec       q    Type
REMARK                         _______ _______ _______ _____ _____    ______ ____
ROOT
ATOM      1  C   UNL     1       1.446   2.529  22.285  0.00  0.00    +0.000 C 
ATOM      2  C   UNL     1       2.317   2.954  21.146  0.00  0.00    +0.000 A 
ATOM      3  S   UNL     1       3.769   2.020  20.783  0.00  0.00    +0.000 S 
ATOM      4  C   UNL     1       4.113   3.129  19.505  0.00  0.00    +0.000 A 
ATOM      5  N   UNL     1       5.132   3.233  18.711  0.00  0.00    +0.000 NA
ATOM      6  C   UNL     1       4.841   4.353  17.969  0.00  0.00    +0.000 A 
ATOM      7  C   UNL     1       3.619   4.934  18.344  0.00  0.00    +0.000 A 
ATOM      8  N   UNL     1       3.167   4.115  19.375  0.00  0.00    +0.000 N 
ATOM      9  C   UNL     1       2.140   4.018  20.322  0.00  0.00    +0.000 A 
ATOM     10  C   UNL     1       1.000   4.966  20.472  0.00  0.00    +0.000 C 
ENDROOT
BRANCH   6  11
ATOM     11  C   UNL     1       5.798   4.809  16.971  0.00  0.00    +0.000 A 
ATOM     12  C   UNL     1       6.605   5.934  17.143  0.00  0.00    +0.000 A 
ATOM     13  C   UNL     1       7.472   6.280  16.117  0.00  0.00    +0.000 A 
ATOM     14  N   UNL     1       7.577   5.604  14.953  0.00  0.00    +0.000 NA
ATOM     15  C   UNL     1       6.758   4.545  14.791  0.00  0.00    +0.000 A 
ATOM     16  C   UNL     1       5.866   4.117  15.757  0.00  0.00    +0.000 A 
ENDBRANCH   6  11
BRANCH   7  17
ATOM     17  C   UNL     1       3.043   6.136  17.809  0.00  0.00    +0.000 C 
ATOM     18  N   UNL     1       2.898   7.220  18.499  0.00  0.00    +0.000 NA
BRANCH  18  19
ATOM     19  N   UNL     1       2.291   8.256  17.837  0.00  0.00    +0.000 N 
ATOM     20  C   UNL     1       1.501   9.177  18.461  0.00  0.00    +0.000 C 
ATOM     21  N   UNL     1       1.196   9.147  19.711  0.00  0.00    +0.000 NA
ATOM     22  N   UNL     1       1.035  10.168  17.673  0.00  0.00    +0.000 N 
ATOM     23  H   UNL     1       2.650   8.571  16.937  0.00  0.00    +0.000 HD
ATOM     24  H   UNL     1       1.676   8.309  20.066  0.00  0.00    +0.000 HD
ATOM     25  H   UNL     1       0.585   9.842  16.827  0.00  0.00    +0.000 HD
ATOM     26  H   UNL     1       0.376  10.725  18.214  0.00  0.00    +0.000 HD
ENDBRANCH  18  19
ENDBRANCH   7  17
TORSDOF 3
ENDMDL
MODEL 7
REMARK VINA RESULT:      -7.3      2.361      6.355
REMARK  Name = 
REMARK  5 active torsions:
REMARK  status: ('A' for Active; 'I' for Inactive)
REMARK    1  A    between atoms: C_1  and  C_2
REMARK    2  A    between atoms: C_6  and  C_7
REMARK    3  A    between atoms: C_13  and  C_14
REMARK    4  A    between atoms: N_15  and  N_16
REMARK    5  A    between atoms: C_21  and  C_22
REMARK                            x       y       z     vdW  Elec       q    Type
REMARK                         _______ _______ _______ _____ _____    ______ ____
ROOT
ATOM      1  C   UNL     1       1.228   2.336  22.347  0.00  0.00    +0.000 C 
ATOM      2  C   UNL     1       2.126   2.807  21.248  0.00  0.00    +0.000 A 
ATOM      3  S   UNL     1       3.644   1.955  20.956  0.00  0.00    +0.000 S 
ATOM      4  C   UNL     1       3.986   3.082  19.693  0.00  0.00    +0.000 A 
ATOM      5  N   UNL     1       5.033   3.242  18.947  0.00  0.00    +0.000 NA
ATOM      6  C   UNL     1       4.716   4.343  18.189  0.00  0.00    +0.000 A 
ATOM      7  C   UNL     1       3.448   4.857  18.505  0.00  0.00    +0.000 A 
ATOM      8  N   UNL     1       2.994   4.014  19.516  0.00  0.00    +0.000 N 
ATOM      9  C   UNL     1       1.930   3.861  20.415  0.00  0.00    +0.000 A 
ATOM     10  C   UNL     1       0.734   4.744  20.508  0.00  0.00    +0.000 C 
ENDROOT
BRANCH   6  11
ATOM     11  C   UNL     1       5.692   4.852  17.236  0.00  0.00    +0.000 A 
ATOM     12  C   UNL     1       5.963   4.236  16.015  0.00  0.00    +0.000 A 
ATOM     13  C   UNL     1       6.924   4.805  15.193  0.00  0.00    +0.000 A 
ATOM     14  N   UNL     1       7.625   5.916  15.504  0.00  0.00    +0.000 NA
ATOM     15  C   UNL     1       7.378   6.473  16.707  0.00  0.00    +0.000 A 
ATOM     16  C   UNL     1       6.435   5.983  17.593  0.00  0.00    +0.000 A 
ENDBRANCH   6  11
BRANCH   7  17
ATOM     17  C   UNL     1       2.832   6.026  17.941  0.00  0.00    +0.000 C 
ATOM     18  N   UNL     1       2.741   7.151  18.571  0.00  0.00    +0.000 NA
BRANCH  18  19
ATOM     19  N   UNL     1       2.085   8.146  17.893  0.00  0.00    +0.000 N 
ATOM     20  C   UNL     1       1.393   9.142  18.518  0.00  0.00    +0.000 C 
ATOM     21  N   UNL     1       1.235   9.229  19.792  0.00  0.00    +0.000 NA
ATOM     22  N   UNL     1       0.861  10.078  17.703  0.00  0.00    +0.000 N 
ATOM     23  H   UNL     1       2.343   8.371  16.933  0.00  0.00    +0.000 HD
ATOM     24  H   UNL     1       1.734   8.409  20.163  0.00  0.00    +0.000 HD
ATOM     25  H   UNL     1       0.309   9.695  16.946  0.00  0.00    +0.000 HD
ATOM     26  H   UNL     1       0.282  10.700  18.264  0.00  0.00    +0.000 HD
ENDBRANCH  18  19
ENDBRANCH   7  17
TORSDOF 3
ENDMDL
MODEL 8
REMARK VINA RESULT:      -7.1      2.510      6.658
REMARK  Name = 
REMARK  5 active torsions:
REMARK  status: ('A' for Active; 'I' for Inactive)
REMARK    1  A    between atoms: C_1  and  C_2
REMARK    2  A    between atoms: C_6  and  C_7
REMARK    3  A    between atoms: C_13  and  C_14
REMARK    4  A    between atoms: N_15  and  N_16
REMARK    5  A    between atoms: C_21  and  C_22
REMARK                            x       y       z     vdW  Elec       q    Type
REMARK                         _______ _______ _______ _____ _____    ______ ____
ROOT
ATOM      1  C   UNL     1       1.080   2.823  21.586  0.00  0.00    +0.000 C 
ATOM      2  C   UNL     1       1.957   3.177  20.428  0.00  0.00    +0.000 A 
ATOM      3  S   UNL     1       2.795   1.888  19.562  0.00  0.00    +0.000 S 
ATOM      4  C   UNL     1       3.505   3.089  18.544  0.00  0.00    +0.000 A 
ATOM      5  N   UNL     1       4.396   3.001  17.607  0.00  0.00    +0.000 NA
ATOM      6  C   UNL     1       4.588   4.308  17.231  0.00  0.00    +0.000 A 
ATOM      7  C   UNL     1       3.796   5.196  17.976  0.00  0.00    +0.000 A 
ATOM      8  N   UNL     1       3.103   4.364  18.851  0.00  0.00    +0.000 N 
ATOM      9  C   UNL     1       2.220   4.415  19.938  0.00  0.00    +0.000 A 
ATOM     10  C   UNL     1       1.649   5.652  20.540  0.00  0.00    +0.000 C 
ENDROOT
BRANCH   6  11
ATOM     11  C   UNL     1       5.568   4.611  16.197  0.00  0.00    +0.000 A 
ATOM     12  C   UNL     1       6.715   5.369  16.429  0.00  0.00    +0.000 A 
ATOM     13  C   UNL     1       7.572   5.603  15.363  0.00  0.00    +0.000 A 
ATOM     14  N   UNL     1       7.359   5.153  14.108  0.00  0.00    +0.000 NA
ATOM     15  C   UNL     1       6.224   4.458  13.897  0.00  0.00    +0.000 A 
ATOM     16  C   UNL     1       5.312   4.167  14.895  0.00  0.00    +0.000 A 
ENDBRANCH   6  11
BRANCH   7  17
ATOM     17  C   UNL     1       3.789   6.629  17.875  0.00  0.00    +0.000 C 
ATOM     18  N   UNL     1       2.736   7.348  18.091  0.00  0.00    +0.000 NA
BRANCH  18  19
ATOM     19  N   UNL     1       2.905   8.697  17.909  0.00  0.00    +0.000 N 
ATOM     20  C   UNL     1       1.866   9.582  17.896  0.00  0.00    +0.000 C 
ATOM     21  N   UNL     1       0.627   9.251  17.998  0.00  0.00    +0.000 NA
ATOM     22  N   UNL     1       2.213  10.880  17.770  0.00  0.00    +0.000 N 
ATOM     23  H   UNL     1       3.807   9.132  18.093  0.00  0.00    +0.000 HD
ATOM     24  H   UNL     1       0.647   8.226  18.084  0.00  0.00    +0.000 HD
ATOM     25  H   UNL     1       2.835  11.065  16.992  0.00  0.00    +0.000 HD
ATOM     26  H   UNL     1       1.363  11.430  17.662  0.00  0.00    +0.000 HD
ENDBRANCH  18  19
ENDBRANCH   7  17
TORSDOF 3
ENDMDL
MODEL 9
REMARK VINA RESULT:      -6.9      1.761      5.385
REMARK  Name = 
REMARK  5 active torsions:
REMARK  status: ('A' for Active; 'I' for Inactive)
REMARK    1  A    between atoms: C_1  and  C_2
REMARK    2  A    between atoms: C_6  and  C_7
REMARK    3  A    between atoms: C_13  and  C_14
REMARK    4  A    between atoms: N_15  and  N_16
REMARK    5  A    between atoms: C_21  and  C_22
REMARK                            x       y       z     vdW  Elec       q    Type
REMARK                         _______ _______ _______ _____ _____    ______ ____
ROOT
ATOM      1  C   UNL     1      -0.129  10.367  19.912  0.00  0.00    +0.000 C 
ATOM      2  C   UNL     1       0.948   9.493  19.354  0.00  0.00    +0.000 A 
ATOM      3  S   UNL     1       1.720   9.947  17.834  0.00  0.00    +0.000 S 
ATOM      4  C   UNL     1       2.681   8.516  17.942  0.00  0.00    +0.000 A 
ATOM      5  N   UNL     1       3.532   7.991  17.118  0.00  0.00    +0.000 NA
ATOM      6  C   UNL     1       3.904   6.827  17.747  0.00  0.00    +0.000 A 
ATOM      7  C   UNL     1       3.243   6.654  18.974  0.00  0.00    +0.000 A 
ATOM      8  N   UNL     1       2.426   7.777  19.070  0.00  0.00    +0.000 N 
ATOM      9  C   UNL     1       1.425   8.334  19.877  0.00  0.00    +0.000 A 
ATOM     10  C   UNL     1       0.891   7.743  21.135  0.00  0.00    +0.000 C 
ENDROOT
BRANCH   6  11
ATOM     11  C   UNL     1       4.847   5.935  17.088  0.00  0.00    +0.000 A 
ATOM     12  C   UNL     1       6.211   6.205  16.985  0.00  0.00    +0.000 A 
ATOM     13  C   UNL     1       7.012   5.286  16.322  0.00  0.00    +0.000 A 
ATOM     14  N   UNL     1       6.552   4.149  15.758  0.00  0.00    +0.000 NA
ATOM     15  C   UNL     1       5.225   3.928  15.833  0.00  0.00    +0.000 A 
ATOM     16  C   UNL     1       4.346   4.780  16.478  0.00  0.00    +0.000 A 
ENDBRANCH   6  11
BRANCH   7  17
ATOM     17  C   UNL     1       3.360   5.528  19.858  0.00  0.00    +0.000 C 
ATOM     18  N   UNL     1       2.860   4.365  19.593  0.00  0.00    +0.000 NA
BRANCH  18  19
ATOM     19  N   UNL     1       3.034   3.420  20.572  0.00  0.00    +0.000 N 
ATOM     20  C   UNL     1       1.994   2.799  21.200  0.00  0.00    +0.000 C 
ATOM     21  N   UNL     1       0.753   3.065  20.988  0.00  0.00    +0.000 NA
ATOM     22  N   UNL     1       2.341   1.847  22.092  0.00  0.00    +0.000 N 
ATOM     23  H   UNL     1       3.915   2.914  20.647  0.00  0.00    +0.000 HD
ATOM     24  H   UNL     1       0.773   3.808  20.277  0.00  0.00    +0.000 HD
ATOM     25  H   UNL     1       3.025   2.154  22.773  0.00  0.00    +0.000 HD
ATOM     26  H   UNL     1       1.500   1.536  22.573  0.00  0.00    +0.000 HD
ENDBRANCH  18  19
ENDBRANCH   7  17
TORSDOF 3
ENDMDL
