MODEL 1
REMARK VINA RESULT:      -6.9      0.000      0.000
REMARK  Name = 
REMARK  9 active torsions:
REMARK  status: ('A' for Active; 'I' for Inactive)
REMARK    1  A    between atoms: C_1  and  C_2
REMARK    2  A    between atoms: N_11  and  C_12
REMARK    3  A    between atoms: C_12  and  C_13
REMARK    4  A    between atoms: C_12  and  C_14
REMARK    5  A    between atoms: C_12  and  C_15
REMARK    6  A    between atoms: C_15  and  C_16
REMARK    7  A    between atoms: N_28  and  C_29
REMARK    8  A    between atoms: C_29  and  C_30
REMARK    9  A    between atoms: C_29  and  C_31
REMARK                            x       y       z     vdW  Elec       q    Type
REMARK                         _______ _______ _______ _____ _____    ______ ____
ROOT
ATOM      1  C   UNL     1      -4.380  10.001  12.152  0.00  0.00    +0.000 C 
ATOM      2  C   UNL     1      -3.230   9.717  13.079  0.00  0.00    +0.000 C 
ATOM      3  O   UNL     1      -2.161   9.303  12.629  0.00  0.00    +0.000 OA
ATOM      4  N   UNL     1      -3.414  10.002  14.417  0.00  0.00    +0.000 N 
ATOM      5  C   UNL     1      -2.300   9.794  15.343  0.00  0.00    +0.000 C 
ATOM      6  C   UNL     1      -2.210  10.928  16.374  0.00  0.00    +0.000 C 
ATOM      7  N   UNL     1      -3.507  11.084  17.042  0.00  0.00    +0.000 N 
ATOM      8  C   UNL     1      -3.523  11.680  18.287  0.00  0.00    +0.000 A 
ATOM      9  N   UNL     1      -2.343  11.865  18.920  0.00  0.00    +0.000 NA
ATOM     10  C   UNL     1      -2.269  12.422  20.138  0.00  0.00    +0.000 A 
ATOM     11  N   UNL     1      -1.024  12.706  20.717  0.00  0.00    +0.000 N 
ATOM     12  C   UNL     1      -3.422  12.770  20.761  0.00  0.00    +0.000 A 
ATOM     13  C   UNL     1      -4.579  12.513  20.069  0.00  0.00    +0.000 A 
ATOM     14  N   UNL     1      -4.690  12.002  18.841  0.00  0.00    +0.000 NA
ATOM     15  C   UNL     1      -5.714  12.976  20.889  0.00  0.00    +0.000 C 
ATOM     16  O   UNL     1      -6.886  12.977  20.562  0.00  0.00    +0.000 OA
ATOM     17  N   UNL     1      -5.169  13.461  22.079  0.00  0.00    +0.000 N 
ATOM     18  C   UNL     1      -3.713  13.364  22.080  0.00  0.00    +0.000 C 
ATOM     19  C   UNL     1      -4.628  11.361  16.135  0.00  0.00    +0.000 C 
ATOM     20  C   UNL     1      -4.713  10.247  15.071  0.00  0.00    +0.000 C 
ATOM     21  H   UNL     1      -0.859  13.707  20.634  0.00  0.00    +0.000 HD
ENDROOT
BRANCH  11  22
ATOM     22  C   UNL     1       0.182  11.912  20.320  0.00  0.00    +0.000 C 
ATOM     23  C   UNL     1       0.947  12.709  19.241  0.00  0.00    +0.000 C 
ATOM     24  C   UNL     1       1.060  11.546  21.531  0.00  0.00    +0.000 C 
BRANCH  22  25
ATOM     25  C   UNL     1      -0.337  10.564  19.690  0.00  0.00    +0.000 C 
BRANCH  25  26
ATOM     26  C   UNL     1       0.708   9.512  19.353  0.00  0.00    +0.000 A 
ATOM     27  C   UNL     1       1.279   9.439  18.073  0.00  0.00    +0.000 A 
ATOM     28  C   UNL     1       2.220   8.450  17.763  0.00  0.00    +0.000 A 
ATOM     29  C   UNL     1       2.607   7.530  18.734  0.00  0.00    +0.000 A 
ATOM     30 CL   UNL     1       3.762   6.315  18.356  0.00  0.00    +0.000 Cl
ATOM     31  C   UNL     1       2.064   7.592  20.011  0.00  0.00    +0.000 A 
ATOM     32  C   UNL     1       1.121   8.579  20.321  0.00  0.00    +0.000 A 
ENDBRANCH  25  26
ENDBRANCH  22  25
ENDBRANCH  11  22
BRANCH  17  33
ATOM     33  C   UNL     1      -5.920  14.323  22.988  0.00  0.00    +0.000 C 
ATOM     34  C   UNL     1      -6.750  13.532  23.997  0.00  0.00    +0.000 C 
ATOM     35  C   UNL     1      -4.978  15.295  23.702  0.00  0.00    +0.000 C 
ENDBRANCH  17  33
TORSDOF 4
ENDMDL
MODEL 2
REMARK VINA RESULT:      -6.6      3.686      7.139
REMARK  Name = 
REMARK  9 active torsions:
REMARK  status: ('A' for Active; 'I' for Inactive)
REMARK    1  A    between atoms: C_1  and  C_2
REMARK    2  A    between atoms: N_11  and  C_12
REMARK    3  A    between atoms: C_12  and  C_13
REMARK    4  A    between atoms: C_12  and  C_14
REMARK    5  A    between atoms: C_12  and  C_15
REMARK    6  A    between atoms: C_15  and  C_16
REMARK    7  A    between atoms: N_28  and  C_29
REMARK    8  A    between atoms: C_29  and  C_30
REMARK    9  A    between atoms: C_29  and  C_31
REMARK                            x       y       z     vdW  Elec       q    Type
REMARK                         _______ _______ _______ _____ _____    ______ ____
ROOT
ATOM      1  C   UNL     1      -6.427  14.371  24.205  0.00  0.00    +0.000 C 
ATOM      2  C   UNL     1      -5.605  13.165  23.841  0.00  0.00    +0.000 C 
ATOM      3  O   UNL     1      -6.087  12.036  23.936  0.00  0.00    +0.000 OA
ATOM      4  N   UNL     1      -4.337  13.394  23.343  0.00  0.00    +0.000 N 
ATOM      5  C   UNL     1      -3.526  12.250  22.923  0.00  0.00    +0.000 C 
ATOM      6  C   UNL     1      -2.758  12.553  21.630  0.00  0.00    +0.000 C 
ATOM      7  N   UNL     1      -1.986  13.790  21.799  0.00  0.00    +0.000 N 
ATOM      8  C   UNL     1      -0.891  13.982  20.981  0.00  0.00    +0.000 A 
ATOM      9  N   UNL     1      -0.450  12.935  20.248  0.00  0.00    +0.000 NA
ATOM     10  C   UNL     1       0.615  13.030  19.440  0.00  0.00    +0.000 A 
ATOM     11  N   UNL     1       0.976  11.963  18.607  0.00  0.00    +0.000 N 
ATOM     12  C   UNL     1       1.289  14.207  19.395  0.00  0.00    +0.000 A 
ATOM     13  C   UNL     1       0.803  15.207  20.199  0.00  0.00    +0.000 A 
ATOM     14  N   UNL     1      -0.277  15.164  20.980  0.00  0.00    +0.000 NA
ATOM     15  C   UNL     1       1.644  16.403  19.997  0.00  0.00    +0.000 C 
ATOM     16  O   UNL     1       1.464  17.501  20.489  0.00  0.00    +0.000 OA
ATOM     17  N   UNL     1       2.642  16.036  19.092  0.00  0.00    +0.000 N 
ATOM     18  C   UNL     1       2.489  14.650  18.660  0.00  0.00    +0.000 C 
ATOM     19  C   UNL     1      -2.791  14.965  22.155  0.00  0.00    +0.000 C 
ATOM     20  C   UNL     1      -3.595  14.666  23.436  0.00  0.00    +0.000 C 
ATOM     21  H   UNL     1       0.678  12.187  17.659  0.00  0.00    +0.000 HD
ENDROOT
BRANCH  11  22
ATOM     22  C   UNL     1       0.604  10.562  18.986  0.00  0.00    +0.000 C 
ATOM     23  C   UNL     1       0.828  10.401  20.505  0.00  0.00    +0.000 C 
ATOM     24  C   UNL     1      -0.828  10.204  18.550  0.00  0.00    +0.000 C 
BRANCH  22  25
ATOM     25  C   UNL     1       1.586   9.598  18.217  0.00  0.00    +0.000 C 
BRANCH  25  26
ATOM     26  C   UNL     1       1.824   8.225  18.828  0.00  0.00    +0.000 A 
ATOM     27  C   UNL     1       1.596   7.987  20.192  0.00  0.00    +0.000 A 
ATOM     28  C   UNL     1       1.845   6.728  20.752  0.00  0.00    +0.000 A 
ATOM     29  C   UNL     1       2.314   5.691  19.949  0.00  0.00    +0.000 A 
ATOM     30 CL   UNL     1       2.620   4.145  20.634  0.00  0.00    +0.000 Cl
ATOM     31  C   UNL     1       2.535   5.902  18.594  0.00  0.00    +0.000 A 
ATOM     32  C   UNL     1       2.289   7.161  18.035  0.00  0.00    +0.000 A 
ENDBRANCH  25  26
ENDBRANCH  22  25
ENDBRANCH  11  22
BRANCH  17  33
ATOM     33  C   UNL     1       3.444  17.022  18.373  0.00  0.00    +0.000 C 
ATOM     34  C   UNL     1       4.945  16.781  18.523  0.00  0.00    +0.000 C 
ATOM     35  C   UNL     1       3.045  17.058  16.896  0.00  0.00    +0.000 C 
ENDBRANCH  17  33
TORSDOF 4
ENDMDL
MODEL 3
REMARK VINA RESULT:      -6.6      3.877      7.506
REMARK  Name = 
REMARK  9 active torsions:
REMARK  status: ('A' for Active; 'I' for Inactive)
REMARK    1  A    between atoms: C_1  and  C_2
REMARK    2  A    between atoms: N_11  and  C_12
REMARK    3  A    between atoms: C_12  and  C_13
REMARK    4  A    between atoms: C_12  and  C_14
REMARK    5  A    between atoms: C_12  and  C_15
REMARK    6  A    between atoms: C_15  and  C_16
REMARK    7  A    between atoms: N_28  and  C_29
REMARK    8  A    between atoms: C_29  and  C_30
REMARK    9  A    between atoms: C_29  and  C_31
REMARK                            x       y       z     vdW  Elec       q    Type
REMARK                         _______ _______ _______ _____ _____    ______ ____
ROOT
ATOM      1  C   UNL     1      -5.144  14.423  24.575  0.00  0.00    +0.000 C 
ATOM      2  C   UNL     1      -4.553  13.123  24.104  0.00  0.00    +0.000 C 
ATOM      3  O   UNL     1      -5.211  12.085  24.170  0.00  0.00    +0.000 OA
ATOM      4  N   UNL     1      -3.290  13.170  23.546  0.00  0.00    +0.000 N 
ATOM      5  C   UNL     1      -2.703  11.937  23.022  0.00  0.00    +0.000 C 
ATOM      6  C   UNL     1      -1.959  12.186  21.703  0.00  0.00    +0.000 C 
ATOM      7  N   UNL     1      -0.985  13.268  21.890  0.00  0.00    +0.000 N 
ATOM      8  C   UNL     1       0.086  13.327  21.021  0.00  0.00    +0.000 A 
ATOM      9  N   UNL     1       0.310  12.267  20.212  0.00  0.00    +0.000 NA
ATOM     10  C   UNL     1       1.336  12.235  19.349  0.00  0.00    +0.000 A 
ATOM     11  N   UNL     1       1.473  11.174  18.443  0.00  0.00    +0.000 N 
ATOM     12  C   UNL     1       2.193  13.286  19.325  0.00  0.00    +0.000 A 
ATOM     13  C   UNL     1       1.921  14.303  20.205  0.00  0.00    +0.000 A 
ATOM     14  N   UNL     1       0.887  14.390  21.044  0.00  0.00    +0.000 NA
ATOM     15  C   UNL     1       2.938  15.355  20.016  0.00  0.00    +0.000 C 
ATOM     16  O   UNL     1       2.967  16.436  20.572  0.00  0.00    +0.000 OA
ATOM     17  N   UNL     1       3.815  14.884  19.037  0.00  0.00    +0.000 N 
ATOM     18  C   UNL     1       3.413  13.570  18.545  0.00  0.00    +0.000 C 
ATOM     19  C   UNL     1      -1.564  14.536  22.351  0.00  0.00    +0.000 C 
ATOM     20  C   UNL     1      -2.344  14.296  23.660  0.00  0.00    +0.000 C 
ATOM     21  H   UNL     1       1.171  11.500  17.527  0.00  0.00    +0.000 HD
ENDROOT
BRANCH  11  22
ATOM     22  C   UNL     1       0.892   9.833  18.772  0.00  0.00    +0.000 C 
ATOM     23  C   UNL     1       1.461   9.385  20.136  0.00  0.00    +0.000 C 
ATOM     24  C   UNL     1      -0.647   9.843  18.738  0.00  0.00    +0.000 C 
BRANCH  22  25
ATOM     25  C   UNL     1       1.381   8.831  17.659  0.00  0.00    +0.000 C 
BRANCH  25  26
ATOM     26  C   UNL     1       2.358   7.746  18.087  0.00  0.00    +0.000 A 
ATOM     27  C   UNL     1       3.616   7.617  17.477  0.00  0.00    +0.000 A 
ATOM     28  C   UNL     1       4.497   6.599  17.858  0.00  0.00    +0.000 A 
ATOM     29  C   UNL     1       4.133   5.705  18.862  0.00  0.00    +0.000 A 
ATOM     30 CL   UNL     1       5.214   4.454  19.332  0.00  0.00    +0.000 Cl
ATOM     31  C   UNL     1       2.899   5.821  19.488  0.00  0.00    +0.000 A 
ATOM     32  C   UNL     1       2.016   6.838  19.105  0.00  0.00    +0.000 A 
ENDBRANCH  25  26
ENDBRANCH  22  25
ENDBRANCH  11  22
BRANCH  17  33
ATOM     33  C   UNL     1       4.734  15.766  18.323  0.00  0.00    +0.000 C 
ATOM     34  C   UNL     1       5.971  15.033  17.807  0.00  0.00    +0.000 C 
ATOM     35  C   UNL     1       4.008  16.479  17.180  0.00  0.00    +0.000 C 
ENDBRANCH  17  33
TORSDOF 4
ENDMDL
MODEL 4
REMARK VINA RESULT:      -6.5      5.226      7.904
REMARK  Name = 
REMARK  9 active torsions:
REMARK  status: ('A' for Active; 'I' for Inactive)
REMARK    1  A    between atoms: C_1  and  C_2
REMARK    2  A    between atoms: N_11  and  C_12
REMARK    3  A    between atoms: C_12  and  C_13
REMARK    4  A    between atoms: C_12  and  C_14
REMARK    5  A    between atoms: C_12  and  C_15
REMARK    6  A    between atoms: C_15  and  C_16
REMARK    7  A    between atoms: N_28  and  C_29
REMARK    8  A    between atoms: C_29  and  C_30
REMARK    9  A    between atoms: C_29  and  C_31
REMARK                            x       y       z     vdW  Elec       q    Type
REMARK                         _______ _______ _______ _____ _____    ______ ____
ROOT
ATOM      1  C   UNL     1       8.394  16.958  19.052  0.00  0.00    +0.000 C 
ATOM      2  C   UNL     1       7.297  16.121  18.454  0.00  0.00    +0.000 C 
ATOM      3  O   UNL     1       7.548  15.328  17.547  0.00  0.00    +0.000 OA
ATOM      4  N   UNL     1       6.039  16.242  19.012  0.00  0.00    +0.000 N 
ATOM      5  C   UNL     1       4.955  15.403  18.498  0.00  0.00    +0.000 C 
ATOM      6  C   UNL     1       4.068  14.876  19.633  0.00  0.00    +0.000 C 
ATOM      7  N   UNL     1       3.601  16.003  20.450  0.00  0.00    +0.000 N 
ATOM      8  C   UNL     1       2.451  15.827  21.193  0.00  0.00    +0.000 A 
ATOM      9  N   UNL     1       1.694  14.734  20.948  0.00  0.00    +0.000 NA
ATOM     10  C   UNL     1       0.555  14.493  21.612  0.00  0.00    +0.000 A 
ATOM     11  N   UNL     1      -0.145  13.295  21.418  0.00  0.00    +0.000 N 
ATOM     12  C   UNL     1       0.137  15.403  22.528  0.00  0.00    +0.000 A 
ATOM     13  C   UNL     1       0.939  16.505  22.689  0.00  0.00    +0.000 A 
ATOM     14  N   UNL     1       2.099  16.756  22.080  0.00  0.00    +0.000 NA
ATOM     15  C   UNL     1       0.338  17.358  23.732  0.00  0.00    +0.000 C 
ATOM     16  O   UNL     1       0.814  18.379  24.189  0.00  0.00    +0.000 OA
ATOM     17  N   UNL     1      -0.846  16.729  24.122  0.00  0.00    +0.000 N 
ATOM     18  C   UNL     1      -1.050  15.477  23.401  0.00  0.00    +0.000 C 
ATOM     19  C   UNL     1       4.675  16.818  21.031  0.00  0.00    +0.000 C 
ATOM     20  C   UNL     1       5.597  17.329  19.905  0.00  0.00    +0.000 C 
ATOM     21  H   UNL     1       0.036  12.690  22.217  0.00  0.00    +0.000 HD
ENDROOT
BRANCH  11  22
ATOM     22  C   UNL     1      -0.010  12.554  20.123  0.00  0.00    +0.000 C 
ATOM     23  C   UNL     1      -0.368  13.524  18.976  0.00  0.00    +0.000 C 
ATOM     24  C   UNL     1       1.383  11.920  19.959  0.00  0.00    +0.000 C 
BRANCH  22  25
ATOM     25  C   UNL     1      -1.062  11.381  20.149  0.00  0.00    +0.000 C 
BRANCH  25  26
ATOM     26  C   UNL     1      -1.763  11.053  18.839  0.00  0.00    +0.000 A 
ATOM     27  C   UNL     1      -1.209  10.144  17.925  0.00  0.00    +0.000 A 
ATOM     28  C   UNL     1      -1.848   9.869  16.710  0.00  0.00    +0.000 A 
ATOM     29  C   UNL     1      -3.053  10.495  16.401  0.00  0.00    +0.000 A 
ATOM     30 CL   UNL     1      -3.838  10.160  14.910  0.00  0.00    +0.000 Cl
ATOM     31  C   UNL     1      -3.625  11.390  17.296  0.00  0.00    +0.000 A 
ATOM     32  C   UNL     1      -2.986  11.666  18.511  0.00  0.00    +0.000 A 
ENDBRANCH  25  26
ENDBRANCH  22  25
ENDBRANCH  11  22
BRANCH  17  33
ATOM     33  C   UNL     1      -1.536  17.067  25.365  0.00  0.00    +0.000 C 
ATOM     34  C   UNL     1      -3.053  17.111  25.201  0.00  0.00    +0.000 C 
ATOM     35  C   UNL     1      -1.137  16.093  26.477  0.00  0.00    +0.000 C 
ENDBRANCH  17  33
TORSDOF 4
ENDMDL
MODEL 5
REMARK VINA RESULT:      -6.5      3.476      6.250
REMARK  Name = 
REMARK  9 active torsions:
REMARK  status: ('A' for Active; 'I' for Inactive)
REMARK    1  A    between atoms: C_1  and  C_2
REMARK    2  A    between atoms: N_11  and  C_12
REMARK    3  A    between atoms: C_12  and  C_13
REMARK    4  A    between atoms: C_12  and  C_14
REMARK    5  A    between atoms: C_12  and  C_15
REMARK    6  A    between atoms: C_15  and  C_16
REMARK    7  A    between atoms: N_28  and  C_29
REMARK    8  A    between atoms: C_29  and  C_30
REMARK    9  A    between atoms: C_29  and  C_31
REMARK                            x       y       z     vdW  Elec       q    Type
REMARK                         _______ _______ _______ _____ _____    ______ ____
ROOT
ATOM      1  C   UNL     1       5.822  16.602  22.129  0.00  0.00    +0.000 C 
ATOM      2  C   UNL     1       5.256  15.836  20.965  0.00  0.00    +0.000 C 
ATOM      3  O   UNL     1       6.008  15.344  20.124  0.00  0.00    +0.000 OA
ATOM      4  N   UNL     1       3.886  15.664  20.931  0.00  0.00    +0.000 N 
ATOM      5  C   UNL     1       3.300  14.875  19.846  0.00  0.00    +0.000 C 
ATOM      6  C   UNL     1       2.170  13.972  20.357  0.00  0.00    +0.000 C 
ATOM      7  N   UNL     1       1.190  14.783  21.088  0.00  0.00    +0.000 N 
ATOM      8  C   UNL     1      -0.094  14.290  21.207  0.00  0.00    +0.000 A 
ATOM      9  N   UNL     1      -0.440  13.223  20.452  0.00  0.00    +0.000 NA
ATOM     10  C   UNL     1      -1.670  12.690  20.495  0.00  0.00    +0.000 A 
ATOM     11  N   UNL     1      -1.962  11.515  19.789  0.00  0.00    +0.000 N 
ATOM     12  C   UNL     1      -2.599  13.273  21.292  0.00  0.00    +0.000 A 
ATOM     13  C   UNL     1      -2.181  14.375  21.995  0.00  0.00    +0.000 A 
ATOM     14  N   UNL     1      -0.957  14.906  22.013  0.00  0.00    +0.000 NA
ATOM     15  C   UNL     1      -3.312  14.850  22.815  0.00  0.00    +0.000 C 
ATOM     16  O   UNL     1      -3.285  15.761  23.620  0.00  0.00    +0.000 OA
ATOM     17  N   UNL     1      -4.390  14.012  22.522  0.00  0.00    +0.000 N 
ATOM     18  C   UNL     1      -4.021  12.981  21.558  0.00  0.00    +0.000 C 
ATOM     19  C   UNL     1       1.745  15.530  22.224  0.00  0.00    +0.000 C 
ATOM     20  C   UNL     1       2.906  16.420  21.733  0.00  0.00    +0.000 C 
ATOM     21  H   UNL     1      -1.987  10.745  20.454  0.00  0.00    +0.000 HD
ENDROOT
BRANCH  11  22
ATOM     22  C   UNL     1      -1.172  11.164  18.566  0.00  0.00    +0.000 C 
ATOM     23  C   UNL     1      -1.588   9.746  18.117  0.00  0.00    +0.000 C 
ATOM     24  C   UNL     1      -1.328  12.215  17.452  0.00  0.00    +0.000 C 
BRANCH  22  25
ATOM     25  C   UNL     1       0.347  11.144  18.986  0.00  0.00    +0.000 C 
BRANCH  25  26
ATOM     26  C   UNL     1       0.999   9.780  19.157  0.00  0.00    +0.000 A 
ATOM     27  C   UNL     1       0.945   9.097  20.381  0.00  0.00    +0.000 A 
ATOM     28  C   UNL     1       1.570   7.854  20.538  0.00  0.00    +0.000 A 
ATOM     29  C   UNL     1       2.248   7.278  19.466  0.00  0.00    +0.000 A 
ATOM     30 CL   UNL     1       3.018   5.753  19.656  0.00  0.00    +0.000 Cl
ATOM     31  C   UNL     1       2.304   7.931  18.242  0.00  0.00    +0.000 A 
ATOM     32  C   UNL     1       1.680   9.174  18.086  0.00  0.00    +0.000 A 
ENDBRANCH  25  26
ENDBRANCH  22  25
ENDBRANCH  11  22
BRANCH  17  33
ATOM     33  C   UNL     1      -5.570  13.930  23.380  0.00  0.00    +0.000 C 
ATOM     34  C   UNL     1      -6.875  14.019  22.593  0.00  0.00    +0.000 C 
ATOM     35  C   UNL     1      -5.528  12.653  24.222  0.00  0.00    +0.000 C 
ENDBRANCH  17  33
TORSDOF 4
ENDMDL
MODEL 6
REMARK VINA RESULT:      -6.5      3.668      6.912
REMARK  Name = 
REMARK  9 active torsions:
REMARK  status: ('A' for Active; 'I' for Inactive)
REMARK    1  A    between atoms: C_1  and  C_2
REMARK    2  A    between atoms: N_11  and  C_12
REMARK    3  A    between atoms: C_12  and  C_13
REMARK    4  A    between atoms: C_12  and  C_14
REMARK    5  A    between atoms: C_12  and  C_15
REMARK    6  A    between atoms: C_15  and  C_16
REMARK    7  A    between atoms: N_28  and  C_29
REMARK    8  A    between atoms: C_29  and  C_30
REMARK    9  A    between atoms: C_29  and  C_31
REMARK                            x       y       z     vdW  Elec       q    Type
REMARK                         _______ _______ _______ _____ _____    ______ ____
ROOT
ATOM      1  C   UNL     1      -6.628  14.035  24.458  0.00  0.00    +0.000 C 
ATOM      2  C   UNL     1      -5.637  12.955  24.124  0.00  0.00    +0.000 C 
ATOM      3  O   UNL     1      -5.902  11.777  24.364  0.00  0.00    +0.000 OA
ATOM      4  N   UNL     1      -4.473  13.342  23.489  0.00  0.00    +0.000 N 
ATOM      5  C   UNL     1      -3.508  12.315  23.095  0.00  0.00    +0.000 C 
ATOM      6  C   UNL     1      -2.911  12.609  21.712  0.00  0.00    +0.000 C 
ATOM      7  N   UNL     1      -2.360  13.969  21.698  0.00  0.00    +0.000 N 
ATOM      8  C   UNL     1      -1.384  14.259  20.766  0.00  0.00    +0.000 A 
ATOM      9  N   UNL     1      -0.824  13.232  20.088  0.00  0.00    +0.000 NA
ATOM     10  C   UNL     1       0.140  13.422  19.176  0.00  0.00    +0.000 A 
ATOM     11  N   UNL     1       0.618  12.351  18.409  0.00  0.00    +0.000 N 
ATOM     12  C   UNL     1       0.589  14.685  18.964  0.00  0.00    +0.000 A 
ATOM     13  C   UNL     1      -0.002  15.666  19.720  0.00  0.00    +0.000 A 
ATOM     14  N   UNL     1      -0.992  15.521  20.602  0.00  0.00    +0.000 NA
ATOM     15  C   UNL     1       0.595  16.960  19.335  0.00  0.00    +0.000 C 
ATOM     16  O   UNL     1       0.262  18.056  19.744  0.00  0.00    +0.000 OA
ATOM     17  N   UNL     1       1.567  16.675  18.374  0.00  0.00    +0.000 N 
ATOM     18  C   UNL     1       1.629  15.247  18.082  0.00  0.00    +0.000 C 
ATOM     19  C   UNL     1      -3.329  15.022  22.025  0.00  0.00    +0.000 C 
ATOM     20  C   UNL     1      -3.964  14.724  23.399  0.00  0.00    +0.000 C 
ATOM     21  H   UNL     1       0.211  12.423  17.478  0.00  0.00    +0.000 HD
ENDROOT
BRANCH  11  22
ATOM     22  C   UNL     1       0.532  10.955  18.943  0.00  0.00    +0.000 C 
ATOM     23  C   UNL     1       1.142  10.945  20.361  0.00  0.00    +0.000 C 
ATOM     24  C   UNL     1      -0.906  10.406  18.905  0.00  0.00    +0.000 C 
BRANCH  22  25
ATOM     25  C   UNL     1       1.408  10.044  18.001  0.00  0.00    +0.000 C 
BRANCH  25  26
ATOM     26  C   UNL     1       1.871   8.709  18.567  0.00  0.00    +0.000 A 
ATOM     27  C   UNL     1       2.685   7.845  17.819  0.00  0.00    +0.000 A 
ATOM     28  C   UNL     1       3.084   6.608  18.336  0.00  0.00    +0.000 A 
ATOM     29  C   UNL     1       2.681   6.226  19.614  0.00  0.00    +0.000 A 
ATOM     30 CL   UNL     1       3.169   4.707  20.251  0.00  0.00    +0.000 Cl
ATOM     31  C   UNL     1       1.885   7.071  20.377  0.00  0.00    +0.000 A 
ATOM     32  C   UNL     1       1.484   8.308  19.858  0.00  0.00    +0.000 A 
ENDBRANCH  25  26
ENDBRANCH  22  25
ENDBRANCH  11  22
BRANCH  17  33
ATOM     33  C   UNL     1       2.122  17.704  17.497  0.00  0.00    +0.000 C 
ATOM     34  C   UNL     1       3.203  17.160  16.566  0.00  0.00    +0.000 C 
ATOM     35  C   UNL     1       1.006  18.381  16.699  0.00  0.00    +0.000 C 
ENDBRANCH  17  33
TORSDOF 4
ENDMDL
MODEL 7
REMARK VINA RESULT:      -6.4      4.952      7.675
REMARK  Name = 
REMARK  9 active torsions:
REMARK  status: ('A' for Active; 'I' for Inactive)
REMARK    1  A    between atoms: C_1  and  C_2
REMARK    2  A    between atoms: N_11  and  C_12
REMARK    3  A    between atoms: C_12  and  C_13
REMARK    4  A    between atoms: C_12  and  C_14
REMARK    5  A    between atoms: C_12  and  C_15
REMARK    6  A    between atoms: C_15  and  C_16
REMARK    7  A    between atoms: N_28  and  C_29
REMARK    8  A    between atoms: C_29  and  C_30
REMARK    9  A    between atoms: C_29  and  C_31
REMARK                            x       y       z     vdW  Elec       q    Type
REMARK                         _______ _______ _______ _____ _____    ______ ____
ROOT
ATOM      1  C   UNL     1       8.461  15.273  18.675  0.00  0.00    +0.000 C 
ATOM      2  C   UNL     1       7.220  14.677  18.070  0.00  0.00    +0.000 C 
ATOM      3  O   UNL     1       7.307  13.896  17.122  0.00  0.00    +0.000 OA
ATOM      4  N   UNL     1       6.014  14.994  18.666  0.00  0.00    +0.000 N 
ATOM      5  C   UNL     1       4.788  14.389  18.144  0.00  0.00    +0.000 C 
ATOM      6  C   UNL     1       3.841  13.976  19.278  0.00  0.00    +0.000 C 
ATOM      7  N   UNL     1       3.600  15.128  20.156  0.00  0.00    +0.000 N 
ATOM      8  C   UNL     1       2.451  15.126  20.921  0.00  0.00    +0.000 A 
ATOM      9  N   UNL     1       1.505  14.199  20.648  0.00  0.00    +0.000 NA
ATOM     10  C   UNL     1       0.353  14.135  21.332  0.00  0.00    +0.000 A 
ATOM     11  N   UNL     1      -0.555  13.092  21.103  0.00  0.00    +0.000 N 
ATOM     12  C   UNL     1       0.123  15.060  22.297  0.00  0.00    +0.000 A 
ATOM     13  C   UNL     1       1.114  15.991  22.485  0.00  0.00    +0.000 A 
ATOM     14  N   UNL     1       2.289  16.059  21.857  0.00  0.00    +0.000 NA
ATOM     15  C   UNL     1       0.696  16.887  23.580  0.00  0.00    +0.000 C 
ATOM     16  O   UNL     1       1.357  17.783  24.069  0.00  0.00    +0.000 OA
ATOM     17  N   UNL     1      -0.575  16.462  23.974  0.00  0.00    +0.000 N 
ATOM     18  C   UNL     1      -1.015  15.304  23.204  0.00  0.00    +0.000 C 
ATOM     19  C   UNL     1       4.814  15.708  20.744  0.00  0.00    +0.000 C 
ATOM     20  C   UNL     1       5.793  16.099  19.618  0.00  0.00    +0.000 C 
ATOM     21  H   UNL     1      -0.471  12.427  21.869  0.00  0.00    +0.000 HD
ENDROOT
BRANCH  11  22
ATOM     22  C   UNL     1      -0.580  12.403  19.774  0.00  0.00    +0.000 C 
ATOM     23  C   UNL     1      -0.643  13.485  18.673  0.00  0.00    +0.000 C 
ATOM     24  C   UNL     1       0.607  11.438  19.598  0.00  0.00    +0.000 C 
BRANCH  22  25
ATOM     25  C   UNL     1      -1.898  11.542  19.722  0.00  0.00    +0.000 C 
BRANCH  25  26
ATOM     26  C   UNL     1      -2.426  11.167  18.345  0.00  0.00    +0.000 A 
ATOM     27  C   UNL     1      -3.608  11.730  17.841  0.00  0.00    +0.000 A 
ATOM     28  C   UNL     1      -4.101  11.359  16.585  0.00  0.00    +0.000 A 
ATOM     29  C   UNL     1      -3.409  10.427  15.815  0.00  0.00    +0.000 A 
ATOM     30 CL   UNL     1      -4.011   9.970  14.272  0.00  0.00    +0.000 Cl
ATOM     31  C   UNL     1      -2.230   9.866  16.289  0.00  0.00    +0.000 A 
ATOM     32  C   UNL     1      -1.738  10.236  17.547  0.00  0.00    +0.000 A 
ENDBRANCH  25  26
ENDBRANCH  22  25
ENDBRANCH  11  22
BRANCH  17  33
ATOM     33  C   UNL     1      -1.169  16.858  25.248  0.00  0.00    +0.000 C 
ATOM     34  C   UNL     1      -2.688  16.697  25.263  0.00  0.00    +0.000 C 
ATOM     35  C   UNL     1      -0.529  16.079  26.400  0.00  0.00    +0.000 C 
ENDBRANCH  17  33
TORSDOF 4
ENDMDL
MODEL 8
REMARK VINA RESULT:      -6.3      3.400      6.796
REMARK  Name = 
REMARK  9 active torsions:
REMARK  status: ('A' for Active; 'I' for Inactive)
REMARK    1  A    between atoms: C_1  and  C_2
REMARK    2  A    between atoms: N_11  and  C_12
REMARK    3  A    between atoms: C_12  and  C_13
REMARK    4  A    between atoms: C_12  and  C_14
REMARK    5  A    between atoms: C_12  and  C_15
REMARK    6  A    between atoms: C_15  and  C_16
REMARK    7  A    between atoms: N_28  and  C_29
REMARK    8  A    between atoms: C_29  and  C_30
REMARK    9  A    between atoms: C_29  and  C_31
REMARK                            x       y       z     vdW  Elec       q    Type
REMARK                         _______ _______ _______ _____ _____    ______ ____
ROOT
ATOM      1  C   UNL     1      -6.808  14.614  21.324  0.00  0.00    +0.000 C 
ATOM      2  C   UNL     1      -6.010  13.341  21.256  0.00  0.00    +0.000 C 
ATOM      3  O   UNL     1      -6.585  12.253  21.209  0.00  0.00    +0.000 OA
ATOM      4  N   UNL     1      -4.636  13.462  21.182  0.00  0.00    +0.000 N 
ATOM      5  C   UNL     1      -3.827  12.249  21.055  0.00  0.00    +0.000 C 
ATOM      6  C   UNL     1      -2.670  12.449  20.067  0.00  0.00    +0.000 C 
ATOM      7  N   UNL     1      -1.896  13.634  20.456  0.00  0.00    +0.000 N 
ATOM      8  C   UNL     1      -0.588  13.719  20.024  0.00  0.00    +0.000 A 
ATOM      9  N   UNL     1      -0.022  12.617  19.482  0.00  0.00    +0.000 NA
ATOM     10  C   UNL     1       1.248  12.607  19.051  0.00  0.00    +0.000 A 
ATOM     11  N   UNL     1       1.768  11.486  18.389  0.00  0.00    +0.000 N 
ATOM     12  C   UNL     1       1.991  13.731  19.206  0.00  0.00    +0.000 A 
ATOM     13  C   UNL     1       1.357  14.793  19.801  0.00  0.00    +0.000 A 
ATOM     14  N   UNL     1       0.085  14.854  20.201  0.00  0.00    +0.000 NA
ATOM     15  C   UNL     1       2.309  15.918  19.860  0.00  0.00    +0.000 C 
ATOM     16  O   UNL     1       2.070  17.044  20.255  0.00  0.00    +0.000 OA
ATOM     17  N   UNL     1       3.509  15.448  19.322  0.00  0.00    +0.000 N 
ATOM     18  C   UNL     1       3.392  14.062  18.883  0.00  0.00    +0.000 C 
ATOM     19  C   UNL     1      -2.677  14.876  20.523  0.00  0.00    +0.000 C 
ATOM     20  C   UNL     1      -3.865  14.681  21.488  0.00  0.00    +0.000 C 
ATOM     21  H   UNL     1       1.801  11.695  17.394  0.00  0.00    +0.000 HD
ENDROOT
BRANCH  11  22
ATOM     22  C   UNL     1       1.187  10.131  18.650  0.00  0.00    +0.000 C 
ATOM     23  C   UNL     1       1.073   9.944  20.179  0.00  0.00    +0.000 C 
ATOM     24  C   UNL     1      -0.151   9.921  17.919  0.00  0.00    +0.000 C 
BRANCH  22  25
ATOM     25  C   UNL     1       2.206   9.073  18.079  0.00  0.00    +0.000 C 
BRANCH  25  26
ATOM     26  C   UNL     1       2.189   7.688  18.709  0.00  0.00    +0.000 A 
ATOM     27  C   UNL     1       1.824   7.504  20.052  0.00  0.00    +0.000 A 
ATOM     28  C   UNL     1       1.838   6.230  20.631  0.00  0.00    +0.000 A 
ATOM     29  C   UNL     1       2.208   5.124  19.869  0.00  0.00    +0.000 A 
ATOM     30 CL   UNL     1       2.226   3.559  20.577  0.00  0.00    +0.000 Cl
ATOM     31  C   UNL     1       2.562   5.281  18.535  0.00  0.00    +0.000 A 
ATOM     32  C   UNL     1       2.550   6.556  17.956  0.00  0.00    +0.000 A 
ENDBRANCH  25  26
ENDBRANCH  22  25
ENDBRANCH  11  22
BRANCH  17  33
ATOM     33  C   UNL     1       4.571  16.349  18.880  0.00  0.00    +0.000 C 
ATOM     34  C   UNL     1       5.256  17.064  20.043  0.00  0.00    +0.000 C 
ATOM     35  C   UNL     1       5.593  15.589  18.031  0.00  0.00    +0.000 C 
ENDBRANCH  17  33
TORSDOF 4
ENDMDL
MODEL 9
REMARK VINA RESULT:      -6.2      3.506      6.353
REMARK  Name = 
REMARK  9 active torsions:
REMARK  status: ('A' for Active; 'I' for Inactive)
REMARK    1  A    between atoms: C_1  and  C_2
REMARK    2  A    between atoms: N_11  and  C_12
REMARK    3  A    between atoms: C_12  and  C_13
REMARK    4  A    between atoms: C_12  and  C_14
REMARK    5  A    between atoms: C_12  and  C_15
REMARK    6  A    between atoms: C_15  and  C_16
REMARK    7  A    between atoms: N_28  and  C_29
REMARK    8  A    between atoms: C_29  and  C_30
REMARK    9  A    between atoms: C_29  and  C_31
REMARK                            x       y       z     vdW  Elec       q    Type
REMARK                         _______ _______ _______ _____ _____    ______ ____
ROOT
ATOM      1  C   UNL     1       3.658  18.110  23.608  0.00  0.00    +0.000 C 
ATOM      2  C   UNL     1       3.528  17.271  22.367  0.00  0.00    +0.000 C 
ATOM      3  O   UNL     1       4.530  16.965  21.720  0.00  0.00    +0.000 OA
ATOM      4  N   UNL     1       2.264  16.821  22.041  0.00  0.00    +0.000 N 
ATOM      5  C   UNL     1       2.103  15.954  20.873  0.00  0.00    +0.000 C 
ATOM      6  C   UNL     1       1.100  14.825  21.147  0.00  0.00    +0.000 C 
ATOM      7  N   UNL     1      -0.161  15.400  21.630  0.00  0.00    +0.000 N 
ATOM      8  C   UNL     1      -1.310  14.650  21.480  0.00  0.00    +0.000 A 
ATOM      9  N   UNL     1      -1.256  13.552  20.692  0.00  0.00    +0.000 NA
ATOM     10  C   UNL     1      -2.329  12.777  20.479  0.00  0.00    +0.000 A 
ATOM     11  N   UNL     1      -2.213  11.583  19.753  0.00  0.00    +0.000 N 
ATOM     12  C   UNL     1      -3.509  13.136  21.043  0.00  0.00    +0.000 A 
ATOM     13  C   UNL     1      -3.490  14.285  21.794  0.00  0.00    +0.000 A 
ATOM     14  N   UNL     1      -2.435  15.056  22.065  0.00  0.00    +0.000 NA
ATOM     15  C   UNL     1      -4.845  14.497  22.338  0.00  0.00    +0.000 C 
ATOM     16  O   UNL     1      -5.181  15.375  23.109  0.00  0.00    +0.000 OA
ATOM     17  N   UNL     1      -5.637  13.462  21.838  0.00  0.00    +0.000 N 
ATOM     18  C   UNL     1      -4.863  12.551  21.001  0.00  0.00    +0.000 C 
ATOM     19  C   UNL     1      -0.031  16.219  22.842  0.00  0.00    +0.000 C 
ATOM     20  C   UNL     1       0.999  17.340  22.594  0.00  0.00    +0.000 C 
ATOM     21  H   UNL     1      -2.222  10.809  20.415  0.00  0.00    +0.000 HD
ENDROOT
BRANCH  11  22
ATOM     22  C   UNL     1      -1.121  11.430  18.740  0.00  0.00    +0.000 C 
ATOM     23  C   UNL     1      -1.414  10.162  17.907  0.00  0.00    +0.000 C 
ATOM     24  C   UNL     1      -0.954  12.691  17.872  0.00  0.00    +0.000 C 
BRANCH  22  25
ATOM     25  C   UNL     1       0.223  11.223  19.534  0.00  0.00    +0.000 C 
BRANCH  25  26
ATOM     26  C   UNL     1       0.981   9.927  19.284  0.00  0.00    +0.000 A 
ATOM     27  C   UNL     1       1.047   8.923  20.263  0.00  0.00    +0.000 A 
ATOM     28  C   UNL     1       1.769   7.746  20.035  0.00  0.00    +0.000 A 
ATOM     29  C   UNL     1       2.423   7.556  18.821  0.00  0.00    +0.000 A 
ATOM     30 CL   UNL     1       3.311   6.111  18.539  0.00  0.00    +0.000 Cl
ATOM     31  C   UNL     1       2.361   8.531  17.833  0.00  0.00    +0.000 A 
ATOM     32  C   UNL     1       1.641   9.709  18.062  0.00  0.00    +0.000 A 
ENDBRANCH  25  26
ENDBRANCH  22  25
ENDBRANCH  11  22
BRANCH  17  33
ATOM     33  C   UNL     1      -6.932  13.119  22.421  0.00  0.00    +0.000 C 
ATOM     34  C   UNL     1      -7.889  14.308  22.467  0.00  0.00    +0.000 C 
ATOM     35  C   UNL     1      -7.560  11.944  21.668  0.00  0.00    +0.000 C 
ENDBRANCH  17  33
TORSDOF 4
ENDMDL
