MODEL 1
REMARK VINA RESULT:      -6.9      0.000      0.000
REMARK  Name = 
REMARK  9 active torsions:
REMARK  status: ('A' for Active; 'I' for Inactive)
REMARK    1  A    between atoms: C_1  and  C_2
REMARK    2  A    between atoms: C_2  and  C_3
REMARK    3  A    between atoms: C_3  and  C_4
REMARK    4  A    between atoms: C_4  and  N_5
REMARK    5  A    between atoms: C_6  and  N_7
REMARK    6  A    between atoms: C_8  and  N_9
REMARK    7  A    between atoms: N_9  and  C_10
REMARK    8  A    between atoms: C_10  and  C_11
REMARK    9  A    between atoms: C_12  and  C_14
REMARK                            x       y       z     vdW  Elec       q    Type
REMARK                         _______ _______ _______ _____ _____    ______ ____
ROOT
ATOM      1  N   UNL     1      -1.126  11.924  18.700  0.00  0.00    +0.000 N 
ATOM      2  C   UNL     1      -0.467  10.691  18.578  0.00  0.00    +0.000 A 
ATOM      3  C   UNL     1       0.569  10.387  19.407  0.00  0.00    +0.000 A 
ATOM      4  C   UNL     1       1.019  11.456  20.359  0.00  0.00    +0.000 A 
ATOM      5  O   UNL     1       1.710  11.194  21.350  0.00  0.00    +0.000 OA
ATOM      6  N   UNL     1       0.558  12.708  20.117  0.00  0.00    +0.000 N 
ATOM      7  C   UNL     1      -0.625  12.953  19.495  0.00  0.00    +0.000 A 
ATOM      8  O   UNL     1      -1.174  14.043  19.668  0.00  0.00    +0.000 OA
ATOM      9  H   UNL     1       0.848  13.418  20.772  0.00  0.00    +0.000 HD
ENDROOT
BRANCH   2  10
ATOM     10  N   UNL     1      -0.853   9.780  17.598  0.00  0.00    +0.000 N 
ATOM     11  H   UNL     1      -1.580  10.157  16.999  0.00  0.00    +0.000 HD
ATOM     12  H   UNL     1      -0.043   9.531  17.026  0.00  0.00    +0.000 HD
ENDBRANCH   2  10
BRANCH   3  13
ATOM     13  N   UNL     1       1.211   9.128  19.481  0.00  0.00    +0.000 N 
ATOM     14  C   UNL     1       2.018   8.717  18.390  0.00  0.00    +0.000 C 
ATOM     15  O   UNL     1       2.126   9.407  17.370  0.00  0.00    +0.000 OA
BRANCH  14  16
ATOM     16  C   UNL     1       2.715   7.324  18.470  0.00  0.00    +0.000 C 
ATOM     17  C   UNL     1       3.957   7.221  17.590  0.00  0.00    +0.000 C 
ATOM     18  O   UNL     1       4.737   6.121  18.125  0.00  0.00    +0.000 OA
ATOM     19  C   UNL     1       3.958   4.984  18.148  0.00  0.00    +0.000 A 
ATOM     20  C   UNL     1       4.608   3.756  18.259  0.00  0.00    +0.000 A 
ATOM     21  C   UNL     1       3.894   2.581  18.027  0.00  0.00    +0.000 A 
ATOM     22  C   UNL     1       2.545   2.648  17.669  0.00  0.00    +0.000 A 
ATOM     23  C   UNL     1       1.870   3.876  17.681  0.00  0.00    +0.000 A 
ATOM     24  C   UNL     1       2.565   5.043  17.991  0.00  0.00    +0.000 A 
ATOM     25  O   UNL     1       1.851   6.226  18.106  0.00  0.00    +0.000 OA
ENDBRANCH  14  16
BRANCH  13  26
ATOM     26  C   UNL     1       1.060   8.289  20.689  0.00  0.00    +0.000 C 
ATOM     27  C   UNL     1      -0.256   8.339  21.459  0.00  0.00    +0.000 C 
ENDBRANCH  13  26
ENDBRANCH   3  13
BRANCH   1  28
ATOM     28  C   UNL     1      -2.384  12.210  17.987  0.00  0.00    +0.000 C 
BRANCH  28  29
ATOM     29  C   UNL     1      -3.657  11.718  18.693  0.00  0.00    +0.000 C 
BRANCH  29  31
ATOM     30  C   UNL     1      -4.150  11.043  16.321  0.00  0.00    +0.000 C 
ATOM     31  C   UNL     1      -4.715  11.187  17.726  0.00  0.00    +0.000 C 
ENDBRANCH  29  31
ENDBRANCH  28  29
ENDBRANCH   1  28
TORSDOF 7
ENDMDL
MODEL 2
REMARK VINA RESULT:      -6.5      4.050      8.611
REMARK  Name = 
REMARK  9 active torsions:
REMARK  status: ('A' for Active; 'I' for Inactive)
REMARK    1  A    between atoms: C_1  and  C_2
REMARK    2  A    between atoms: C_2  and  C_3
REMARK    3  A    between atoms: C_3  and  C_4
REMARK    4  A    between atoms: C_4  and  N_5
REMARK    5  A    between atoms: C_6  and  N_7
REMARK    6  A    between atoms: C_8  and  N_9
REMARK    7  A    between atoms: N_9  and  C_10
REMARK    8  A    between atoms: C_10  and  C_11
REMARK    9  A    between atoms: C_12  and  C_14
REMARK                            x       y       z     vdW  Elec       q    Type
REMARK                         _______ _______ _______ _____ _____    ______ ____
ROOT
ATOM      1  N   UNL     1       6.118   4.428  14.911  0.00  0.00    +0.000 N 
ATOM      2  C   UNL     1       5.343   4.605  16.066  0.00  0.00    +0.000 A 
ATOM      3  C   UNL     1       5.615   5.630  16.920  0.00  0.00    +0.000 A 
ATOM      4  C   UNL     1       6.820   6.470  16.617  0.00  0.00    +0.000 A 
ATOM      5  O   UNL     1       6.974   7.589  17.118  0.00  0.00    +0.000 OA
ATOM      6  N   UNL     1       7.687   5.969  15.703  0.00  0.00    +0.000 N 
ATOM      7  C   UNL     1       7.304   5.131  14.704  0.00  0.00    +0.000 A 
ATOM      8  O   UNL     1       8.009   5.044  13.697  0.00  0.00    +0.000 OA
ATOM      9  H   UNL     1       8.484   6.548  15.488  0.00  0.00    +0.000 HD
ENDROOT
BRANCH   2  10
ATOM     10  N   UNL     1       4.305   3.723  16.360  0.00  0.00    +0.000 N 
ATOM     11  H   UNL     1       4.633   2.766  16.429  0.00  0.00    +0.000 HD
ATOM     12  H   UNL     1       3.868   3.994  17.244  0.00  0.00    +0.000 HD
ENDBRANCH   2  10
BRANCH   3  13
ATOM     13  N   UNL     1       4.819   5.998  18.031  0.00  0.00    +0.000 N 
ATOM     14  C   UNL     1       3.762   6.922  17.828  0.00  0.00    +0.000 C 
ATOM     15  O   UNL     1       3.562   7.441  16.724  0.00  0.00    +0.000 OA
BRANCH  14  16
ATOM     16  C   UNL     1       2.895   7.334  19.056  0.00  0.00    +0.000 C 
ATOM     17  C   UNL     1       1.868   6.278  19.450  0.00  0.00    +0.000 C 
ATOM     18  O   UNL     1       1.510   6.560  20.828  0.00  0.00    +0.000 OA
ATOM     19  C   UNL     1       1.057   7.858  20.919  0.00  0.00    +0.000 A 
ATOM     20  C   UNL     1       0.317   8.206  22.048  0.00  0.00    +0.000 A 
ATOM     21  C   UNL     1      -0.376   9.416  22.065  0.00  0.00    +0.000 A 
ATOM     22  C   UNL     1      -0.335  10.254  20.947  0.00  0.00    +0.000 A 
ATOM     23  C   UNL     1       0.509   9.956  19.869  0.00  0.00    +0.000 A 
ATOM     24  C   UNL     1       1.263   8.785  19.887  0.00  0.00    +0.000 A 
ATOM     25  O   UNL     1       2.173   8.570  18.863  0.00  0.00    +0.000 OA
ENDBRANCH  14  16
BRANCH  13  26
ATOM     26  C   UNL     1       5.076   5.400  19.358  0.00  0.00    +0.000 C 
ATOM     27  C   UNL     1       4.704   3.938  19.590  0.00  0.00    +0.000 C 
ENDBRANCH  13  26
ENDBRANCH   3  13
BRANCH   1  28
ATOM     28  C   UNL     1       5.732   3.483  13.848  0.00  0.00    +0.000 C 
BRANCH  28  29
ATOM     29  C   UNL     1       4.892   4.089  12.713  0.00  0.00    +0.000 C 
BRANCH  29  31
ATOM     30  C   UNL     1       5.745   2.040  11.531  0.00  0.00    +0.000 C 
ATOM     31  C   UNL     1       4.686   3.132  11.539  0.00  0.00    +0.000 C 
ENDBRANCH  29  31
ENDBRANCH  28  29
ENDBRANCH   1  28
TORSDOF 7
ENDMDL
MODEL 3
REMARK VINA RESULT:      -6.4      2.231      3.366
REMARK  Name = 
REMARK  9 active torsions:
REMARK  status: ('A' for Active; 'I' for Inactive)
REMARK    1  A    between atoms: C_1  and  C_2
REMARK    2  A    between atoms: C_2  and  C_3
REMARK    3  A    between atoms: C_3  and  C_4
REMARK    4  A    between atoms: C_4  and  N_5
REMARK    5  A    between atoms: C_6  and  N_7
REMARK    6  A    between atoms: C_8  and  N_9
REMARK    7  A    between atoms: N_9  and  C_10
REMARK    8  A    between atoms: C_10  and  C_11
REMARK    9  A    between atoms: C_12  and  C_14
REMARK                            x       y       z     vdW  Elec       q    Type
REMARK                         _______ _______ _______ _____ _____    ______ ____
ROOT
ATOM      1  N   UNL     1      -3.340  13.053  20.756  0.00  0.00    +0.000 N 
ATOM      2  C   UNL     1      -2.262  12.549  20.014  0.00  0.00    +0.000 A 
ATOM      3  C   UNL     1      -1.116  12.173  20.646  0.00  0.00    +0.000 A 
ATOM      4  C   UNL     1      -1.038  12.421  22.124  0.00  0.00    +0.000 A 
ATOM      5  O   UNL     1      -0.209  11.844  22.835  0.00  0.00    +0.000 OA
ATOM      6  N   UNL     1      -1.978  13.248  22.645  0.00  0.00    +0.000 N 
ATOM      7  C   UNL     1      -3.215  13.395  22.101  0.00  0.00    +0.000 A 
ATOM      8  O   UNL     1      -4.131  13.811  22.812  0.00  0.00    +0.000 OA
ATOM      9  H   UNL     1      -1.932  13.394  23.641  0.00  0.00    +0.000 HD
ENDROOT
BRANCH   2  10
ATOM     10  N   UNL     1      -2.346  12.447  18.627  0.00  0.00    +0.000 N 
ATOM     11  H   UNL     1      -1.642  11.822  18.253  0.00  0.00    +0.000 HD
ATOM     12  H   UNL     1      -3.273  12.103  18.367  0.00  0.00    +0.000 HD
ENDBRANCH   2  10
BRANCH   3  13
ATOM     13  N   UNL     1      -0.023  11.517  20.031  0.00  0.00    +0.000 N 
ATOM     14  C   UNL     1      -0.013  10.099  20.010  0.00  0.00    +0.000 C 
ATOM     15  O   UNL     1      -0.903   9.438  20.556  0.00  0.00    +0.000 OA
BRANCH  14  16
ATOM     16  C   UNL     1       1.198   9.379  19.341  0.00  0.00    +0.000 C 
ATOM     17  C   UNL     1       1.018   9.164  17.842  0.00  0.00    +0.000 C 
ATOM     18  O   UNL     1       2.350   8.962  17.303  0.00  0.00    +0.000 OA
ATOM     19  C   UNL     1       2.948   7.910  17.962  0.00  0.00    +0.000 A 
ATOM     20  C   UNL     1       4.052   7.312  17.357  0.00  0.00    +0.000 A 
ATOM     21  C   UNL     1       4.526   6.095  17.848  0.00  0.00    +0.000 A 
ATOM     22  C   UNL     1       3.879   5.484  18.926  0.00  0.00    +0.000 A 
ATOM     23  C   UNL     1       2.851   6.150  19.605  0.00  0.00    +0.000 A 
ATOM     24  C   UNL     1       2.429   7.402  19.163  0.00  0.00    +0.000 A 
ATOM     25  O   UNL     1       1.491   8.087  19.918  0.00  0.00    +0.000 OA
ENDBRANCH  14  16
BRANCH  13  26
ATOM     26  C   UNL     1       1.057  12.306  19.401  0.00  0.00    +0.000 C 
ATOM     27  C   UNL     1       2.015  13.086  20.296  0.00  0.00    +0.000 C 
ENDBRANCH  13  26
ENDBRANCH   3  13
BRANCH   1  28
ATOM     28  C   UNL     1      -4.671  13.261  20.156  0.00  0.00    +0.000 C 
BRANCH  28  29
ATOM     29  C   UNL     1      -5.623  12.060  20.254  0.00  0.00    +0.000 C 
BRANCH  29  31
ATOM     30  C   UNL     1      -6.987  11.901  18.147  0.00  0.00    +0.000 C 
ATOM     31  C   UNL     1      -5.810  11.329  18.924  0.00  0.00    +0.000 C 
ENDBRANCH  29  31
ENDBRANCH  28  29
ENDBRANCH   1  28
TORSDOF 7
ENDMDL
MODEL 4
REMARK VINA RESULT:      -6.4      1.346      1.352
REMARK  Name = 
REMARK  9 active torsions:
REMARK  status: ('A' for Active; 'I' for Inactive)
REMARK    1  A    between atoms: C_1  and  C_2
REMARK    2  A    between atoms: C_2  and  C_3
REMARK    3  A    between atoms: C_3  and  C_4
REMARK    4  A    between atoms: C_4  and  N_5
REMARK    5  A    between atoms: C_6  and  N_7
REMARK    6  A    between atoms: C_8  and  N_9
REMARK    7  A    between atoms: N_9  and  C_10
REMARK    8  A    between atoms: C_10  and  C_11
REMARK    9  A    between atoms: C_12  and  C_14
REMARK                            x       y       z     vdW  Elec       q    Type
REMARK                         _______ _______ _______ _____ _____    ______ ____
ROOT
ATOM      1  N   UNL     1      -0.924  11.806  18.492  0.00  0.00    +0.000 N 
ATOM      2  C   UNL     1      -0.335  10.540  18.626  0.00  0.00    +0.000 A 
ATOM      3  C   UNL     1       0.634  10.335  19.559  0.00  0.00    +0.000 A 
ATOM      4  C   UNL     1       1.096  11.530  20.340  0.00  0.00    +0.000 A 
ATOM      5  O   UNL     1       1.715  11.412  21.403  0.00  0.00    +0.000 OA
ATOM      6  N   UNL     1       0.725  12.742  19.857  0.00  0.00    +0.000 N 
ATOM      7  C   UNL     1      -0.406  12.932  19.128  0.00  0.00    +0.000 A 
ATOM      8  O   UNL     1      -0.896  14.061  19.075  0.00  0.00    +0.000 OA
ATOM      9  H   UNL     1       1.022  13.540  20.397  0.00  0.00    +0.000 HD
ENDROOT
BRANCH   2  10
ATOM     10  N   UNL     1      -0.722   9.491  17.795  0.00  0.00    +0.000 N 
ATOM     11  H   UNL     1      -1.638   9.651  17.390  0.00  0.00    +0.000 HD
ATOM     12  H   UNL     1      -0.037   9.381  17.044  0.00  0.00    +0.000 HD
ENDBRANCH   2  10
BRANCH   3  13
ATOM     13  N   UNL     1       1.195   9.077  19.890  0.00  0.00    +0.000 N 
ATOM     14  C   UNL     1       2.033   8.441  18.939  0.00  0.00    +0.000 C 
ATOM     15  O   UNL     1       2.237   8.935  17.825  0.00  0.00    +0.000 OA
BRANCH  14  16
ATOM     16  C   UNL     1       2.639   7.051  19.303  0.00  0.00    +0.000 C 
ATOM     17  C   UNL     1       3.112   6.263  18.085  0.00  0.00    +0.000 C 
ATOM     18  O   UNL     1       4.056   5.281  18.584  0.00  0.00    +0.000 OA
ATOM     19  C   UNL     1       3.443   4.519  19.554  0.00  0.00    +0.000 A 
ATOM     20  C   UNL     1       4.030   3.298  19.884  0.00  0.00    +0.000 A 
ATOM     21  C   UNL     1       3.317   2.384  20.660  0.00  0.00    +0.000 A 
ATOM     22  C   UNL     1       2.021   2.693  21.080  0.00  0.00    +0.000 A 
ATOM     23  C   UNL     1       1.487   3.968  20.850  0.00  0.00    +0.000 A 
ATOM     24  C   UNL     1       2.231   4.910  20.143  0.00  0.00    +0.000 A 
ATOM     25  O   UNL     1       1.728   6.196  20.027  0.00  0.00    +0.000 OA
ENDBRANCH  14  16
BRANCH  13  26
ATOM     26  C   UNL     1       0.929   8.472  21.212  0.00  0.00    +0.000 C 
ATOM     27  C   UNL     1      -0.492   8.511  21.766  0.00  0.00    +0.000 C 
ENDBRANCH  13  26
ENDBRANCH   3  13
BRANCH   1  28
ATOM     28  C   UNL     1      -2.123  12.025  17.662  0.00  0.00    +0.000 C 
BRANCH  28  29
ATOM     29  C   UNL     1      -3.450  11.611  18.314  0.00  0.00    +0.000 C 
BRANCH  29  31
ATOM     30  C   UNL     1      -3.805  10.806  15.958  0.00  0.00    +0.000 C 
ATOM     31  C   UNL     1      -4.370  10.836  17.371  0.00  0.00    +0.000 C 
ENDBRANCH  29  31
ENDBRANCH  28  29
ENDBRANCH   1  28
TORSDOF 7
ENDMDL
MODEL 5
REMARK VINA RESULT:      -6.2      7.652     11.546
REMARK  Name = 
REMARK  9 active torsions:
REMARK  status: ('A' for Active; 'I' for Inactive)
REMARK    1  A    between atoms: C_1  and  C_2
REMARK    2  A    between atoms: C_2  and  C_3
REMARK    3  A    between atoms: C_3  and  C_4
REMARK    4  A    between atoms: C_4  and  N_5
REMARK    5  A    between atoms: C_6  and  N_7
REMARK    6  A    between atoms: C_8  and  N_9
REMARK    7  A    between atoms: N_9  and  C_10
REMARK    8  A    between atoms: C_10  and  C_11
REMARK    9  A    between atoms: C_12  and  C_14
REMARK                            x       y       z     vdW  Elec       q    Type
REMARK                         _______ _______ _______ _____ _____    ______ ____
ROOT
ATOM      1  N   UNL     1       9.893  14.874  19.158  0.00  0.00    +0.000 N 
ATOM      2  C   UNL     1       8.543  15.032  19.505  0.00  0.00    +0.000 A 
ATOM      3  C   UNL     1       7.904  16.205  19.243  0.00  0.00    +0.000 A 
ATOM      4  C   UNL     1       8.731  17.322  18.676  0.00  0.00    +0.000 A 
ATOM      5  O   UNL     1       8.212  18.291  18.112  0.00  0.00    +0.000 OA
ATOM      6  N   UNL     1      10.076  17.167  18.743  0.00  0.00    +0.000 N 
ATOM      7  C   UNL     1      10.680  15.949  18.749  0.00  0.00    +0.000 A 
ATOM      8  O   UNL     1      11.860  15.869  18.401  0.00  0.00    +0.000 OA
ATOM      9  H   UNL     1      10.625  17.911  18.342  0.00  0.00    +0.000 HD
ENDROOT
BRANCH   2  10
ATOM     10  N   UNL     1       7.853  14.000  20.136  0.00  0.00    +0.000 N 
ATOM     11  H   UNL     1       8.475  13.252  20.423  0.00  0.00    +0.000 HD
ATOM     12  H   UNL     1       7.369  14.367  20.959  0.00  0.00    +0.000 HD
ENDBRANCH   2  10
BRANCH   3  13
ATOM     13  N   UNL     1       6.517  16.433  19.408  0.00  0.00    +0.000 N 
ATOM     14  C   UNL     1       5.619  15.814  18.502  0.00  0.00    +0.000 C 
ATOM     15  O   UNL     1       6.025  15.131  17.555  0.00  0.00    +0.000 OA
BRANCH  14  16
ATOM     16  C   UNL     1       4.092  16.075  18.680  0.00  0.00    +0.000 C 
ATOM     17  C   UNL     1       3.245  14.815  18.540  0.00  0.00    +0.000 C 
ATOM     18  O   UNL     1       1.983  15.105  19.196  0.00  0.00    +0.000 OA
ATOM     19  C   UNL     1       1.428  16.231  18.628  0.00  0.00    +0.000 A 
ATOM     20  C   UNL     1       0.069  16.458  18.838  0.00  0.00    +0.000 A 
ATOM     21  C   UNL     1      -0.587  17.428  18.079  0.00  0.00    +0.000 A 
ATOM     22  C   UNL     1       0.119  18.146  17.111  0.00  0.00    +0.000 A 
ATOM     23  C   UNL     1       1.508  18.000  16.993  0.00  0.00    +0.000 A 
ATOM     24  C   UNL     1       2.177  17.087  17.806  0.00  0.00    +0.000 A 
ATOM     25  O   UNL     1       3.561  17.043  17.749  0.00  0.00    +0.000 OA
ENDBRANCH  14  16
BRANCH  13  26
ATOM     26  C   UNL     1       6.031  17.272  20.524  0.00  0.00    +0.000 C 
ATOM     27  C   UNL     1       5.933  16.658  21.917  0.00  0.00    +0.000 C 
ENDBRANCH  13  26
ENDBRANCH   3  13
BRANCH   1  28
ATOM     28  C   UNL     1      10.565  13.563  19.211  0.00  0.00    +0.000 C 
BRANCH  28  29
ATOM     29  C   UNL     1      10.483  12.737  17.919  0.00  0.00    +0.000 C 
BRANCH  29  31
ATOM     30  C   UNL     1       9.808  10.965  19.570  0.00  0.00    +0.000 C 
ATOM     31  C   UNL     1       9.792  11.388  18.109  0.00  0.00    +0.000 C 
ENDBRANCH  29  31
ENDBRANCH  28  29
ENDBRANCH   1  28
TORSDOF 7
ENDMDL
MODEL 6
REMARK VINA RESULT:      -6.1      6.229      9.711
REMARK  Name = 
REMARK  9 active torsions:
REMARK  status: ('A' for Active; 'I' for Inactive)
REMARK    1  A    between atoms: C_1  and  C_2
REMARK    2  A    between atoms: C_2  and  C_3
REMARK    3  A    between atoms: C_3  and  C_4
REMARK    4  A    between atoms: C_4  and  N_5
REMARK    5  A    between atoms: C_6  and  N_7
REMARK    6  A    between atoms: C_8  and  N_9
REMARK    7  A    between atoms: N_9  and  C_10
REMARK    8  A    between atoms: C_10  and  C_11
REMARK    9  A    between atoms: C_12  and  C_14
REMARK                            x       y       z     vdW  Elec       q    Type
REMARK                         _______ _______ _______ _____ _____    ______ ____
ROOT
ATOM      1  N   UNL     1      -4.515  11.962  18.910  0.00  0.00    +0.000 N 
ATOM      2  C   UNL     1      -3.651  12.480  19.886  0.00  0.00    +0.000 A 
ATOM      3  C   UNL     1      -4.104  12.700  21.151  0.00  0.00    +0.000 A 
ATOM      4  C   UNL     1      -5.564  12.463  21.405  0.00  0.00    +0.000 A 
ATOM      5  O   UNL     1      -6.008  12.320  22.549  0.00  0.00    +0.000 OA
ATOM      6  N   UNL     1      -6.351  12.334  20.309  0.00  0.00    +0.000 N 
ATOM      7  C   UNL     1      -5.890  11.864  19.119  0.00  0.00    +0.000 A 
ATOM      8  O   UNL     1      -6.694  11.389  18.316  0.00  0.00    +0.000 OA
ATOM      9  H   UNL     1      -7.327  12.155  20.486  0.00  0.00    +0.000 HD
ENDROOT
BRANCH   2  10
ATOM     10  N   UNL     1      -2.332  12.791  19.565  0.00  0.00    +0.000 N 
ATOM     11  H   UNL     1      -1.751  12.866  20.393  0.00  0.00    +0.000 HD
ATOM     12  H   UNL     1      -1.950  12.066  18.953  0.00  0.00    +0.000 HD
ENDBRANCH   2  10
BRANCH   3  13
ATOM     13  N   UNL     1      -3.298  13.076  22.252  0.00  0.00    +0.000 N 
ATOM     14  C   UNL     1      -3.155  14.457  22.544  0.00  0.00    +0.000 C 
ATOM     15  O   UNL     1      -3.673  15.324  21.833  0.00  0.00    +0.000 OA
BRANCH  14  16
ATOM     16  C   UNL     1      -2.257  14.867  23.751  0.00  0.00    +0.000 C 
ATOM     17  C   UNL     1      -3.054  15.343  24.960  0.00  0.00    +0.000 C 
ATOM     18  O   UNL     1      -2.169  15.211  26.102  0.00  0.00    +0.000 OA
ATOM     19  C   UNL     1      -1.015  15.925  25.863  0.00  0.00    +0.000 A 
ATOM     20  C   UNL     1      -0.213  16.243  26.958  0.00  0.00    +0.000 A 
ATOM     21  C   UNL     1       0.814  17.175  26.805  0.00  0.00    +0.000 A 
ATOM     22  C   UNL     1       1.016  17.788  25.566  0.00  0.00    +0.000 A 
ATOM     23  C   UNL     1       0.288  17.372  24.443  0.00  0.00    +0.000 A 
ATOM     24  C   UNL     1      -0.685  16.384  24.579  0.00  0.00    +0.000 A 
ATOM     25  O   UNL     1      -1.310  15.911  23.436  0.00  0.00    +0.000 OA
ENDBRANCH  14  16
BRANCH  13  26
ATOM     26  C   UNL     1      -2.654  12.040  23.087  0.00  0.00    +0.000 C 
ATOM     27  C   UNL     1      -1.252  11.564  22.717  0.00  0.00    +0.000 C 
ENDBRANCH  13  26
ENDBRANCH   3  13
BRANCH   1  28
ATOM     28  C   UNL     1      -4.025  11.497  17.600  0.00  0.00    +0.000 C 
BRANCH  28  29
ATOM     29  C   UNL     1      -3.433  10.079  17.593  0.00  0.00    +0.000 C 
BRANCH  29  31
ATOM     30  C   UNL     1      -3.002  10.628  15.178  0.00  0.00    +0.000 C 
ATOM     31  C   UNL     1      -2.558   9.797  16.373  0.00  0.00    +0.000 C 
ENDBRANCH  29  31
ENDBRANCH  28  29
ENDBRANCH   1  28
TORSDOF 7
ENDMDL
MODEL 7
REMARK VINA RESULT:      -6.1      2.773      3.848
REMARK  Name = 
REMARK  9 active torsions:
REMARK  status: ('A' for Active; 'I' for Inactive)
REMARK    1  A    between atoms: C_1  and  C_2
REMARK    2  A    between atoms: C_2  and  C_3
REMARK    3  A    between atoms: C_3  and  C_4
REMARK    4  A    between atoms: C_4  and  N_5
REMARK    5  A    between atoms: C_6  and  N_7
REMARK    6  A    between atoms: C_8  and  N_9
REMARK    7  A    between atoms: N_9  and  C_10
REMARK    8  A    between atoms: C_10  and  C_11
REMARK    9  A    between atoms: C_12  and  C_14
REMARK                            x       y       z     vdW  Elec       q    Type
REMARK                         _______ _______ _______ _____ _____    ______ ____
ROOT
ATOM      1  N   UNL     1      -3.143  12.716  21.423  0.00  0.00    +0.000 N 
ATOM      2  C   UNL     1      -2.036  12.336  20.650  0.00  0.00    +0.000 A 
ATOM      3  C   UNL     1      -0.978  11.711  21.235  0.00  0.00    +0.000 A 
ATOM      4  C   UNL     1      -1.018  11.550  22.727  0.00  0.00    +0.000 A 
ATOM      5  O   UNL     1      -0.295  10.737  23.312  0.00  0.00    +0.000 OA
ATOM      6  N   UNL     1      -1.947  12.287  23.385  0.00  0.00    +0.000 N 
ATOM      7  C   UNL     1      -3.118  12.678  22.816  0.00  0.00    +0.000 A 
ATOM      8  O   UNL     1      -4.067  12.967  23.547  0.00  0.00    +0.000 OA
ATOM      9  H   UNL     1      -1.982  12.159  24.384  0.00  0.00    +0.000 HD
ENDROOT
BRANCH   2  10
ATOM     10  N   UNL     1      -2.001  12.613  19.285  0.00  0.00    +0.000 N 
ATOM     11  H   UNL     1      -1.907  11.768  18.733  0.00  0.00    +0.000 HD
ATOM     12  H   UNL     1      -2.859  13.098  19.015  0.00  0.00    +0.000 HD
ENDBRANCH   2  10
BRANCH   3  13
ATOM     13  N   UNL     1       0.123  11.150  20.543  0.00  0.00    +0.000 N 
ATOM     14  C   UNL     1       0.085   9.768  20.222  0.00  0.00    +0.000 C 
ATOM     15  O   UNL     1      -0.855   9.049  20.577  0.00  0.00    +0.000 OA
BRANCH  14  16
ATOM     16  C   UNL     1       1.303   9.152  19.470  0.00  0.00    +0.000 C 
ATOM     17  C   UNL     1       1.089   9.043  17.964  0.00  0.00    +0.000 C 
ATOM     18  O   UNL     1       2.412   8.937  17.377  0.00  0.00    +0.000 OA
ATOM     19  C   UNL     1       3.069   7.864  17.938  0.00  0.00    +0.000 A 
ATOM     20  C   UNL     1       4.178   7.359  17.261  0.00  0.00    +0.000 A 
ATOM     21  C   UNL     1       4.713   6.129  17.646  0.00  0.00    +0.000 A 
ATOM     22  C   UNL     1       4.122   5.412  18.689  0.00  0.00    +0.000 A 
ATOM     23  C   UNL     1       3.088   5.983  19.444  0.00  0.00    +0.000 A 
ATOM     24  C   UNL     1       2.605   7.246  19.109  0.00  0.00    +0.000 A 
ATOM     25  O   UNL     1       1.662   7.834  19.938  0.00  0.00    +0.000 OA
ENDBRANCH  14  16
BRANCH  13  26
ATOM     26  C   UNL     1       1.261  12.004  20.144  0.00  0.00    +0.000 C 
ATOM     27  C   UNL     1       1.470  13.333  20.863  0.00  0.00    +0.000 C 
ENDBRANCH  13  26
ENDBRANCH   3  13
BRANCH   1  28
ATOM     28  C   UNL     1      -4.398  13.188  20.811  0.00  0.00    +0.000 C 
BRANCH  28  29
ATOM     29  C   UNL     1      -4.553  14.715  20.741  0.00  0.00    +0.000 C 
BRANCH  29  31
ATOM     30  C   UNL     1      -6.060  15.717  22.488  0.00  0.00    +0.000 C 
ATOM     31  C   UNL     1      -5.969  15.192  21.062  0.00  0.00    +0.000 C 
ENDBRANCH  29  31
ENDBRANCH  28  29
ENDBRANCH   1  28
TORSDOF 7
ENDMDL
MODEL 8
REMARK VINA RESULT:      -6.0      2.779      8.487
REMARK  Name = 
REMARK  9 active torsions:
REMARK  status: ('A' for Active; 'I' for Inactive)
REMARK    1  A    between atoms: C_1  and  C_2
REMARK    2  A    between atoms: C_2  and  C_3
REMARK    3  A    between atoms: C_3  and  C_4
REMARK    4  A    between atoms: C_4  and  N_5
REMARK    5  A    between atoms: C_6  and  N_7
REMARK    6  A    between atoms: C_8  and  N_9
REMARK    7  A    between atoms: N_9  and  C_10
REMARK    8  A    between atoms: C_10  and  C_11
REMARK    9  A    between atoms: C_12  and  C_14
REMARK                            x       y       z     vdW  Elec       q    Type
REMARK                         _______ _______ _______ _____ _____    ______ ____
ROOT
ATOM      1  N   UNL     1       2.210   6.787  19.786  0.00  0.00    +0.000 N 
ATOM      2  C   UNL     1       1.365   7.795  20.275  0.00  0.00    +0.000 A 
ATOM      3  C   UNL     1       1.158   8.925  19.545  0.00  0.00    +0.000 A 
ATOM      4  C   UNL     1       1.944   9.073  18.276  0.00  0.00    +0.000 A 
ATOM      5  O   UNL     1       1.611   9.873  17.395  0.00  0.00    +0.000 OA
ATOM      6  N   UNL     1       2.989   8.223  18.114  0.00  0.00    +0.000 N 
ATOM      7  C   UNL     1       3.028   6.986  18.675  0.00  0.00    +0.000 A 
ATOM      8  O   UNL     1       3.765   6.131  18.180  0.00  0.00    +0.000 OA
ATOM      9  H   UNL     1       3.501   8.314  17.250  0.00  0.00    +0.000 HD
ENDROOT
BRANCH   2  10
ATOM     10  N   UNL     1       0.748   7.656  21.517  0.00  0.00    +0.000 N 
ATOM     11  H   UNL     1      -0.124   7.143  21.447  0.00  0.00    +0.000 HD
ATOM     12  H   UNL     1       1.377   7.164  22.156  0.00  0.00    +0.000 HD
ENDBRANCH   2  10
BRANCH   3  13
ATOM     13  N   UNL     1       0.220   9.938  19.858  0.00  0.00    +0.000 N 
ATOM     14  C   UNL     1       0.528  10.843  20.906  0.00  0.00    +0.000 C 
ATOM     15  O   UNL     1       1.563  10.731  21.572  0.00  0.00    +0.000 OA
BRANCH  14  16
ATOM     16  C   UNL     1      -0.512  11.950  21.256  0.00  0.00    +0.000 C 
ATOM     17  C   UNL     1       0.128  13.243  21.752  0.00  0.00    +0.000 C 
ATOM     18  O   UNL     1      -0.867  14.282  21.561  0.00  0.00    +0.000 OA
ATOM     19  C   UNL     1      -2.022  13.927  22.223  0.00  0.00    +0.000 A 
ATOM     20  C   UNL     1      -2.950  14.932  22.488  0.00  0.00    +0.000 A 
ATOM     21  C   UNL     1      -3.999  14.679  23.372  0.00  0.00    +0.000 A 
ATOM     22  C   UNL     1      -4.097  13.431  23.993  0.00  0.00    +0.000 A 
ATOM     23  C   UNL     1      -3.234  12.389  23.628  0.00  0.00    +0.000 A 
ATOM     24  C   UNL     1      -2.234  12.619  22.685  0.00  0.00    +0.000 A 
ATOM     25  O   UNL     1      -1.469  11.545  22.259  0.00  0.00    +0.000 OA
ENDBRANCH  14  16
BRANCH  13  26
ATOM     26  C   UNL     1      -1.032  10.055  19.081  0.00  0.00    +0.000 C 
ATOM     27  C   UNL     1      -1.238  11.286  18.202  0.00  0.00    +0.000 C 
ENDBRANCH  13  26
ENDBRANCH   3  13
BRANCH   1  28
ATOM     28  C   UNL     1       2.292   5.460  20.422  0.00  0.00    +0.000 C 
BRANCH  28  29
ATOM     29  C   UNL     1       1.241   4.445  19.947  0.00  0.00    +0.000 C 
BRANCH  29  31
ATOM     30  C   UNL     1       2.457   2.990  21.598  0.00  0.00    +0.000 C 
ATOM     31  C   UNL     1       1.160   3.202  20.832  0.00  0.00    +0.000 C 
ENDBRANCH  29  31
ENDBRANCH  28  29
ENDBRANCH   1  28
TORSDOF 7
ENDMDL
MODEL 9
REMARK VINA RESULT:      -6.0      2.793      4.652
REMARK  Name = 
REMARK  9 active torsions:
REMARK  status: ('A' for Active; 'I' for Inactive)
REMARK    1  A    between atoms: C_1  and  C_2
REMARK    2  A    between atoms: C_2  and  C_3
REMARK    3  A    between atoms: C_3  and  C_4
REMARK    4  A    between atoms: C_4  and  N_5
REMARK    5  A    between atoms: C_6  and  N_7
REMARK    6  A    between atoms: C_8  and  N_9
REMARK    7  A    between atoms: N_9  and  C_10
REMARK    8  A    between atoms: C_10  and  C_11
REMARK    9  A    between atoms: C_12  and  C_14
REMARK                            x       y       z     vdW  Elec       q    Type
REMARK                         _______ _______ _______ _____ _____    ______ ____
ROOT
ATOM      1  N   UNL     1      -1.625  14.794  21.195  0.00  0.00    +0.000 N 
ATOM      2  C   UNL     1      -1.553  13.399  21.069  0.00  0.00    +0.000 A 
ATOM      3  C   UNL     1      -0.895  12.842  20.015  0.00  0.00    +0.000 A 
ATOM      4  C   UNL     1      -0.359  13.778  18.972  0.00  0.00    +0.000 A 
ATOM      5  O   UNL     1       0.509  13.425  18.167  0.00  0.00    +0.000 OA
ATOM      6  N   UNL     1      -0.820  15.053  19.016  0.00  0.00    +0.000 N 
ATOM      7  C   UNL     1      -1.237  15.648  20.165  0.00  0.00    +0.000 A 
ATOM      8  O   UNL     1      -1.247  16.879  20.227  0.00  0.00    +0.000 OA
ATOM      9  H   UNL     1      -0.441  15.682  18.326  0.00  0.00    +0.000 HD
ENDROOT
BRANCH   2  10
ATOM     10  N   UNL     1      -2.169  12.573  22.008  0.00  0.00    +0.000 N 
ATOM     11  H   UNL     1      -2.988  12.114  21.624  0.00  0.00    +0.000 HD
ATOM     12  H   UNL     1      -1.504  11.865  22.326  0.00  0.00    +0.000 HD
ENDBRANCH   2  10
BRANCH   3  13
ATOM     13  N   UNL     1      -0.627  11.461  19.858  0.00  0.00    +0.000 N 
ATOM     14  C   UNL     1       0.541  10.927  20.460  0.00  0.00    +0.000 C 
ATOM     15  O   UNL     1       1.342  11.648  21.066  0.00  0.00    +0.000 OA
BRANCH  14  16
ATOM     16  C   UNL     1       0.839   9.408  20.276  0.00  0.00    +0.000 C 
ATOM     17  C   UNL     1       1.475   8.766  21.504  0.00  0.00    +0.000 C 
ATOM     18  O   UNL     1       1.237   7.340  21.380  0.00  0.00    +0.000 OA
ATOM     19  C   UNL     1       1.748   6.901  20.178  0.00  0.00    +0.000 A 
ATOM     20  C   UNL     1       1.967   5.532  20.030  0.00  0.00    +0.000 A 
ATOM     21  C   UNL     1       2.716   5.073  18.945  0.00  0.00    +0.000 A 
ATOM     22  C   UNL     1       3.249   5.988  18.034  0.00  0.00    +0.000 A 
ATOM     23  C   UNL     1       2.921   7.347  18.120  0.00  0.00    +0.000 A 
ATOM     24  C   UNL     1       2.107   7.796  19.159  0.00  0.00    +0.000 A 
ATOM     25  O   UNL     1       1.706   9.122  19.157  0.00  0.00    +0.000 OA
ENDBRANCH  14  16
BRANCH  13  26
ATOM     26  C   UNL     1      -1.570  10.603  19.110  0.00  0.00    +0.000 C 
ATOM     27  C   UNL     1      -1.352  10.402  17.613  0.00  0.00    +0.000 C 
ENDBRANCH  13  26
ENDBRANCH   3  13
BRANCH   1  28
ATOM     28  C   UNL     1      -2.124  15.442  22.421  0.00  0.00    +0.000 C 
BRANCH  28  29
ATOM     29  C   UNL     1      -1.084  15.607  23.539  0.00  0.00    +0.000 C 
BRANCH  29  31
ATOM     30  C   UNL     1      -1.440  15.966  26.002  0.00  0.00    +0.000 C 
ATOM     31  C   UNL     1      -1.510  14.965  24.858  0.00  0.00    +0.000 C 
ENDBRANCH  29  31
ENDBRANCH  28  29
ENDBRANCH   1  28
TORSDOF 7
ENDMDL
