MODEL 1
REMARK VINA RESULT:      -6.8      0.000      0.000
REMARK  Name = 
REMARK  6 active torsions:
REMARK  status: ('A' for Active; 'I' for Inactive)
REMARK    1  A    between atoms: C_1  and  C_2
REMARK    2  A    between atoms: N_4  and  C_5
REMARK    3  A    between atoms: C_6  and  C_7
REMARK    4  A    between atoms: N_10  and  O_11
REMARK    5  A    between atoms: O_11  and  C_12
REMARK    6  A    between atoms: C_15  and  N_16
REMARK                            x       y       z     vdW  Elec       q    Type
REMARK                         _______ _______ _______ _____ _____    ______ ____
ROOT
ATOM      1  C   UNL     1       2.355   3.968  21.833  0.00  0.00    +0.000 C 
ATOM      2  C   UNL     1       3.269   3.434  20.712  0.00  0.00    +0.000 C 
ATOM      3  C   UNL     1       2.521   2.360  19.908  0.00  0.00    +0.000 C 
ATOM      4  N   UNL     1       1.371   2.981  19.207  0.00  0.00    +0.000 NA
ATOM      5  C   UNL     1       0.455   1.971  18.658  0.00  0.00    +0.000 C 
ATOM      6  C   UNL     1       1.773   4.032  18.223  0.00  0.00    +0.000 C 
ATOM      7  C   UNL     1       2.589   3.484  17.032  0.00  0.00    +0.000 C 
ATOM      8  C   UNL     1       2.550   5.156  18.949  0.00  0.00    +0.000 C 
ATOM      9  C   UNL     1       3.668   4.535  19.757  0.00  0.00    +0.000 C 
ATOM     10  N   UNL     1       4.910   4.869  19.624  0.00  0.00    +0.000 NA
ENDROOT
BRANCH  10  11
ATOM     11  O   UNL     1       5.295   5.827  18.799  0.00  0.00    +0.000 OA
BRANCH  11  12
ATOM     12  C   UNL     1       5.683   5.588  17.519  0.00  0.00    +0.000 A 
ATOM     13  C   UNL     1       5.009   6.142  16.416  0.00  0.00    +0.000 A 
ATOM     14  C   UNL     1       5.440   5.869  15.112  0.00  0.00    +0.000 A 
ATOM     15  C   UNL     1       6.551   5.035  14.880  0.00  0.00    +0.000 A 
ATOM     16  C   UNL     1       7.219   4.481  15.988  0.00  0.00    +0.000 A 
ATOM     17  C   UNL     1       6.788   4.758  17.292  0.00  0.00    +0.000 A 
BRANCH  15  18
ATOM     18  N   UNL     1       6.992   4.753  13.549  0.00  0.00    +0.000 N 
ATOM     19  O   UNL     1       7.816   5.441  13.024  0.00  0.00    +0.000 OA
ATOM     20  O   UNL     1       6.486   3.738  12.878  0.00  0.00    +0.000 OA
ENDBRANCH  15  18
ENDBRANCH  11  12
ENDBRANCH  10  11
TORSDOF 3
ENDMDL
MODEL 2
REMARK VINA RESULT:      -6.8      0.241      1.300
REMARK  Name = 
REMARK  6 active torsions:
REMARK  status: ('A' for Active; 'I' for Inactive)
REMARK    1  A    between atoms: C_1  and  C_2
REMARK    2  A    between atoms: N_4  and  C_5
REMARK    3  A    between atoms: C_6  and  C_7
REMARK    4  A    between atoms: N_10  and  O_11
REMARK    5  A    between atoms: O_11  and  C_12
REMARK    6  A    between atoms: C_15  and  N_16
REMARK                            x       y       z     vdW  Elec       q    Type
REMARK                         _______ _______ _______ _____ _____    ______ ____
ROOT
ATOM      1  C   UNL     1       2.055   4.415  21.662  0.00  0.00    +0.000 C 
ATOM      2  C   UNL     1       3.096   3.800  20.706  0.00  0.00    +0.000 C 
ATOM      3  C   UNL     1       2.470   2.613  19.958  0.00  0.00    +0.000 C 
ATOM      4  N   UNL     1       1.380   3.105  19.080  0.00  0.00    +0.000 NA
ATOM      5  C   UNL     1       0.558   2.002  18.561  0.00  0.00    +0.000 C 
ATOM      6  C   UNL     1       1.849   4.058  18.028  0.00  0.00    +0.000 C 
ATOM      7  C   UNL     1       2.801   3.417  16.994  0.00  0.00    +0.000 C 
ATOM      8  C   UNL     1       2.511   5.286  18.695  0.00  0.00    +0.000 C 
ATOM      9  C   UNL     1       3.558   4.806  19.676  0.00  0.00    +0.000 C 
ATOM     10  N   UNL     1       4.796   5.176  19.630  0.00  0.00    +0.000 NA
ENDROOT
BRANCH  10  11
ATOM     11  O   UNL     1       5.235   6.053  18.744  0.00  0.00    +0.000 OA
BRANCH  11  12
ATOM     12  C   UNL     1       5.674   5.698  17.509  0.00  0.00    +0.000 A 
ATOM     13  C   UNL     1       6.710   4.765  17.321  0.00  0.00    +0.000 A 
ATOM     14  C   UNL     1       7.134   4.428  16.030  0.00  0.00    +0.000 A 
ATOM     15  C   UNL     1       6.536   5.016  14.899  0.00  0.00    +0.000 A 
ATOM     16  C   UNL     1       5.503   5.951  15.093  0.00  0.00    +0.000 A 
ATOM     17  C   UNL     1       5.078   6.285  16.385  0.00  0.00    +0.000 A 
BRANCH  15  18
ATOM     18  N   UNL     1       6.970   4.674  13.579  0.00  0.00    +0.000 N 
ATOM     19  O   UNL     1       6.557   3.691  13.040  0.00  0.00    +0.000 OA
ATOM     20  O   UNL     1       7.840   5.433  12.944  0.00  0.00    +0.000 OA
ENDBRANCH  15  18
ENDBRANCH  11  12
ENDBRANCH  10  11
TORSDOF 3
ENDMDL
MODEL 3
REMARK VINA RESULT:      -6.7      6.078      8.562
REMARK  Name = 
REMARK  6 active torsions:
REMARK  status: ('A' for Active; 'I' for Inactive)
REMARK    1  A    between atoms: C_1  and  C_2
REMARK    2  A    between atoms: N_4  and  C_5
REMARK    3  A    between atoms: C_6  and  C_7
REMARK    4  A    between atoms: N_10  and  O_11
REMARK    5  A    between atoms: O_11  and  C_12
REMARK    6  A    between atoms: C_15  and  N_16
REMARK                            x       y       z     vdW  Elec       q    Type
REMARK                         _______ _______ _______ _____ _____    ______ ____
ROOT
ATOM      1  C   UNL     1      11.262  11.817  20.469  0.00  0.00    +0.000 C 
ATOM      2  C   UNL     1       9.749  11.651  20.227  0.00  0.00    +0.000 C 
ATOM      3  C   UNL     1       9.101  13.034  20.054  0.00  0.00    +0.000 C 
ATOM      4  N   UNL     1       9.623  13.671  18.821  0.00  0.00    +0.000 NA
ATOM      5  C   UNL     1       9.268  15.096  18.750  0.00  0.00    +0.000 C 
ATOM      6  C   UNL     1       9.306  12.906  17.577  0.00  0.00    +0.000 C 
ATOM      7  C   UNL     1       7.796  12.836  17.262  0.00  0.00    +0.000 C 
ATOM      8  C   UNL     1       9.912  11.486  17.670  0.00  0.00    +0.000 C 
ATOM      9  C   UNL     1       9.478  10.851  18.973  0.00  0.00    +0.000 C 
ATOM     10  N   UNL     1       8.862   9.718  19.040  0.00  0.00    +0.000 NA
ENDROOT
BRANCH  10  11
ATOM     11  O   UNL     1       8.608   8.991  17.965  0.00  0.00    +0.000 OA
BRANCH  11  12
ATOM     12  C   UNL     1       7.853   7.863  17.997  0.00  0.00    +0.000 A 
ATOM     13  C   UNL     1       6.691   7.716  17.217  0.00  0.00    +0.000 A 
ATOM     14  C   UNL     1       5.940   6.536  17.282  0.00  0.00    +0.000 A 
ATOM     15  C   UNL     1       6.329   5.479  18.127  0.00  0.00    +0.000 A 
ATOM     16  C   UNL     1       7.491   5.634  18.907  0.00  0.00    +0.000 A 
ATOM     17  C   UNL     1       8.243   6.813  18.839  0.00  0.00    +0.000 A 
BRANCH  15  18
ATOM     18  N   UNL     1       5.561   4.274  18.195  0.00  0.00    +0.000 N 
ATOM     19  O   UNL     1       5.420   3.703  19.235  0.00  0.00    +0.000 OA
ATOM     20  O   UNL     1       5.010   3.770  17.110  0.00  0.00    +0.000 OA
ENDBRANCH  15  18
ENDBRANCH  11  12
ENDBRANCH  10  11
TORSDOF 3
ENDMDL
MODEL 4
REMARK VINA RESULT:      -6.6      4.692      6.793
REMARK  Name = 
REMARK  6 active torsions:
REMARK  status: ('A' for Active; 'I' for Inactive)
REMARK    1  A    between atoms: C_1  and  C_2
REMARK    2  A    between atoms: N_4  and  C_5
REMARK    3  A    between atoms: C_6  and  C_7
REMARK    4  A    between atoms: N_10  and  O_11
REMARK    5  A    between atoms: O_11  and  C_12
REMARK    6  A    between atoms: C_15  and  N_16
REMARK                            x       y       z     vdW  Elec       q    Type
REMARK                         _______ _______ _______ _____ _____    ______ ____
ROOT
ATOM      1  C   UNL     1       1.287   3.532  20.977  0.00  0.00    +0.000 C 
ATOM      2  C   UNL     1       2.621   4.180  20.558  0.00  0.00    +0.000 C 
ATOM      3  C   UNL     1       3.536   3.114  19.936  0.00  0.00    +0.000 C 
ATOM      4  N   UNL     1       2.932   2.622  18.674  0.00  0.00    +0.000 NA
ATOM      5  C   UNL     1       3.604   1.411  18.183  0.00  0.00    +0.000 C 
ATOM      6  C   UNL     1       2.770   3.687  17.638  0.00  0.00    +0.000 C 
ATOM      7  C   UNL     1       4.110   4.259  17.125  0.00  0.00    +0.000 C 
ATOM      8  C   UNL     1       1.868   4.816  18.188  0.00  0.00    +0.000 C 
ATOM      9  C   UNL     1       2.406   5.266  19.529  0.00  0.00    +0.000 C 
ATOM     10  N   UNL     1       2.722   6.490  19.792  0.00  0.00    +0.000 NA
ENDROOT
BRANCH  10  11
ATOM     11  O   UNL     1       2.547   7.465  18.917  0.00  0.00    +0.000 OA
BRANCH  11  12
ATOM     12  C   UNL     1       1.664   8.480  19.108  0.00  0.00    +0.000 A 
ATOM     13  C   UNL     1       1.104   8.758  20.368  0.00  0.00    +0.000 A 
ATOM     14  C   UNL     1       0.196   9.813  20.521  0.00  0.00    +0.000 A 
ATOM     15  C   UNL     1      -0.174  10.611  19.422  0.00  0.00    +0.000 A 
ATOM     16  C   UNL     1       0.387  10.325  18.163  0.00  0.00    +0.000 A 
ATOM     17  C   UNL     1       1.298   9.271  18.012  0.00  0.00    +0.000 A 
BRANCH  15  18
ATOM     18  N   UNL     1      -1.104  11.688  19.576  0.00  0.00    +0.000 N 
ATOM     19  O   UNL     1      -1.569  11.939  20.648  0.00  0.00    +0.000 OA
ATOM     20  O   UNL     1      -1.469  12.410  18.537  0.00  0.00    +0.000 OA
ENDBRANCH  15  18
ENDBRANCH  11  12
ENDBRANCH  10  11
TORSDOF 3
ENDMDL
MODEL 5
REMARK VINA RESULT:      -6.6      4.656      6.765
REMARK  Name = 
REMARK  6 active torsions:
REMARK  status: ('A' for Active; 'I' for Inactive)
REMARK    1  A    between atoms: C_1  and  C_2
REMARK    2  A    between atoms: N_4  and  C_5
REMARK    3  A    between atoms: C_6  and  C_7
REMARK    4  A    between atoms: N_10  and  O_11
REMARK    5  A    between atoms: O_11  and  C_12
REMARK    6  A    between atoms: C_15  and  N_16
REMARK                            x       y       z     vdW  Elec       q    Type
REMARK                         _______ _______ _______ _____ _____    ______ ____
ROOT
ATOM      1  C   UNL     1       1.083   3.340  20.730  0.00  0.00    +0.000 C 
ATOM      2  C   UNL     1       2.451   4.007  20.489  0.00  0.00    +0.000 C 
ATOM      3  C   UNL     1       3.438   2.968  19.934  0.00  0.00    +0.000 C 
ATOM      4  N   UNL     1       2.983   2.523  18.595  0.00  0.00    +0.000 NA
ATOM      5  C   UNL     1       3.714   1.332  18.137  0.00  0.00    +0.000 C 
ATOM      6  C   UNL     1       2.932   3.626  17.587  0.00  0.00    +0.000 C 
ATOM      7  C   UNL     1       4.318   4.220  17.251  0.00  0.00    +0.000 C 
ATOM      8  C   UNL     1       1.966   4.731  18.074  0.00  0.00    +0.000 C 
ATOM      9  C   UNL     1       2.346   5.130  19.483  0.00  0.00    +0.000 C 
ATOM     10  N   UNL     1       2.622   6.345  19.826  0.00  0.00    +0.000 NA
ENDROOT
BRANCH  10  11
ATOM     11  O   UNL     1       2.541   7.352  18.974  0.00  0.00    +0.000 OA
BRANCH  11  12
ATOM     12  C   UNL     1       1.737   8.428  19.177  0.00  0.00    +0.000 A 
ATOM     13  C   UNL     1       1.404   9.321  18.142  0.00  0.00    +0.000 A 
ATOM     14  C   UNL     1       0.573  10.419  18.395  0.00  0.00    +0.000 A 
ATOM     15  C   UNL     1       0.058  10.652  19.684  0.00  0.00    +0.000 A 
ATOM     16  C   UNL     1       0.397   9.756  20.716  0.00  0.00    +0.000 A 
ATOM     17  C   UNL     1       1.226   8.656  20.461  0.00  0.00    +0.000 A 
BRANCH  15  18
ATOM     18  N   UNL     1      -0.790  11.774  19.944  0.00  0.00    +0.000 N 
ATOM     19  O   UNL     1      -0.782  12.722  19.217  0.00  0.00    +0.000 OA
ATOM     20  O   UNL     1      -1.582  11.784  20.997  0.00  0.00    +0.000 OA
ENDBRANCH  15  18
ENDBRANCH  11  12
ENDBRANCH  10  11
TORSDOF 3
ENDMDL
MODEL 6
REMARK VINA RESULT:      -6.5      4.705      7.136
REMARK  Name = 
REMARK  6 active torsions:
REMARK  status: ('A' for Active; 'I' for Inactive)
REMARK    1  A    between atoms: C_1  and  C_2
REMARK    2  A    between atoms: N_4  and  C_5
REMARK    3  A    between atoms: C_6  and  C_7
REMARK    4  A    between atoms: N_10  and  O_11
REMARK    5  A    between atoms: O_11  and  C_12
REMARK    6  A    between atoms: C_15  and  N_16
REMARK                            x       y       z     vdW  Elec       q    Type
REMARK                         _______ _______ _______ _____ _____    ______ ____
ROOT
ATOM      1  C   UNL     1       1.331   2.870  21.328  0.00  0.00    +0.000 C 
ATOM      2  C   UNL     1       2.564   3.698  20.916  0.00  0.00    +0.000 C 
ATOM      3  C   UNL     1       3.552   2.804  20.151  0.00  0.00    +0.000 C 
ATOM      4  N   UNL     1       2.934   2.370  18.874  0.00  0.00    +0.000 NA
ATOM      5  C   UNL     1       3.703   1.292  18.235  0.00  0.00    +0.000 C 
ATOM      6  C   UNL     1       2.603   3.503  17.958  0.00  0.00    +0.000 C 
ATOM      7  C   UNL     1       3.844   4.266  17.445  0.00  0.00    +0.000 C 
ATOM      8  C   UNL     1       1.617   4.468  18.657  0.00  0.00    +0.000 C 
ATOM      9  C   UNL     1       2.178   4.846  20.011  0.00  0.00    +0.000 C 
ATOM     10  N   UNL     1       2.376   6.068  20.381  0.00  0.00    +0.000 NA
ENDROOT
BRANCH  10  11
ATOM     11  O   UNL     1       2.051   7.095  19.616  0.00  0.00    +0.000 OA
BRANCH  11  12
ATOM     12  C   UNL     1       1.536   8.251  20.111  0.00  0.00    +0.000 A 
ATOM     13  C   UNL     1       1.265   8.424  21.480  0.00  0.00    +0.000 A 
ATOM     14  C   UNL     1       0.733   9.632  21.949  0.00  0.00    +0.000 A 
ATOM     15  C   UNL     1       0.457  10.690  21.063  0.00  0.00    +0.000 A 
ATOM     16  C   UNL     1       0.728  10.509  19.693  0.00  0.00    +0.000 A 
ATOM     17  C   UNL     1       1.263   9.302  19.226  0.00  0.00    +0.000 A 
BRANCH  15  18
ATOM     18  N   UNL     1      -0.089  11.924  21.540  0.00  0.00    +0.000 N 
ATOM     19  O   UNL     1       0.619  12.868  21.726  0.00  0.00    +0.000 OA
ATOM     20  O   UNL     1      -1.377  12.031  21.793  0.00  0.00    +0.000 OA
ENDBRANCH  15  18
ENDBRANCH  11  12
ENDBRANCH  10  11
TORSDOF 3
ENDMDL
MODEL 7
REMARK VINA RESULT:      -6.4      5.039      6.727
REMARK  Name = 
REMARK  6 active torsions:
REMARK  status: ('A' for Active; 'I' for Inactive)
REMARK    1  A    between atoms: C_1  and  C_2
REMARK    2  A    between atoms: N_4  and  C_5
REMARK    3  A    between atoms: C_6  and  C_7
REMARK    4  A    between atoms: N_10  and  O_11
REMARK    5  A    between atoms: O_11  and  C_12
REMARK    6  A    between atoms: C_15  and  N_16
REMARK                            x       y       z     vdW  Elec       q    Type
REMARK                         _______ _______ _______ _____ _____    ______ ____
ROOT
ATOM      1  C   UNL     1       0.502  13.034  18.523  0.00  0.00    +0.000 C 
ATOM      2  C   UNL     1       1.436  12.011  19.199  0.00  0.00    +0.000 C 
ATOM      3  C   UNL     1       1.117  11.938  20.700  0.00  0.00    +0.000 C 
ATOM      4  N   UNL     1      -0.251  11.396  20.887  0.00  0.00    +0.000 NA
ATOM      5  C   UNL     1      -0.722  11.568  22.268  0.00  0.00    +0.000 C 
ATOM      6  C   UNL     1      -0.417  10.007  20.359  0.00  0.00    +0.000 C 
ATOM      7  C   UNL     1       0.428   8.955  21.111  0.00  0.00    +0.000 C 
ATOM      8  C   UNL     1      -0.100   9.984  18.845  0.00  0.00    +0.000 C 
ATOM      9  C   UNL     1       1.250  10.628  18.617  0.00  0.00    +0.000 C 
ATOM     10  N   UNL     1       2.225  10.037  18.009  0.00  0.00    +0.000 NA
ENDROOT
BRANCH  10  11
ATOM     11  O   UNL     1       2.098   8.829  17.487  0.00  0.00    +0.000 OA
BRANCH  11  12
ATOM     12  C   UNL     1       2.812   7.758  17.922  0.00  0.00    +0.000 A 
ATOM     13  C   UNL     1       2.433   7.015  19.055  0.00  0.00    +0.000 A 
ATOM     14  C   UNL     1       3.199   5.918  19.470  0.00  0.00    +0.000 A 
ATOM     15  C   UNL     1       4.359   5.541  18.768  0.00  0.00    +0.000 A 
ATOM     16  C   UNL     1       4.734   6.291  17.637  0.00  0.00    +0.000 A 
ATOM     17  C   UNL     1       3.966   7.386  17.221  0.00  0.00    +0.000 A 
BRANCH  15  18
ATOM     18  N   UNL     1       5.143   4.423  19.192  0.00  0.00    +0.000 N 
ATOM     19  O   UNL     1       6.332   4.512  19.275  0.00  0.00    +0.000 OA
ATOM     20  O   UNL     1       4.567   3.275  19.486  0.00  0.00    +0.000 OA
ENDBRANCH  15  18
ENDBRANCH  11  12
ENDBRANCH  10  11
TORSDOF 3
ENDMDL
MODEL 8
REMARK VINA RESULT:      -6.3      5.171      6.870
REMARK  Name = 
REMARK  6 active torsions:
REMARK  status: ('A' for Active; 'I' for Inactive)
REMARK    1  A    between atoms: C_1  and  C_2
REMARK    2  A    between atoms: N_4  and  C_5
REMARK    3  A    between atoms: C_6  and  C_7
REMARK    4  A    between atoms: N_10  and  O_11
REMARK    5  A    between atoms: O_11  and  C_12
REMARK    6  A    between atoms: C_15  and  N_16
REMARK                            x       y       z     vdW  Elec       q    Type
REMARK                         _______ _______ _______ _____ _____    ______ ____
ROOT
ATOM      1  C   UNL     1       0.770  13.233  18.397  0.00  0.00    +0.000 C 
ATOM      2  C   UNL     1       1.575  12.152  19.144  0.00  0.00    +0.000 C 
ATOM      3  C   UNL     1       1.167  12.139  20.625  0.00  0.00    +0.000 C 
ATOM      4  N   UNL     1      -0.250  11.716  20.742  0.00  0.00    +0.000 NA
ATOM      5  C   UNL     1      -0.782  11.958  22.090  0.00  0.00    +0.000 C 
ATOM      6  C   UNL     1      -0.502  10.335  20.229  0.00  0.00    +0.000 C 
ATOM      7  C   UNL     1       0.207   9.234  21.047  0.00  0.00    +0.000 C 
ATOM      8  C   UNL     1      -0.103  10.252  18.737  0.00  0.00    +0.000 C 
ATOM      9  C   UNL     1       1.306  10.777  18.576  0.00  0.00    +0.000 C 
ATOM     10  N   UNL     1       2.261  10.093  18.037  0.00  0.00    +0.000 NA
ENDROOT
BRANCH  10  11
ATOM     11  O   UNL     1       2.062   8.888  17.530  0.00  0.00    +0.000 OA
BRANCH  11  12
ATOM     12  C   UNL     1       2.791   7.803  17.899  0.00  0.00    +0.000 A 
ATOM     13  C   UNL     1       3.900   7.358  17.156  0.00  0.00    +0.000 A 
ATOM     14  C   UNL     1       4.624   6.233  17.571  0.00  0.00    +0.000 A 
ATOM     15  C   UNL     1       4.256   5.527  18.732  0.00  0.00    +0.000 A 
ATOM     16  C   UNL     1       3.143   5.976  19.469  0.00  0.00    +0.000 A 
ATOM     17  C   UNL     1       2.422   7.103  19.055  0.00  0.00    +0.000 A 
BRANCH  15  18
ATOM     18  N   UNL     1       4.993   4.376  19.156  0.00  0.00    +0.000 N 
ATOM     19  O   UNL     1       6.179   4.330  19.017  0.00  0.00    +0.000 OA
ATOM     20  O   UNL     1       4.373   3.346  19.694  0.00  0.00    +0.000 OA
ENDBRANCH  15  18
ENDBRANCH  11  12
ENDBRANCH  10  11
TORSDOF 3
ENDMDL
MODEL 9
REMARK VINA RESULT:      -6.3      4.887      7.375
REMARK  Name = 
REMARK  6 active torsions:
REMARK  status: ('A' for Active; 'I' for Inactive)
REMARK    1  A    between atoms: C_1  and  C_2
REMARK    2  A    between atoms: N_4  and  C_5
REMARK    3  A    between atoms: C_6  and  C_7
REMARK    4  A    between atoms: N_10  and  O_11
REMARK    5  A    between atoms: O_11  and  C_12
REMARK    6  A    between atoms: C_15  and  N_16
REMARK                            x       y       z     vdW  Elec       q    Type
REMARK                         _______ _______ _______ _____ _____    ______ ____
ROOT
ATOM      1  C   UNL     1       0.654   3.022  20.207  0.00  0.00    +0.000 C 
ATOM      2  C   UNL     1       2.000   3.750  20.392  0.00  0.00    +0.000 C 
ATOM      3  C   UNL     1       3.132   2.894  19.803  0.00  0.00    +0.000 C 
ATOM      4  N   UNL     1       2.951   2.781  18.335  0.00  0.00    +0.000 NA
ATOM      5  C   UNL     1       3.824   1.750  17.755  0.00  0.00    +0.000 C 
ATOM      6  C   UNL     1       3.013   4.096  17.626  0.00  0.00    +0.000 C 
ATOM      7  C   UNL     1       4.397   4.776  17.706  0.00  0.00    +0.000 C 
ATOM      8  C   UNL     1       1.909   5.033  18.170  0.00  0.00    +0.000 C 
ATOM      9  C   UNL     1       2.007   5.083  19.679  0.00  0.00    +0.000 C 
ATOM     10  N   UNL     1       2.143   6.181  20.345  0.00  0.00    +0.000 NA
ENDROOT
BRANCH  10  11
ATOM     11  O   UNL     1       2.153   7.365  19.755  0.00  0.00    +0.000 OA
BRANCH  11  12
ATOM     12  C   UNL     1       1.452   8.429  20.224  0.00  0.00    +0.000 A 
ATOM     13  C   UNL     1       0.989   9.454  19.378  0.00  0.00    +0.000 A 
ATOM     14  C   UNL     1       0.271  10.535  19.903  0.00  0.00    +0.000 A 
ATOM     15  C   UNL     1       0.000  10.619  21.282  0.00  0.00    +0.000 A 
ATOM     16  C   UNL     1       0.469   9.593  22.124  0.00  0.00    +0.000 A 
ATOM     17  C   UNL     1       1.184   8.510  21.597  0.00  0.00    +0.000 A 
BRANCH  15  18
ATOM     18  N   UNL     1      -0.731  11.725  21.821  0.00  0.00    +0.000 N 
ATOM     19  O   UNL     1      -1.459  12.367  21.124  0.00  0.00    +0.000 OA
ATOM     20  O   UNL     1      -0.603  12.057  23.089  0.00  0.00    +0.000 OA
ENDBRANCH  15  18
ENDBRANCH  11  12
ENDBRANCH  10  11
TORSDOF 3
ENDMDL
