MODEL 1
REMARK VINA RESULT:      -8.5      0.000      0.000
REMARK  Name = 
REMARK  15 active torsions:
REMARK  status: ('A' for Active; 'I' for Inactive)
REMARK    1  A    between atoms: C_1  and  O_2
REMARK    2  A    between atoms: O_2  and  N_3
REMARK    3  A    between atoms: C_4  and  C_5
REMARK    4  A    between atoms: C_4  and  C_9
REMARK    5  A    between atoms: C_5  and  O_7
REMARK    6  A    between atoms: O_7  and  C_8
REMARK    7  A    between atoms: C_14  and  C_15
REMARK    8  A    between atoms: C_15  and  O_16
REMARK    9  A    between atoms: O_16  and  N_17
REMARK   10  A    between atoms: C_18  and  C_19
REMARK   11  A    between atoms: C_20  and  C_21
REMARK   12  A    between atoms: N_23  and  C_24
REMARK   13  A    between atoms: C_25  and  O_26
REMARK   14  A    between atoms: O_26  and  C_27
REMARK   15  A    between atoms: C_31  and  N_32
REMARK                            x       y       z     vdW  Elec       q    Type
REMARK                         _______ _______ _______ _____ _____    ______ ____
ROOT
ATOM      1  N   UNL     1       3.056   7.356  17.522  0.00  0.00    +0.000 NA
ATOM      2  C   UNL     1       4.172   6.985  18.054  0.00  0.00    +0.000 C 
ENDROOT
BRANCH   2   3
ATOM      3  C   UNL     1       5.150   6.321  17.245  0.00  0.00    +0.000 A 
ATOM      4  C   UNL     1       6.508   6.662  17.014  0.00  0.00    +0.000 A 
ATOM      5  C   UNL     1       7.306   7.783  17.583  0.00  0.00    +0.000 C 
ATOM      6  N   UNL     1       7.074   5.838  16.124  0.00  0.00    +0.000 NA
ATOM      7  N   UNL     1       6.094   4.972  15.809  0.00  0.00    +0.000 N 
ATOM      8  C   UNL     1       6.338   3.947  14.824  0.00  0.00    +0.000 C 
ATOM      9  C   UNL     1       4.938   5.158  16.523  0.00  0.00    +0.000 A 
BRANCH   9  10
ATOM     10  O   UNL     1       3.918   4.297  16.408  0.00  0.00    +0.000 OA
BRANCH  10  11
ATOM     11  C   UNL     1       3.203   3.893  17.516  0.00  0.00    +0.000 A 
ATOM     12  C   UNL     1       1.817   4.051  17.625  0.00  0.00    +0.000 A 
ATOM     13  C   UNL     1       1.130   3.576  18.741  0.00  0.00    +0.000 A 
ATOM     14  C   UNL     1       1.833   2.971  19.783  0.00  0.00    +0.000 A 
ATOM     15  C   UNL     1       3.235   2.861  19.698  0.00  0.00    +0.000 A 
ATOM     16  C   UNL     1       3.925   3.333  18.572  0.00  0.00    +0.000 A 
BRANCH  15  17
ATOM     17  N   UNL     1       3.972   2.226  20.793  0.00  0.00    +0.000 N 
ATOM     18  O   UNL     1       3.402   2.123  21.890  0.00  0.00    +0.000 OA
ATOM     19  O   UNL     1       5.118   1.820  20.557  0.00  0.00    +0.000 OA
ENDBRANCH  15  17
ENDBRANCH  10  11
ENDBRANCH   9  10
ENDBRANCH   2   3
BRANCH   1  20
ATOM     20  O   UNL     1       2.281   7.930  18.529  0.00  0.00    +0.000 OA
BRANCH  20  21
ATOM     21  C   UNL     1       2.084   9.329  18.281  0.00  0.00    +0.000 C 
BRANCH  21  27
ATOM     22  C   UNL     1       0.092  10.427  19.530  0.00  0.00    +0.000 A 
ATOM     23  C   UNL     1      -1.270  10.793  19.522  0.00  0.00    +0.000 A 
ATOM     24  C   UNL     1      -2.076  10.571  18.407  0.00  0.00    +0.000 A 
ATOM     25  C   UNL     1      -1.542   9.969  17.279  0.00  0.00    +0.000 A 
ATOM     26  C   UNL     1      -0.202   9.582  17.270  0.00  0.00    +0.000 A 
ATOM     27  C   UNL     1       0.644   9.796  18.381  0.00  0.00    +0.000 A 
BRANCH  22  29
ATOM     28  N   UNL     1       1.527  11.862  21.028  0.00  0.00    +0.000 NA
ATOM     29  C   UNL     1       0.847  10.771  20.792  0.00  0.00    +0.000 C 
BRANCH  28  31
ATOM     30  C   UNL     1       2.373  13.830  20.129  0.00  0.00    +0.000 C 
ATOM     31  O   UNL     1       1.652  12.634  19.873  0.00  0.00    +0.000 OA
ENDBRANCH  28  31
BRANCH  29  32
ATOM     32  C   UNL     1       0.874   9.680  21.894  0.00  0.00    +0.000 C 
ATOM     33  O   UNL     1       1.311   8.560  21.700  0.00  0.00    +0.000 OA
BRANCH  32  34
ATOM     34  O   UNL     1       0.450  10.174  23.082  0.00  0.00    +0.000 OA
ATOM     35  C   UNL     1      -0.955  10.435  23.148  0.00  0.00    +0.000 C 
ENDBRANCH  32  34
ENDBRANCH  29  32
ENDBRANCH  22  29
ENDBRANCH  21  27
ENDBRANCH  20  21
ENDBRANCH   1  20
TORSDOF 11
ENDMDL
MODEL 2
REMARK VINA RESULT:      -8.4      1.301      2.614
REMARK  Name = 
REMARK  15 active torsions:
REMARK  status: ('A' for Active; 'I' for Inactive)
REMARK    1  A    between atoms: C_1  and  O_2
REMARK    2  A    between atoms: O_2  and  N_3
REMARK    3  A    between atoms: C_4  and  C_5
REMARK    4  A    between atoms: C_4  and  C_9
REMARK    5  A    between atoms: C_5  and  O_7
REMARK    6  A    between atoms: O_7  and  C_8
REMARK    7  A    between atoms: C_14  and  C_15
REMARK    8  A    between atoms: C_15  and  O_16
REMARK    9  A    between atoms: O_16  and  N_17
REMARK   10  A    between atoms: C_18  and  C_19
REMARK   11  A    between atoms: C_20  and  C_21
REMARK   12  A    between atoms: N_23  and  C_24
REMARK   13  A    between atoms: C_25  and  O_26
REMARK   14  A    between atoms: O_26  and  C_27
REMARK   15  A    between atoms: C_31  and  N_32
REMARK                            x       y       z     vdW  Elec       q    Type
REMARK                         _______ _______ _______ _____ _____    ______ ____
ROOT
ATOM      1  N   UNL     1       3.402   7.310  17.835  0.00  0.00    +0.000 NA
ATOM      2  C   UNL     1       4.366   6.543  18.221  0.00  0.00    +0.000 C 
ENDROOT
BRANCH   2   3
ATOM      3  C   UNL     1       5.330   6.091  17.262  0.00  0.00    +0.000 A 
ATOM      4  C   UNL     1       6.602   6.631  16.944  0.00  0.00    +0.000 A 
ATOM      5  C   UNL     1       7.307   7.795  17.547  0.00  0.00    +0.000 C 
ATOM      6  N   UNL     1       7.171   5.973  15.926  0.00  0.00    +0.000 NA
ATOM      7  N   UNL     1       6.281   5.014  15.616  0.00  0.00    +0.000 N 
ATOM      8  C   UNL     1       6.547   4.122  14.515  0.00  0.00    +0.000 C 
ATOM      9  C   UNL     1       5.191   4.978  16.448  0.00  0.00    +0.000 A 
BRANCH   9  10
ATOM     10  O   UNL     1       4.281   4.001  16.342  0.00  0.00    +0.000 OA
BRANCH  10  11
ATOM     11  C   UNL     1       3.451   3.685  17.397  0.00  0.00    +0.000 A 
ATOM     12  C   UNL     1       2.065   3.877  17.357  0.00  0.00    +0.000 A 
ATOM     13  C   UNL     1       1.262   3.491  18.428  0.00  0.00    +0.000 A 
ATOM     14  C   UNL     1       1.844   2.943  19.572  0.00  0.00    +0.000 A 
ATOM     15  C   UNL     1       3.244   2.802  19.633  0.00  0.00    +0.000 A 
ATOM     16  C   UNL     1       4.052   3.184  18.553  0.00  0.00    +0.000 A 
BRANCH  15  17
ATOM     17  N   UNL     1       3.854   2.228  20.836  0.00  0.00    +0.000 N 
ATOM     18  O   UNL     1       4.996   1.755  20.735  0.00  0.00    +0.000 OA
ATOM     19  O   UNL     1       3.196   2.257  21.885  0.00  0.00    +0.000 OA
ENDBRANCH  15  17
ENDBRANCH  10  11
ENDBRANCH   9  10
ENDBRANCH   2   3
BRANCH   1  20
ATOM     20  O   UNL     1       2.596   7.561  18.945  0.00  0.00    +0.000 OA
BRANCH  20  21
ATOM     21  C   UNL     1       1.850   8.773  18.766  0.00  0.00    +0.000 C 
BRANCH  21  27
ATOM     22  C   UNL     1       0.327  10.440  20.045  0.00  0.00    +0.000 A 
ATOM     23  C   UNL     1      -0.305  10.797  21.254  0.00  0.00    +0.000 A 
ATOM     24  C   UNL     1      -0.206   9.997  22.391  0.00  0.00    +0.000 A 
ATOM     25  C   UNL     1       0.534   8.826  22.347  0.00  0.00    +0.000 A 
ATOM     26  C   UNL     1       1.182   8.461  21.168  0.00  0.00    +0.000 A 
ATOM     27  C   UNL     1       1.100   9.246  19.997  0.00  0.00    +0.000 A 
BRANCH  22  29
ATOM     28  N   UNL     1       0.882  12.345  18.488  0.00  0.00    +0.000 NA
ATOM     29  C   UNL     1       0.093  11.384  18.889  0.00  0.00    +0.000 C 
BRANCH  28  31
ATOM     30  C   UNL     1       2.094  13.926  19.681  0.00  0.00    +0.000 C 
ATOM     31  O   UNL     1       1.926  12.546  19.390  0.00  0.00    +0.000 OA
ENDBRANCH  28  31
BRANCH  29  32
ATOM     32  C   UNL     1      -1.263  11.239  18.151  0.00  0.00    +0.000 C 
ATOM     33  O   UNL     1      -2.032  12.172  17.999  0.00  0.00    +0.000 OA
BRANCH  32  34
ATOM     34  O   UNL     1      -1.409   9.997  17.634  0.00  0.00    +0.000 OA
ATOM     35  C   UNL     1      -2.342   9.909  16.553  0.00  0.00    +0.000 C 
ENDBRANCH  32  34
ENDBRANCH  29  32
ENDBRANCH  22  29
ENDBRANCH  21  27
ENDBRANCH  20  21
ENDBRANCH   1  20
TORSDOF 11
ENDMDL
MODEL 3
REMARK VINA RESULT:      -8.0      2.050      5.036
REMARK  Name = 
REMARK  15 active torsions:
REMARK  status: ('A' for Active; 'I' for Inactive)
REMARK    1  A    between atoms: C_1  and  O_2
REMARK    2  A    between atoms: O_2  and  N_3
REMARK    3  A    between atoms: C_4  and  C_5
REMARK    4  A    between atoms: C_4  and  C_9
REMARK    5  A    between atoms: C_5  and  O_7
REMARK    6  A    between atoms: O_7  and  C_8
REMARK    7  A    between atoms: C_14  and  C_15
REMARK    8  A    between atoms: C_15  and  O_16
REMARK    9  A    between atoms: O_16  and  N_17
REMARK   10  A    between atoms: C_18  and  C_19
REMARK   11  A    between atoms: C_20  and  C_21
REMARK   12  A    between atoms: N_23  and  C_24
REMARK   13  A    between atoms: C_25  and  O_26
REMARK   14  A    between atoms: O_26  and  C_27
REMARK   15  A    between atoms: C_31  and  N_32
REMARK                            x       y       z     vdW  Elec       q    Type
REMARK                         _______ _______ _______ _____ _____    ______ ____
ROOT
ATOM      1  N   UNL     1       1.737   6.768  19.835  0.00  0.00    +0.000 NA
ATOM      2  C   UNL     1       2.463   5.850  20.380  0.00  0.00    +0.000 C 
ENDROOT
BRANCH   2   3
ATOM      3  C   UNL     1       2.456   4.529  19.826  0.00  0.00    +0.000 A 
ATOM      4  C   UNL     1       2.071   3.304  20.428  0.00  0.00    +0.000 A 
ATOM      5  C   UNL     1       1.526   3.057  21.792  0.00  0.00    +0.000 C 
ATOM      6  N   UNL     1       2.290   2.267  19.611  0.00  0.00    +0.000 NA
ATOM      7  N   UNL     1       2.788   2.829  18.494  0.00  0.00    +0.000 N 
ATOM      8  C   UNL     1       3.187   1.990  17.391  0.00  0.00    +0.000 C 
ATOM      9  C   UNL     1       2.826   4.199  18.532  0.00  0.00    +0.000 A 
BRANCH   9  10
ATOM     10  O   UNL     1       3.181   4.903  17.449  0.00  0.00    +0.000 OA
BRANCH  10  11
ATOM     11  C   UNL     1       4.500   5.239  17.222  0.00  0.00    +0.000 A 
ATOM     12  C   UNL     1       5.287   5.906  18.167  0.00  0.00    +0.000 A 
ATOM     13  C   UNL     1       6.631   6.174  17.913  0.00  0.00    +0.000 A 
ATOM     14  C   UNL     1       7.192   5.812  16.688  0.00  0.00    +0.000 A 
ATOM     15  C   UNL     1       6.385   5.190  15.716  0.00  0.00    +0.000 A 
ATOM     16  C   UNL     1       5.034   4.914  15.974  0.00  0.00    +0.000 A 
BRANCH  15  17
ATOM     17  N   UNL     1       6.975   4.811  14.429  0.00  0.00    +0.000 N 
ATOM     18  O   UNL     1       6.494   3.834  13.837  0.00  0.00    +0.000 OA
ATOM     19  O   UNL     1       7.917   5.495  14.005  0.00  0.00    +0.000 OA
ENDBRANCH  15  17
ENDBRANCH  10  11
ENDBRANCH   9  10
ENDBRANCH   2   3
BRANCH   1  20
ATOM     20  O   UNL     1       1.895   7.930  20.589  0.00  0.00    +0.000 OA
BRANCH  20  21
ATOM     21  C   UNL     1       1.151   9.013  20.012  0.00  0.00    +0.000 C 
BRANCH  21  27
ATOM     22  C   UNL     1      -0.325  11.036  20.691  0.00  0.00    +0.000 A 
ATOM     23  C   UNL     1      -1.069  11.692  21.694  0.00  0.00    +0.000 A 
ATOM     24  C   UNL     1      -1.222  11.139  22.964  0.00  0.00    +0.000 A 
ATOM     25  C   UNL     1      -0.626   9.924  23.264  0.00  0.00    +0.000 A 
ATOM     26  C   UNL     1       0.129   9.267  22.293  0.00  0.00    +0.000 A 
ATOM     27  C   UNL     1       0.301   9.795  20.995  0.00  0.00    +0.000 A 
BRANCH  22  29
ATOM     28  N   UNL     1      -0.992  11.444  18.293  0.00  0.00    +0.000 NA
ATOM     29  C   UNL     1      -0.286  11.737  19.353  0.00  0.00    +0.000 C 
BRANCH  28  31
ATOM     30  C   UNL     1      -2.258   9.803  17.245  0.00  0.00    +0.000 C 
ATOM     31  O   UNL     1      -1.683  10.245  18.465  0.00  0.00    +0.000 OA
ENDBRANCH  28  31
BRANCH  29  32
ATOM     32  C   UNL     1       0.756  12.876  19.205  0.00  0.00    +0.000 C 
ATOM     33  O   UNL     1       0.470  13.975  18.764  0.00  0.00    +0.000 OA
BRANCH  32  34
ATOM     34  O   UNL     1       1.956  12.511  19.714  0.00  0.00    +0.000 OA
ATOM     35  C   UNL     1       2.516  13.444  20.642  0.00  0.00    +0.000 C 
ENDBRANCH  32  34
ENDBRANCH  29  32
ENDBRANCH  22  29
ENDBRANCH  21  27
ENDBRANCH  20  21
ENDBRANCH   1  20
TORSDOF 11
ENDMDL
MODEL 4
REMARK VINA RESULT:      -7.9      0.789      2.240
REMARK  Name = 
REMARK  15 active torsions:
REMARK  status: ('A' for Active; 'I' for Inactive)
REMARK    1  A    between atoms: C_1  and  O_2
REMARK    2  A    between atoms: O_2  and  N_3
REMARK    3  A    between atoms: C_4  and  C_5
REMARK    4  A    between atoms: C_4  and  C_9
REMARK    5  A    between atoms: C_5  and  O_7
REMARK    6  A    between atoms: O_7  and  C_8
REMARK    7  A    between atoms: C_14  and  C_15
REMARK    8  A    between atoms: C_15  and  O_16
REMARK    9  A    between atoms: O_16  and  N_17
REMARK   10  A    between atoms: C_18  and  C_19
REMARK   11  A    between atoms: C_20  and  C_21
REMARK   12  A    between atoms: N_23  and  C_24
REMARK   13  A    between atoms: C_25  and  O_26
REMARK   14  A    between atoms: O_26  and  C_27
REMARK   15  A    between atoms: C_31  and  N_32
REMARK                            x       y       z     vdW  Elec       q    Type
REMARK                         _______ _______ _______ _____ _____    ______ ____
ROOT
ATOM      1  N   UNL     1       3.236   8.005  17.474  0.00  0.00    +0.000 NA
ATOM      2  C   UNL     1       3.760   6.916  17.929  0.00  0.00    +0.000 C 
ENDROOT
BRANCH   2   3
ATOM      3  C   UNL     1       4.824   6.291  17.202  0.00  0.00    +0.000 A 
ATOM      4  C   UNL     1       6.159   6.728  17.009  0.00  0.00    +0.000 A 
ATOM      5  C   UNL     1       6.839   7.939  17.546  0.00  0.00    +0.000 C 
ATOM      6  N   UNL     1       6.830   5.906  16.192  0.00  0.00    +0.000 NA
ATOM      7  N   UNL     1       5.937   4.948  15.886  0.00  0.00    +0.000 N 
ATOM      8  C   UNL     1       6.306   3.895  14.973  0.00  0.00    +0.000 C 
ATOM      9  C   UNL     1       4.738   5.077  16.538  0.00  0.00    +0.000 A 
BRANCH   9  10
ATOM     10  O   UNL     1       3.795   4.132  16.431  0.00  0.00    +0.000 OA
BRANCH  10  11
ATOM     11  C   UNL     1       3.081   3.712  17.534  0.00  0.00    +0.000 A 
ATOM     12  C   UNL     1       1.686   3.784  17.608  0.00  0.00    +0.000 A 
ATOM     13  C   UNL     1       1.005   3.295  18.721  0.00  0.00    +0.000 A 
ATOM     14  C   UNL     1       1.721   2.764  19.795  0.00  0.00    +0.000 A 
ATOM     15  C   UNL     1       3.128   2.742  19.743  0.00  0.00    +0.000 A 
ATOM     16  C   UNL     1       3.813   3.227  18.619  0.00  0.00    +0.000 A 
BRANCH  15  17
ATOM     17  N   UNL     1       3.878   2.185  20.872  0.00  0.00    +0.000 N 
ATOM     18  O   UNL     1       3.317   2.147  21.977  0.00  0.00    +0.000 OA
ATOM     19  O   UNL     1       5.027   1.775  20.653  0.00  0.00    +0.000 OA
ENDBRANCH  15  17
ENDBRANCH  10  11
ENDBRANCH   9  10
ENDBRANCH   2   3
BRANCH   1  20
ATOM     20  O   UNL     1       2.207   8.369  18.341  0.00  0.00    +0.000 OA
BRANCH  20  21
ATOM     21  C   UNL     1       1.959   9.780  18.267  0.00  0.00    +0.000 C 
BRANCH  21  27
ATOM     22  C   UNL     1       0.000  11.110  19.330  0.00  0.00    +0.000 A 
ATOM     23  C   UNL     1      -1.383  11.381  19.363  0.00  0.00    +0.000 A 
ATOM     24  C   UNL     1      -2.265  10.771  18.472  0.00  0.00    +0.000 A 
ATOM     25  C   UNL     1      -1.785   9.871  17.534  0.00  0.00    +0.000 A 
ATOM     26  C   UNL     1      -0.423   9.575  17.494  0.00  0.00    +0.000 A 
ATOM     27  C   UNL     1       0.499  10.176  18.379  0.00  0.00    +0.000 A 
BRANCH  22  29
ATOM     28  N   UNL     1       1.126  11.519  21.550  0.00  0.00    +0.000 NA
ATOM     29  C   UNL     1       0.833  11.879  20.328  0.00  0.00    +0.000 C 
BRANCH  28  31
ATOM     30  C   UNL     1       1.258   9.272  22.123  0.00  0.00    +0.000 C 
ATOM     31  O   UNL     1       0.403  10.388  21.926  0.00  0.00    +0.000 OA
ENDBRANCH  28  31
BRANCH  29  32
ATOM     32  C   UNL     1       1.331  13.276  19.874  0.00  0.00    +0.000 C 
ATOM     33  O   UNL     1       0.769  14.309  20.191  0.00  0.00    +0.000 OA
BRANCH  32  34
ATOM     34  O   UNL     1       2.493  13.181  19.185  0.00  0.00    +0.000 OA
ATOM     35  C   UNL     1       2.734  14.260  18.276  0.00  0.00    +0.000 C 
ENDBRANCH  32  34
ENDBRANCH  29  32
ENDBRANCH  22  29
ENDBRANCH  21  27
ENDBRANCH  20  21
ENDBRANCH   1  20
TORSDOF 11
ENDMDL
MODEL 5
REMARK VINA RESULT:      -7.9      1.608      2.742
REMARK  Name = 
REMARK  15 active torsions:
REMARK  status: ('A' for Active; 'I' for Inactive)
REMARK    1  A    between atoms: C_1  and  O_2
REMARK    2  A    between atoms: O_2  and  N_3
REMARK    3  A    between atoms: C_4  and  C_5
REMARK    4  A    between atoms: C_4  and  C_9
REMARK    5  A    between atoms: C_5  and  O_7
REMARK    6  A    between atoms: O_7  and  C_8
REMARK    7  A    between atoms: C_14  and  C_15
REMARK    8  A    between atoms: C_15  and  O_16
REMARK    9  A    between atoms: O_16  and  N_17
REMARK   10  A    between atoms: C_18  and  C_19
REMARK   11  A    between atoms: C_20  and  C_21
REMARK   12  A    between atoms: N_23  and  C_24
REMARK   13  A    between atoms: C_25  and  O_26
REMARK   14  A    between atoms: O_26  and  C_27
REMARK   15  A    between atoms: C_31  and  N_32
REMARK                            x       y       z     vdW  Elec       q    Type
REMARK                         _______ _______ _______ _____ _____    ______ ____
ROOT
ATOM      1  N   UNL     1       3.304   7.649  17.406  0.00  0.00    +0.000 NA
ATOM      2  C   UNL     1       4.344   7.176  18.007  0.00  0.00    +0.000 C 
ENDROOT
BRANCH   2   3
ATOM      3  C   UNL     1       5.318   6.443  17.254  0.00  0.00    +0.000 A 
ATOM      4  C   UNL     1       6.697   6.714  17.065  0.00  0.00    +0.000 A 
ATOM      5  C   UNL     1       7.527   7.812  17.632  0.00  0.00    +0.000 C 
ATOM      6  N   UNL     1       7.255   5.839  16.219  0.00  0.00    +0.000 NA
ATOM      7  N   UNL     1       6.248   5.010  15.891  0.00  0.00    +0.000 N 
ATOM      8  C   UNL     1       6.477   3.947  14.945  0.00  0.00    +0.000 C 
ATOM      9  C   UNL     1       5.076   5.271  16.556  0.00  0.00    +0.000 A 
BRANCH   9  10
ATOM     10  O   UNL     1       4.021   4.455  16.427  0.00  0.00    +0.000 OA
BRANCH  10  11
ATOM     11  C   UNL     1       3.278   4.078  17.526  0.00  0.00    +0.000 A 
ATOM     12  C   UNL     1       1.905   4.326  17.636  0.00  0.00    +0.000 A 
ATOM     13  C   UNL     1       1.186   3.876  18.741  0.00  0.00    +0.000 A 
ATOM     14  C   UNL     1       1.845   3.204  19.772  0.00  0.00    +0.000 A 
ATOM     15  C   UNL     1       3.236   3.003  19.686  0.00  0.00    +0.000 A 
ATOM     16  C   UNL     1       3.958   3.450  18.571  0.00  0.00    +0.000 A 
BRANCH  15  17
ATOM     17  N   UNL     1       3.926   2.298  20.770  0.00  0.00    +0.000 N 
ATOM     18  O   UNL     1       5.061   1.855  20.541  0.00  0.00    +0.000 OA
ATOM     19  O   UNL     1       3.338   2.195  21.856  0.00  0.00    +0.000 OA
ENDBRANCH  15  17
ENDBRANCH  10  11
ENDBRANCH   9  10
ENDBRANCH   2   3
BRANCH   1  20
ATOM     20  O   UNL     1       2.510   8.271  18.369  0.00  0.00    +0.000 OA
BRANCH  20  21
ATOM     21  C   UNL     1       1.491   9.066  17.748  0.00  0.00    +0.000 C 
BRANCH  21  27
ATOM     22  C   UNL     1       0.453  11.222  18.754  0.00  0.00    +0.000 A 
ATOM     23  C   UNL     1       0.581  12.601  19.019  0.00  0.00    +0.000 A 
ATOM     24  C   UNL     1       1.740  13.300  18.686  0.00  0.00    +0.000 A 
ATOM     25  C   UNL     1       2.793  12.639  18.073  0.00  0.00    +0.000 A 
ATOM     26  C   UNL     1       2.681  11.279  17.786  0.00  0.00    +0.000 A 
ATOM     27  C   UNL     1       1.524  10.539  18.112  0.00  0.00    +0.000 A 
BRANCH  22  29
ATOM     28  N   UNL     1      -1.075  10.025  20.365  0.00  0.00    +0.000 NA
ATOM     29  C   UNL     1      -0.843  10.594  19.212  0.00  0.00    +0.000 C 
BRANCH  28  31
ATOM     30  C   UNL     1      -0.144   9.240  22.343  0.00  0.00    +0.000 C 
ATOM     31  O   UNL     1       0.101   9.879  21.099  0.00  0.00    +0.000 OA
ENDBRANCH  28  31
BRANCH  29  32
ATOM     32  C   UNL     1      -1.992  10.558  18.171  0.00  0.00    +0.000 C 
ATOM     33  O   UNL     1      -2.279   9.555  17.542  0.00  0.00    +0.000 OA
BRANCH  32  34
ATOM     34  O   UNL     1      -2.665  11.733  18.145  0.00  0.00    +0.000 OA
ATOM     35  C   UNL     1      -4.022  11.650  18.589  0.00  0.00    +0.000 C 
ENDBRANCH  32  34
ENDBRANCH  29  32
ENDBRANCH  22  29
ENDBRANCH  21  27
ENDBRANCH  20  21
ENDBRANCH   1  20
TORSDOF 11
ENDMDL
MODEL 6
REMARK VINA RESULT:      -7.8      2.822      9.156
REMARK  Name = 
REMARK  15 active torsions:
REMARK  status: ('A' for Active; 'I' for Inactive)
REMARK    1  A    between atoms: C_1  and  O_2
REMARK    2  A    between atoms: O_2  and  N_3
REMARK    3  A    between atoms: C_4  and  C_5
REMARK    4  A    between atoms: C_4  and  C_9
REMARK    5  A    between atoms: C_5  and  O_7
REMARK    6  A    between atoms: O_7  and  C_8
REMARK    7  A    between atoms: C_14  and  C_15
REMARK    8  A    between atoms: C_15  and  O_16
REMARK    9  A    between atoms: O_16  and  N_17
REMARK   10  A    between atoms: C_18  and  C_19
REMARK   11  A    between atoms: C_20  and  C_21
REMARK   12  A    between atoms: N_23  and  C_24
REMARK   13  A    between atoms: C_25  and  O_26
REMARK   14  A    between atoms: O_26  and  C_27
REMARK   15  A    between atoms: C_31  and  N_32
REMARK                            x       y       z     vdW  Elec       q    Type
REMARK                         _______ _______ _______ _____ _____    ______ ____
ROOT
ATOM      1  N   UNL     1       2.010   9.121  18.479  0.00  0.00    +0.000 NA
ATOM      2  C   UNL     1       0.918   8.981  19.154  0.00  0.00    +0.000 C 
ENDROOT
BRANCH   2   3
ATOM      3  C   UNL     1       0.556   9.976  20.118  0.00  0.00    +0.000 A 
ATOM      4  C   UNL     1       0.818  10.015  21.511  0.00  0.00    +0.000 A 
ATOM      5  C   UNL     1       1.580   9.051  22.352  0.00  0.00    +0.000 C 
ATOM      6  N   UNL     1       0.239  11.074  22.089  0.00  0.00    +0.000 NA
ATOM      7  N   UNL     1      -0.367  11.712  21.071  0.00  0.00    +0.000 N 
ATOM      8  C   UNL     1      -1.141  12.900  21.333  0.00  0.00    +0.000 C 
ATOM      9  C   UNL     1      -0.134  11.146  19.843  0.00  0.00    +0.000 A 
BRANCH   9  10
ATOM     10  O   UNL     1      -0.567  11.739  18.723  0.00  0.00    +0.000 OA
BRANCH  10  11
ATOM     11  C   UNL     1      -1.711  11.304  18.087  0.00  0.00    +0.000 A 
ATOM     12  C   UNL     1      -1.696  10.333  17.079  0.00  0.00    +0.000 A 
ATOM     13  C   UNL     1      -2.884   9.885  16.504  0.00  0.00    +0.000 A 
ATOM     14  C   UNL     1      -4.101  10.436  16.906  0.00  0.00    +0.000 A 
ATOM     15  C   UNL     1      -4.111  11.452  17.881  0.00  0.00    +0.000 A 
ATOM     16  C   UNL     1      -2.916  11.898  18.465  0.00  0.00    +0.000 A 
BRANCH  15  17
ATOM     17  N   UNL     1      -5.390  12.030  18.301  0.00  0.00    +0.000 N 
ATOM     18  O   UNL     1      -5.377  12.845  19.235  0.00  0.00    +0.000 OA
ATOM     19  O   UNL     1      -6.409  11.676  17.693  0.00  0.00    +0.000 OA
ENDBRANCH  15  17
ENDBRANCH  10  11
ENDBRANCH   9  10
ENDBRANCH   2   3
BRANCH   1  20
ATOM     20  O   UNL     1       2.140   8.003  17.655  0.00  0.00    +0.000 OA
BRANCH  20  21
ATOM     21  C   UNL     1       3.284   7.225  18.035  0.00  0.00    +0.000 C 
BRANCH  21  27
ATOM     22  C   UNL     1       4.181   4.856  17.472  0.00  0.00    +0.000 A 
ATOM     23  C   UNL     1       3.909   3.482  17.305  0.00  0.00    +0.000 A 
ATOM     24  C   UNL     1       2.636   2.961  17.527  0.00  0.00    +0.000 A 
ATOM     25  C   UNL     1       1.604   3.801  17.913  0.00  0.00    +0.000 A 
ATOM     26  C   UNL     1       1.845   5.165  18.068  0.00  0.00    +0.000 A 
ATOM     27  C   UNL     1       3.123   5.728  17.854  0.00  0.00    +0.000 A 
BRANCH  22  29
ATOM     28  N   UNL     1       6.192   5.485  16.085  0.00  0.00    +0.000 NA
ATOM     29  C   UNL     1       5.616   5.264  17.238  0.00  0.00    +0.000 C 
BRANCH  28  31
ATOM     30  C   UNL     1       5.995   4.144  14.199  0.00  0.00    +0.000 C 
ATOM     31  O   UNL     1       5.363   5.106  15.030  0.00  0.00    +0.000 OA
ENDBRANCH  28  31
BRANCH  29  32
ATOM     32  C   UNL     1       6.517   5.359  18.497  0.00  0.00    +0.000 C 
ATOM     33  O   UNL     1       6.132   5.033  19.606  0.00  0.00    +0.000 OA
BRANCH  32  34
ATOM     34  O   UNL     1       7.772   5.747  18.172  0.00  0.00    +0.000 OA
ATOM     35  C   UNL     1       8.112   7.072  18.592  0.00  0.00    +0.000 C 
ENDBRANCH  32  34
ENDBRANCH  29  32
ENDBRANCH  22  29
ENDBRANCH  21  27
ENDBRANCH  20  21
ENDBRANCH   1  20
TORSDOF 11
ENDMDL
MODEL 7
REMARK VINA RESULT:      -7.8      1.829      4.292
REMARK  Name = 
REMARK  15 active torsions:
REMARK  status: ('A' for Active; 'I' for Inactive)
REMARK    1  A    between atoms: C_1  and  O_2
REMARK    2  A    between atoms: O_2  and  N_3
REMARK    3  A    between atoms: C_4  and  C_5
REMARK    4  A    between atoms: C_4  and  C_9
REMARK    5  A    between atoms: C_5  and  O_7
REMARK    6  A    between atoms: O_7  and  C_8
REMARK    7  A    between atoms: C_14  and  C_15
REMARK    8  A    between atoms: C_15  and  O_16
REMARK    9  A    between atoms: O_16  and  N_17
REMARK   10  A    between atoms: C_18  and  C_19
REMARK   11  A    between atoms: C_20  and  C_21
REMARK   12  A    between atoms: N_23  and  C_24
REMARK   13  A    between atoms: C_25  and  O_26
REMARK   14  A    between atoms: O_26  and  C_27
REMARK   15  A    between atoms: C_31  and  N_32
REMARK                            x       y       z     vdW  Elec       q    Type
REMARK                         _______ _______ _______ _____ _____    ______ ____
ROOT
ATOM      1  N   UNL     1       2.468   6.958  19.121  0.00  0.00    +0.000 NA
ATOM      2  C   UNL     1       2.030   6.012  19.883  0.00  0.00    +0.000 C 
ENDROOT
BRANCH   2   3
ATOM      3  C   UNL     1       2.365   4.653  19.578  0.00  0.00    +0.000 A 
ATOM      4  C   UNL     1       2.163   3.482  20.353  0.00  0.00    +0.000 A 
ATOM      5  C   UNL     1       1.507   3.336  21.682  0.00  0.00    +0.000 C 
ATOM      6  N   UNL     1       2.693   2.406  19.760  0.00  0.00    +0.000 NA
ATOM      7  N   UNL     1       3.207   2.883  18.612  0.00  0.00    +0.000 N 
ATOM      8  C   UNL     1       3.908   1.994  17.720  0.00  0.00    +0.000 C 
ATOM      9  C   UNL     1       2.959   4.216  18.405  0.00  0.00    +0.000 A 
BRANCH   9  10
ATOM     10  O   UNL     1       3.301   4.804  17.251  0.00  0.00    +0.000 OA
BRANCH  10  11
ATOM     11  C   UNL     1       4.625   4.999  16.919  0.00  0.00    +0.000 A 
ATOM     12  C   UNL     1       5.122   4.793  15.627  0.00  0.00    +0.000 A 
ATOM     13  C   UNL     1       6.457   5.057  15.326  0.00  0.00    +0.000 A 
ATOM     14  C   UNL     1       7.322   5.494  16.330  0.00  0.00    +0.000 A 
ATOM     15  C   UNL     1       6.834   5.649  17.642  0.00  0.00    +0.000 A 
ATOM     16  C   UNL     1       5.489   5.390  17.943  0.00  0.00    +0.000 A 
BRANCH  15  17
ATOM     17  N   UNL     1       7.744   6.107  18.695  0.00  0.00    +0.000 N 
ATOM     18  O   UNL     1       8.218   7.248  18.594  0.00  0.00    +0.000 OA
ATOM     19  O   UNL     1       7.980   5.329  19.631  0.00  0.00    +0.000 OA
ENDBRANCH  15  17
ENDBRANCH  10  11
ENDBRANCH   9  10
ENDBRANCH   2   3
BRANCH   1  20
ATOM     20  O   UNL     1       1.964   8.161  19.613  0.00  0.00    +0.000 OA
BRANCH  20  21
ATOM     21  C   UNL     1       1.786   9.108  18.551  0.00  0.00    +0.000 C 
BRANCH  21  27
ATOM     22  C   UNL     1       0.065  10.801  19.502  0.00  0.00    +0.000 A 
ATOM     23  C   UNL     1      -1.222  11.373  19.421  0.00  0.00    +0.000 A 
ATOM     24  C   UNL     1      -2.116  11.011  18.416  0.00  0.00    +0.000 A 
ATOM     25  C   UNL     1      -1.749  10.062  17.475  0.00  0.00    +0.000 A 
ATOM     26  C   UNL     1      -0.489   9.470  17.546  0.00  0.00    +0.000 A 
ATOM     27  C   UNL     1       0.444   9.816  18.548  0.00  0.00    +0.000 A 
BRANCH  22  29
ATOM     28  N   UNL     1       1.121  10.782  21.793  0.00  0.00    +0.000 NA
ATOM     29  C   UNL     1       0.936  11.326  20.619  0.00  0.00    +0.000 C 
BRANCH  28  31
ATOM     30  C   UNL     1      -0.586   9.939  23.124  0.00  0.00    +0.000 C 
ATOM     31  O   UNL     1       0.246   9.715  21.995  0.00  0.00    +0.000 OA
ENDBRANCH  28  31
BRANCH  29  32
ATOM     32  C   UNL     1       1.625  12.692  20.367  0.00  0.00    +0.000 C 
ATOM     33  O   UNL     1       2.278  13.267  21.220  0.00  0.00    +0.000 OA
BRANCH  32  34
ATOM     34  O   UNL     1       1.481  13.082  19.079  0.00  0.00    +0.000 OA
ATOM     35  C   UNL     1       2.669  12.973  18.289  0.00  0.00    +0.000 C 
ENDBRANCH  32  34
ENDBRANCH  29  32
ENDBRANCH  22  29
ENDBRANCH  21  27
ENDBRANCH  20  21
ENDBRANCH   1  20
TORSDOF 11
ENDMDL
MODEL 8
REMARK VINA RESULT:      -7.8      2.268      4.645
REMARK  Name = 
REMARK  15 active torsions:
REMARK  status: ('A' for Active; 'I' for Inactive)
REMARK    1  A    between atoms: C_1  and  O_2
REMARK    2  A    between atoms: O_2  and  N_3
REMARK    3  A    between atoms: C_4  and  C_5
REMARK    4  A    between atoms: C_4  and  C_9
REMARK    5  A    between atoms: C_5  and  O_7
REMARK    6  A    between atoms: O_7  and  C_8
REMARK    7  A    between atoms: C_14  and  C_15
REMARK    8  A    between atoms: C_15  and  O_16
REMARK    9  A    between atoms: O_16  and  N_17
REMARK   10  A    between atoms: C_18  and  C_19
REMARK   11  A    between atoms: C_20  and  C_21
REMARK   12  A    between atoms: N_23  and  C_24
REMARK   13  A    between atoms: C_25  and  O_26
REMARK   14  A    between atoms: O_26  and  C_27
REMARK   15  A    between atoms: C_31  and  N_32
REMARK                            x       y       z     vdW  Elec       q    Type
REMARK                         _______ _______ _______ _____ _____    ______ ____
ROOT
ATOM      1  N   UNL     1       3.097   7.082  18.736  0.00  0.00    +0.000 NA
ATOM      2  C   UNL     1       2.393   6.215  18.088  0.00  0.00    +0.000 C 
ENDROOT
BRANCH   2   3
ATOM      3  C   UNL     1       2.480   4.830  18.446  0.00  0.00    +0.000 A 
ATOM      4  C   UNL     1       1.990   4.168  19.600  0.00  0.00    +0.000 A 
ATOM      5  C   UNL     1       1.210   4.720  20.742  0.00  0.00    +0.000 C 
ATOM      6  N   UNL     1       2.348   2.877  19.611  0.00  0.00    +0.000 NA
ATOM      7  N   UNL     1       3.039   2.718  18.468  0.00  0.00    +0.000 N 
ATOM      8  C   UNL     1       3.624   1.437  18.161  0.00  0.00    +0.000 C 
ATOM      9  C   UNL     1       3.074   3.840  17.680  0.00  0.00    +0.000 A 
BRANCH   9  10
ATOM     10  O   UNL     1       3.618   3.800  16.456  0.00  0.00    +0.000 OA
BRANCH  10  11
ATOM     11  C   UNL     1       4.905   4.244  16.237  0.00  0.00    +0.000 A 
ATOM     12  C   UNL     1       5.509   4.228  14.975  0.00  0.00    +0.000 A 
ATOM     13  C   UNL     1       6.792   4.740  14.792  0.00  0.00    +0.000 A 
ATOM     14  C   UNL     1       7.503   5.239  15.885  0.00  0.00    +0.000 A 
ATOM     15  C   UNL     1       6.915   5.205  17.164  0.00  0.00    +0.000 A 
ATOM     16  C   UNL     1       5.621   4.696  17.346  0.00  0.00    +0.000 A 
BRANCH  15  17
ATOM     17  N   UNL     1       7.663   5.729  18.310  0.00  0.00    +0.000 N 
ATOM     18  O   UNL     1       7.895   6.946  18.341  0.00  0.00    +0.000 OA
ATOM     19  O   UNL     1       8.013   4.925  19.186  0.00  0.00    +0.000 OA
ENDBRANCH  15  17
ENDBRANCH  10  11
ENDBRANCH   9  10
ENDBRANCH   2   3
BRANCH   1  20
ATOM     20  O   UNL     1       2.858   8.330  18.162  0.00  0.00    +0.000 OA
BRANCH  20  21
ATOM     21  C   UNL     1       1.477   8.694  18.299  0.00  0.00    +0.000 C 
BRANCH  21  27
ATOM     22  C   UNL     1       0.556  10.507  19.911  0.00  0.00    +0.000 A 
ATOM     23  C   UNL     1       0.257  10.892  21.234  0.00  0.00    +0.000 A 
ATOM     24  C   UNL     1       0.451  10.021  22.305  0.00  0.00    +0.000 A 
ATOM     25  C   UNL     1       0.957   8.751  22.079  0.00  0.00    +0.000 A 
ATOM     26  C   UNL     1       1.276   8.356  20.781  0.00  0.00    +0.000 A 
ATOM     27  C   UNL     1       1.089   9.210  19.671  0.00  0.00    +0.000 A 
BRANCH  22  29
ATOM     28  N   UNL     1      -0.849  11.652  18.156  0.00  0.00    +0.000 NA
ATOM     29  C   UNL     1       0.251  11.542  18.852  0.00  0.00    +0.000 C 
BRANCH  28  31
ATOM     30  C   UNL     1      -2.083   9.975  17.126  0.00  0.00    +0.000 C 
ATOM     31  O   UNL     1      -1.684  10.554  18.360  0.00  0.00    +0.000 OA
ENDBRANCH  28  31
BRANCH  29  32
ATOM     32  C   UNL     1       1.397  12.530  18.510  0.00  0.00    +0.000 C 
ATOM     33  O   UNL     1       2.482  12.161  18.096  0.00  0.00    +0.000 OA
BRANCH  32  34
ATOM     34  O   UNL     1       0.990  13.814  18.638  0.00  0.00    +0.000 OA
ATOM     35  C   UNL     1       2.051  14.772  18.674  0.00  0.00    +0.000 C 
ENDBRANCH  32  34
ENDBRANCH  29  32
ENDBRANCH  22  29
ENDBRANCH  21  27
ENDBRANCH  20  21
ENDBRANCH   1  20
TORSDOF 11
ENDMDL
MODEL 9
REMARK VINA RESULT:      -7.8      2.996      9.272
REMARK  Name = 
REMARK  15 active torsions:
REMARK  status: ('A' for Active; 'I' for Inactive)
REMARK    1  A    between atoms: C_1  and  O_2
REMARK    2  A    between atoms: O_2  and  N_3
REMARK    3  A    between atoms: C_4  and  C_5
REMARK    4  A    between atoms: C_4  and  C_9
REMARK    5  A    between atoms: C_5  and  O_7
REMARK    6  A    between atoms: O_7  and  C_8
REMARK    7  A    between atoms: C_14  and  C_15
REMARK    8  A    between atoms: C_15  and  O_16
REMARK    9  A    between atoms: O_16  and  N_17
REMARK   10  A    between atoms: C_18  and  C_19
REMARK   11  A    between atoms: C_20  and  C_21
REMARK   12  A    between atoms: N_23  and  C_24
REMARK   13  A    between atoms: C_25  and  O_26
REMARK   14  A    between atoms: O_26  and  C_27
REMARK   15  A    between atoms: C_31  and  N_32
REMARK                            x       y       z     vdW  Elec       q    Type
REMARK                         _______ _______ _______ _____ _____    ______ ____
ROOT
ATOM      1  N   UNL     1       1.710   8.997  18.617  0.00  0.00    +0.000 NA
ATOM      2  C   UNL     1       1.546  10.084  17.939  0.00  0.00    +0.000 C 
ENDROOT
BRANCH   2   3
ATOM      3  C   UNL     1       1.085  11.265  18.606  0.00  0.00    +0.000 A 
ATOM      4  C   UNL     1       1.746  12.506  18.794  0.00  0.00    +0.000 A 
ATOM      5  C   UNL     1       3.087  12.940  18.314  0.00  0.00    +0.000 C 
ATOM      6  N   UNL     1       1.017  13.338  19.547  0.00  0.00    +0.000 NA
ATOM      7  N   UNL     1      -0.103  12.642  19.816  0.00  0.00    +0.000 N 
ATOM      8  C   UNL     1      -1.119  13.223  20.658  0.00  0.00    +0.000 C 
ATOM      9  C   UNL     1      -0.158  11.419  19.199  0.00  0.00    +0.000 A 
BRANCH   9  10
ATOM     10  O   UNL     1      -1.262  10.665  19.272  0.00  0.00    +0.000 OA
BRANCH  10  11
ATOM     11  C   UNL     1      -2.213  10.700  18.273  0.00  0.00    +0.000 A 
ATOM     12  C   UNL     1      -2.077   9.997  17.070  0.00  0.00    +0.000 A 
ATOM     13  C   UNL     1      -3.090  10.019  16.114  0.00  0.00    +0.000 A 
ATOM     14  C   UNL     1      -4.238  10.781  16.335  0.00  0.00    +0.000 A 
ATOM     15  C   UNL     1      -4.350  11.532  17.521  0.00  0.00    +0.000 A 
ATOM     16  C   UNL     1      -3.333  11.504  18.487  0.00  0.00    +0.000 A 
BRANCH  15  17
ATOM     17  N   UNL     1      -5.555  12.332  17.751  0.00  0.00    +0.000 N 
ATOM     18  O   UNL     1      -6.157  12.769  16.759  0.00  0.00    +0.000 OA
ATOM     19  O   UNL     1      -5.908  12.518  18.924  0.00  0.00    +0.000 OA
ENDBRANCH  15  17
ENDBRANCH  10  11
ENDBRANCH   9  10
ENDBRANCH   2   3
BRANCH   1  20
ATOM     20  O   UNL     1       2.116   8.004  17.726  0.00  0.00    +0.000 OA
BRANCH  20  21
ATOM     21  C   UNL     1       3.126   7.176  18.318  0.00  0.00    +0.000 C 
BRANCH  21  27
ATOM     22  C   UNL     1       3.916   4.891  17.376  0.00  0.00    +0.000 A 
ATOM     23  C   UNL     1       3.643   3.523  17.169  0.00  0.00    +0.000 A 
ATOM     24  C   UNL     1       2.471   2.936  17.642  0.00  0.00    +0.000 A 
ATOM     25  C   UNL     1       1.541   3.704  18.324  0.00  0.00    +0.000 A 
ATOM     26  C   UNL     1       1.782   5.063  18.525  0.00  0.00    +0.000 A 
ATOM     27  C   UNL     1       2.960   5.690  18.063  0.00  0.00    +0.000 A 
BRANCH  22  29
ATOM     28  N   UNL     1       6.360   5.499  17.514  0.00  0.00    +0.000 NA
ATOM     29  C   UNL     1       5.246   5.372  16.844  0.00  0.00    +0.000 C 
BRANCH  28  31
ATOM     30  C   UNL     1       7.339   5.536  19.620  0.00  0.00    +0.000 C 
ATOM     31  O   UNL     1       6.148   5.316  18.880  0.00  0.00    +0.000 OA
ENDBRANCH  28  31
BRANCH  29  32
ATOM     32  C   UNL     1       5.266   5.833  15.363  0.00  0.00    +0.000 C 
ATOM     33  O   UNL     1       5.257   7.007  15.039  0.00  0.00    +0.000 OA
BRANCH  32  34
ATOM     34  O   UNL     1       5.392   4.777  14.524  0.00  0.00    +0.000 OA
ATOM     35  C   UNL     1       6.743   4.389  14.258  0.00  0.00    +0.000 C 
ENDBRANCH  32  34
ENDBRANCH  29  32
ENDBRANCH  22  29
ENDBRANCH  21  27
ENDBRANCH  20  21
ENDBRANCH   1  20
TORSDOF 11
ENDMDL
