MODEL 1
REMARK VINA RESULT:      -8.1      0.000      0.000
REMARK  Name = 
REMARK  5 active torsions:
REMARK  status: ('A' for Active; 'I' for Inactive)
REMARK    1  A    between atoms: C_2  and  C_3
REMARK    2  A    between atoms: C_3  and  N_4
REMARK    3  A    between atoms: C_8  and  N_9
REMARK    4  A    between atoms: N_10  and  C_11
REMARK    5  A    between atoms: C_14  and  C_15
REMARK                            x       y       z     vdW  Elec       q    Type
REMARK                         _______ _______ _______ _____ _____    ______ ____
ROOT
ATOM      1  N   UNL     1       5.125   4.439  16.795  0.00  0.00    +0.000 N 
ATOM      2  C   UNL     1       5.846   4.132  15.669  0.00  0.00    +0.000 A 
ATOM      3  C   UNL     1       6.038   5.334  15.037  0.00  0.00    +0.000 A 
ATOM      4  N   UNL     1       5.475   6.351  15.756  0.00  0.00    +0.000 NA
ATOM      5  C   UNL     1       4.904   5.802  16.819  0.00  0.00    +0.000 A 
ENDROOT
BRANCH   5   6
ATOM      6  N   UNL     1       4.219   6.384  17.845  0.00  0.00    +0.000 NA
ATOM      7  N   UNL     1       3.082   6.780  17.515  0.00  0.00    +0.000 NA
BRANCH   7   8
ATOM      8  C   UNL     1       2.374   7.430  18.543  0.00  0.00    +0.000 A 
ATOM      9  C   UNL     1       2.257   6.757  19.766  0.00  0.00    +0.000 A 
ATOM     10  C   UNL     1       1.625   7.349  20.864  0.00  0.00    +0.000 A 
ATOM     11  C   UNL     1       1.098   8.642  20.765  0.00  0.00    +0.000 A 
ATOM     12  C   UNL     1       1.205   9.320  19.540  0.00  0.00    +0.000 A 
ATOM     13  C   UNL     1       1.843   8.722  18.445  0.00  0.00    +0.000 A 
BRANCH  11  14
ATOM     14  C   UNL     1       0.448   9.313  21.952  0.00  0.00    +0.000 C 
ATOM     15  F   UNL     1      -0.733   8.745  22.322  0.00  0.00    +0.000 F 
ATOM     16  F   UNL     1       1.239   9.284  23.061  0.00  0.00    +0.000 F 
ATOM     17  F   UNL     1       0.174  10.628  21.723  0.00  0.00    +0.000 F 
ENDBRANCH  11  14
ENDBRANCH   7   8
ENDBRANCH   5   6
BRANCH   1  18
ATOM     18  C   UNL     1       4.719   3.479  17.810  0.00  0.00    +0.000 C 
BRANCH  18  20
ATOM     19  O   UNL     1       2.541   3.337  16.792  0.00  0.00    +0.000 OA
ATOM     20  C   UNL     1       3.224   3.221  17.813  0.00  0.00    +0.000 C 
ATOM     21  N   UNL     1       2.648   2.838  19.018  0.00  0.00    +0.000 N 
ATOM     22  C   UNL     1       1.235   2.446  19.052  0.00  0.00    +0.000 C 
ATOM     23  C   UNL     1       0.510   3.158  20.195  0.00  0.00    +0.000 C 
ATOM     24  O   UNL     1       1.165   2.902  21.449  0.00  0.00    +0.000 OA
ATOM     25  C   UNL     1       2.519   3.375  21.423  0.00  0.00    +0.000 C 
ATOM     26  C   UNL     1       3.330   2.695  20.310  0.00  0.00    +0.000 C 
ENDBRANCH  18  20
ENDBRANCH   1  18
TORSDOF 5
ENDMDL
MODEL 2
REMARK VINA RESULT:      -8.0      1.137      1.842
REMARK  Name = 
REMARK  5 active torsions:
REMARK  status: ('A' for Active; 'I' for Inactive)
REMARK    1  A    between atoms: C_2  and  C_3
REMARK    2  A    between atoms: C_3  and  N_4
REMARK    3  A    between atoms: C_8  and  N_9
REMARK    4  A    between atoms: N_10  and  C_11
REMARK    5  A    between atoms: C_14  and  C_15
REMARK                            x       y       z     vdW  Elec       q    Type
REMARK                         _______ _______ _______ _____ _____    ______ ____
ROOT
ATOM      1  N   UNL     1       5.182   4.370  16.618  0.00  0.00    +0.000 N 
ATOM      2  C   UNL     1       6.125   4.006  15.692  0.00  0.00    +0.000 A 
ATOM      3  C   UNL     1       6.849   5.148  15.460  0.00  0.00    +0.000 A 
ATOM      4  N   UNL     1       6.384   6.176  16.232  0.00  0.00    +0.000 NA
ATOM      5  C   UNL     1       5.357   5.705  16.924  0.00  0.00    +0.000 A 
ENDROOT
BRANCH   5   6
ATOM      6  N   UNL     1       4.557   6.327  17.837  0.00  0.00    +0.000 NA
ATOM      7  N   UNL     1       3.595   6.932  17.318  0.00  0.00    +0.000 NA
BRANCH   7   8
ATOM      8  C   UNL     1       2.783   7.624  18.235  0.00  0.00    +0.000 A 
ATOM      9  C   UNL     1       2.141   8.782  17.777  0.00  0.00    +0.000 A 
ATOM     10  C   UNL     1       1.266   9.501  18.597  0.00  0.00    +0.000 A 
ATOM     11  C   UNL     1       1.003   9.069  19.903  0.00  0.00    +0.000 A 
ATOM     12  C   UNL     1       1.648   7.912  20.371  0.00  0.00    +0.000 A 
ATOM     13  C   UNL     1       2.522   7.195  19.542  0.00  0.00    +0.000 A 
BRANCH  11  14
ATOM     14  C   UNL     1       0.030   9.809  20.789  0.00  0.00    +0.000 C 
ATOM     15  F   UNL     1      -0.912  10.510  20.099  0.00  0.00    +0.000 F 
ATOM     16  F   UNL     1      -0.659   8.972  21.615  0.00  0.00    +0.000 F 
ATOM     17  F   UNL     1       0.646  10.712  21.601  0.00  0.00    +0.000 F 
ENDBRANCH  11  14
ENDBRANCH   7   8
ENDBRANCH   5   6
BRANCH   1  18
ATOM     18  C   UNL     1       4.203   3.469  17.207  0.00  0.00    +0.000 C 
BRANCH  18  20
ATOM     19  O   UNL     1       5.311   3.358  19.342  0.00  0.00    +0.000 OA
ATOM     20  C   UNL     1       4.249   3.459  18.724  0.00  0.00    +0.000 C 
ATOM     21  N   UNL     1       3.038   3.577  19.396  0.00  0.00    +0.000 N 
ATOM     22  C   UNL     1       3.033   3.707  20.857  0.00  0.00    +0.000 C 
ATOM     23  C   UNL     1       2.024   2.738  21.476  0.00  0.00    +0.000 C 
ATOM     24  O   UNL     1       0.716   2.941  20.917  0.00  0.00    +0.000 OA
ATOM     25  C   UNL     1       0.727   2.720  19.500  0.00  0.00    +0.000 C 
ATOM     26  C   UNL     1       1.704   3.669  18.791  0.00  0.00    +0.000 C 
ENDBRANCH  18  20
ENDBRANCH   1  18
TORSDOF 5
ENDMDL
MODEL 3
REMARK VINA RESULT:      -8.0      0.347      1.275
REMARK  Name = 
REMARK  5 active torsions:
REMARK  status: ('A' for Active; 'I' for Inactive)
REMARK    1  A    between atoms: C_2  and  C_3
REMARK    2  A    between atoms: C_3  and  N_4
REMARK    3  A    between atoms: C_8  and  N_9
REMARK    4  A    between atoms: N_10  and  C_11
REMARK    5  A    between atoms: C_14  and  C_15
REMARK                            x       y       z     vdW  Elec       q    Type
REMARK                         _______ _______ _______ _____ _____    ______ ____
ROOT
ATOM      1  N   UNL     1       4.965   4.374  16.656  0.00  0.00    +0.000 N 
ATOM      2  C   UNL     1       5.715   4.210  15.520  0.00  0.00    +0.000 A 
ATOM      3  C   UNL     1       5.864   5.474  15.010  0.00  0.00    +0.000 A 
ATOM      4  N   UNL     1       5.246   6.391  15.814  0.00  0.00    +0.000 NA
ATOM      5  C   UNL     1       4.685   5.718  16.807  0.00  0.00    +0.000 A 
ENDROOT
BRANCH   5   6
ATOM      6  N   UNL     1       3.960   6.167  17.872  0.00  0.00    +0.000 NA
ATOM      7  N   UNL     1       3.187   7.105  17.581  0.00  0.00    +0.000 NA
BRANCH   7   8
ATOM      8  C   UNL     1       2.464   7.620  18.672  0.00  0.00    +0.000 A 
ATOM      9  C   UNL     1       1.819   8.850  18.491  0.00  0.00    +0.000 A 
ATOM     10  C   UNL     1       1.027   9.412  19.498  0.00  0.00    +0.000 A 
ATOM     11  C   UNL     1       0.854   8.744  20.717  0.00  0.00    +0.000 A 
ATOM     12  C   UNL     1       1.504   7.514  20.908  0.00  0.00    +0.000 A 
ATOM     13  C   UNL     1       2.293   6.956  19.893  0.00  0.00    +0.000 A 
BRANCH  11  14
ATOM     14  C   UNL     1      -0.030   9.315  21.801  0.00  0.00    +0.000 C 
ATOM     15  F   UNL     1       0.656   9.739  22.898  0.00  0.00    +0.000 F 
ATOM     16  F   UNL     1      -0.747  10.391  21.371  0.00  0.00    +0.000 F 
ATOM     17  F   UNL     1      -0.944   8.414  22.257  0.00  0.00    +0.000 F 
ENDBRANCH  11  14
ENDBRANCH   7   8
ENDBRANCH   5   6
BRANCH   1  18
ATOM     18  C   UNL     1       4.587   3.304  17.565  0.00  0.00    +0.000 C 
BRANCH  18  20
ATOM     19  O   UNL     1       2.354   3.232  16.667  0.00  0.00    +0.000 OA
ATOM     20  C   UNL     1       3.084   3.108  17.653  0.00  0.00    +0.000 C 
ATOM     21  N   UNL     1       2.559   2.773  18.895  0.00  0.00    +0.000 N 
ATOM     22  C   UNL     1       1.135   2.441  19.012  0.00  0.00    +0.000 C 
ATOM     23  C   UNL     1       0.502   3.205  20.175  0.00  0.00    +0.000 C 
ATOM     24  O   UNL     1       1.212   2.948  21.398  0.00  0.00    +0.000 OA
ATOM     25  C   UNL     1       2.581   3.364  21.291  0.00  0.00    +0.000 C 
ATOM     26  C   UNL     1       3.303   2.628  20.152  0.00  0.00    +0.000 C 
ENDBRANCH  18  20
ENDBRANCH   1  18
TORSDOF 5
ENDMDL
MODEL 4
REMARK VINA RESULT:      -7.9      0.777      1.178
REMARK  Name = 
REMARK  5 active torsions:
REMARK  status: ('A' for Active; 'I' for Inactive)
REMARK    1  A    between atoms: C_2  and  C_3
REMARK    2  A    between atoms: C_3  and  N_4
REMARK    3  A    between atoms: C_8  and  N_9
REMARK    4  A    between atoms: N_10  and  C_11
REMARK    5  A    between atoms: C_14  and  C_15
REMARK                            x       y       z     vdW  Elec       q    Type
REMARK                         _______ _______ _______ _____ _____    ______ ____
ROOT
ATOM      1  N   UNL     1       5.676   4.644  17.332  0.00  0.00    +0.000 N 
ATOM      2  C   UNL     1       6.599   4.255  16.395  0.00  0.00    +0.000 A 
ATOM      3  C   UNL     1       6.865   5.390  15.672  0.00  0.00    +0.000 A 
ATOM      4  N   UNL     1       6.148   6.448  16.157  0.00  0.00    +0.000 NA
ATOM      5  C   UNL     1       5.412   5.988  17.158  0.00  0.00    +0.000 A 
ENDROOT
BRANCH   5   6
ATOM      6  N   UNL     1       4.533   6.642  17.972  0.00  0.00    +0.000 NA
ATOM      7  N   UNL     1       3.548   7.106  17.361  0.00  0.00    +0.000 NA
BRANCH   7   8
ATOM      8  C   UNL     1       2.652   7.828  18.171  0.00  0.00    +0.000 A 
ATOM      9  C   UNL     1       2.410   7.334  19.459  0.00  0.00    +0.000 A 
ATOM     10  C   UNL     1       1.583   8.017  20.356  0.00  0.00    +0.000 A 
ATOM     11  C   UNL     1       0.980   9.226  19.985  0.00  0.00    +0.000 A 
ATOM     12  C   UNL     1       1.213   9.723  18.692  0.00  0.00    +0.000 A 
ATOM     13  C   UNL     1       2.046   9.035  17.799  0.00  0.00    +0.000 A 
BRANCH  11  14
ATOM     14  C   UNL     1       0.117   9.998  20.954  0.00  0.00    +0.000 C 
ATOM     15  F   UNL     1       0.753  11.058  21.527  0.00  0.00    +0.000 F 
ATOM     16  F   UNL     1      -0.998  10.509  20.361  0.00  0.00    +0.000 F 
ATOM     17  F   UNL     1      -0.327   9.228  21.986  0.00  0.00    +0.000 F 
ENDBRANCH  11  14
ENDBRANCH   7   8
ENDBRANCH   5   6
BRANCH   1  18
ATOM     18  C   UNL     1       5.122   3.780  18.363  0.00  0.00    +0.000 C 
BRANCH  18  20
ATOM     19  O   UNL     1       3.182   3.485  16.968  0.00  0.00    +0.000 OA
ATOM     20  C   UNL     1       3.684   3.383  18.090  0.00  0.00    +0.000 C 
ATOM     21  N   UNL     1       2.947   2.889  19.160  0.00  0.00    +0.000 N 
ATOM     22  C   UNL     1       1.597   2.365  18.928  0.00  0.00    +0.000 C 
ATOM     23  C   UNL     1       0.615   2.949  19.945  0.00  0.00    +0.000 C 
ATOM     24  O   UNL     1       1.063   2.695  21.287  0.00  0.00    +0.000 OA
ATOM     25  C   UNL     1       2.346   3.293  21.519  0.00  0.00    +0.000 C 
ATOM     26  C   UNL     1       3.404   2.748  20.548  0.00  0.00    +0.000 C 
ENDBRANCH  18  20
ENDBRANCH   1  18
TORSDOF 5
ENDMDL
MODEL 5
REMARK VINA RESULT:      -7.8      0.813      1.354
REMARK  Name = 
REMARK  5 active torsions:
REMARK  status: ('A' for Active; 'I' for Inactive)
REMARK    1  A    between atoms: C_2  and  C_3
REMARK    2  A    between atoms: C_3  and  N_4
REMARK    3  A    between atoms: C_8  and  N_9
REMARK    4  A    between atoms: N_10  and  C_11
REMARK    5  A    between atoms: C_14  and  C_15
REMARK                            x       y       z     vdW  Elec       q    Type
REMARK                         _______ _______ _______ _____ _____    ______ ____
ROOT
ATOM      1  N   UNL     1       5.634   4.604  17.150  0.00  0.00    +0.000 N 
ATOM      2  C   UNL     1       6.449   4.118  16.161  0.00  0.00    +0.000 A 
ATOM      3  C   UNL     1       6.755   5.210  15.389  0.00  0.00    +0.000 A 
ATOM      4  N   UNL     1       6.167   6.336  15.895  0.00  0.00    +0.000 NA
ATOM      5  C   UNL     1       5.471   5.962  16.959  0.00  0.00    +0.000 A 
ENDROOT
BRANCH   5   6
ATOM      6  N   UNL     1       4.713   6.706  17.815  0.00  0.00    +0.000 NA
ATOM      7  N   UNL     1       3.514   6.782  17.472  0.00  0.00    +0.000 NA
BRANCH   7   8
ATOM      8  C   UNL     1       2.721   7.586  18.312  0.00  0.00    +0.000 A 
ATOM      9  C   UNL     1       2.173   8.749  17.757  0.00  0.00    +0.000 A 
ATOM     10  C   UNL     1       1.322   9.577  18.496  0.00  0.00    +0.000 A 
ATOM     11  C   UNL     1       0.991   9.252  19.817  0.00  0.00    +0.000 A 
ATOM     12  C   UNL     1       1.543   8.091  20.383  0.00  0.00    +0.000 A 
ATOM     13  C   UNL     1       2.392   7.265  19.635  0.00  0.00    +0.000 A 
BRANCH  11  14
ATOM     14  C   UNL     1       0.042  10.112  20.618  0.00  0.00    +0.000 C 
ATOM     15  F   UNL     1      -1.101  10.431  19.949  0.00  0.00    +0.000 F 
ATOM     16  F   UNL     1      -0.358   9.508  21.772  0.00  0.00    +0.000 F 
ATOM     17  F   UNL     1       0.599  11.298  20.990  0.00  0.00    +0.000 F 
ENDBRANCH  11  14
ENDBRANCH   7   8
ENDBRANCH   5   6
BRANCH   1  18
ATOM     18  C   UNL     1       5.088   3.814  18.242  0.00  0.00    +0.000 C 
BRANCH  18  20
ATOM     19  O   UNL     1       3.124   3.478  16.890  0.00  0.00    +0.000 OA
ATOM     20  C   UNL     1       3.651   3.388  18.001  0.00  0.00    +0.000 C 
ATOM     21  N   UNL     1       2.948   2.882  19.087  0.00  0.00    +0.000 N 
ATOM     22  C   UNL     1       1.604   2.331  18.885  0.00  0.00    +0.000 C 
ATOM     23  C   UNL     1       0.633   2.898  19.923  0.00  0.00    +0.000 C 
ATOM     24  O   UNL     1       1.115   2.655  21.255  0.00  0.00    +0.000 OA
ATOM     25  C   UNL     1       2.391   3.279  21.458  0.00  0.00    +0.000 C 
ATOM     26  C   UNL     1       3.437   2.752  20.465  0.00  0.00    +0.000 C 
ENDBRANCH  18  20
ENDBRANCH   1  18
TORSDOF 5
ENDMDL
MODEL 6
REMARK VINA RESULT:      -7.7      5.306      6.064
REMARK  Name = 
REMARK  5 active torsions:
REMARK  status: ('A' for Active; 'I' for Inactive)
REMARK    1  A    between atoms: C_2  and  C_3
REMARK    2  A    between atoms: C_3  and  N_4
REMARK    3  A    between atoms: C_8  and  N_9
REMARK    4  A    between atoms: N_10  and  C_11
REMARK    5  A    between atoms: C_14  and  C_15
REMARK                            x       y       z     vdW  Elec       q    Type
REMARK                         _______ _______ _______ _____ _____    ______ ____
ROOT
ATOM      1  N   UNL     1       5.983   5.627  17.267  0.00  0.00    +0.000 N 
ATOM      2  C   UNL     1       5.698   4.702  16.296  0.00  0.00    +0.000 A 
ATOM      3  C   UNL     1       6.681   4.868  15.354  0.00  0.00    +0.000 A 
ATOM      4  N   UNL     1       7.554   5.847  15.738  0.00  0.00    +0.000 NA
ATOM      5  C   UNL     1       7.119   6.319  16.897  0.00  0.00    +0.000 A 
ENDROOT
BRANCH   5   6
ATOM      6  N   UNL     1       7.637   7.296  17.696  0.00  0.00    +0.000 NA
ATOM      7  N   UNL     1       7.671   8.417  17.144  0.00  0.00    +0.000 NA
BRANCH   7   8
ATOM      8  C   UNL     1       8.248   9.431  17.930  0.00  0.00    +0.000 A 
ATOM      9  C   UNL     1       8.838   9.048  19.141  0.00  0.00    +0.000 A 
ATOM     10  C   UNL     1       9.490   9.978  19.958  0.00  0.00    +0.000 A 
ATOM     11  C   UNL     1       9.574  11.322  19.574  0.00  0.00    +0.000 A 
ATOM     12  C   UNL     1       8.978  11.714  18.365  0.00  0.00    +0.000 A 
ATOM     13  C   UNL     1       8.330  10.777  17.549  0.00  0.00    +0.000 A 
BRANCH  11  14
ATOM     14  C   UNL     1      10.309  12.331  20.424  0.00  0.00    +0.000 C 
ATOM     15  F   UNL     1      10.122  13.620  20.025  0.00  0.00    +0.000 F 
ATOM     16  F   UNL     1       9.925  12.286  21.731  0.00  0.00    +0.000 F 
ATOM     17  F   UNL     1      11.656  12.132  20.423  0.00  0.00    +0.000 F 
ENDBRANCH  11  14
ENDBRANCH   7   8
ENDBRANCH   5   6
BRANCH   1  18
ATOM     18  C   UNL     1       5.232   5.795  18.501  0.00  0.00    +0.000 C 
BRANCH  18  20
ATOM     19  O   UNL     1       5.596   3.695  19.621  0.00  0.00    +0.000 OA
ATOM     20  C   UNL     1       4.791   4.477  19.109  0.00  0.00    +0.000 C 
ATOM     21  N   UNL     1       3.433   4.183  19.074  0.00  0.00    +0.000 N 
ATOM     22  C   UNL     1       2.934   2.989  19.763  0.00  0.00    +0.000 C 
ATOM     23  C   UNL     1       2.009   2.189  18.844  0.00  0.00    +0.000 C 
ATOM     24  O   UNL     1       0.936   3.014  18.361  0.00  0.00    +0.000 OA
ATOM     25  C   UNL     1       1.445   4.128  17.613  0.00  0.00    +0.000 C 
ATOM     26  C   UNL     1       2.375   5.001  18.470  0.00  0.00    +0.000 C 
ENDBRANCH  18  20
ENDBRANCH   1  18
TORSDOF 5
ENDMDL
MODEL 7
REMARK VINA RESULT:      -7.6      5.315      5.967
REMARK  Name = 
REMARK  5 active torsions:
REMARK  status: ('A' for Active; 'I' for Inactive)
REMARK    1  A    between atoms: C_2  and  C_3
REMARK    2  A    between atoms: C_3  and  N_4
REMARK    3  A    between atoms: C_8  and  N_9
REMARK    4  A    between atoms: N_10  and  C_11
REMARK    5  A    between atoms: C_14  and  C_15
REMARK                            x       y       z     vdW  Elec       q    Type
REMARK                         _______ _______ _______ _____ _____    ______ ____
ROOT
ATOM      1  N   UNL     1       6.134   5.424  17.701  0.00  0.00    +0.000 N 
ATOM      2  C   UNL     1       5.896   4.435  16.781  0.00  0.00    +0.000 A 
ATOM      3  C   UNL     1       6.709   4.739  15.719  0.00  0.00    +0.000 A 
ATOM      4  N   UNL     1       7.440   5.865  15.981  0.00  0.00    +0.000 NA
ATOM      5  C   UNL     1       7.076   6.290  17.182  0.00  0.00    +0.000 A 
ENDROOT
BRANCH   5   6
ATOM      6  N   UNL     1       7.512   7.365  17.900  0.00  0.00    +0.000 NA
ATOM      7  N   UNL     1       7.773   8.359  17.190  0.00  0.00    +0.000 NA
BRANCH   7   8
ATOM      8  C   UNL     1       8.273   9.465  17.902  0.00  0.00    +0.000 A 
ATOM      9  C   UNL     1       8.953   9.204  19.098  0.00  0.00    +0.000 A 
ATOM     10  C   UNL     1       9.537  10.234  19.842  0.00  0.00    +0.000 A 
ATOM     11  C   UNL     1       9.461  11.560  19.397  0.00  0.00    +0.000 A 
ATOM     12  C   UNL     1       8.774  11.829  18.202  0.00  0.00    +0.000 A 
ATOM     13  C   UNL     1       8.194  10.791  17.460  0.00  0.00    +0.000 A 
BRANCH  11  14
ATOM     14  C   UNL     1      10.121  12.680  20.166  0.00  0.00    +0.000 C 
ATOM     15  F   UNL     1      11.309  13.081  19.634  0.00  0.00    +0.000 F 
ATOM     16  F   UNL     1       9.342  13.797  20.224  0.00  0.00    +0.000 F 
ATOM     17  F   UNL     1      10.386  12.341  21.458  0.00  0.00    +0.000 F 
ENDBRANCH  11  14
ENDBRANCH   7   8
ENDBRANCH   5   6
BRANCH   1  18
ATOM     18  C   UNL     1       5.525   5.498  19.020  0.00  0.00    +0.000 C 
BRANCH  18  20
ATOM     19  O   UNL     1       3.451   6.656  18.628  0.00  0.00    +0.000 OA
ATOM     20  C   UNL     1       4.013   5.612  18.966  0.00  0.00    +0.000 C 
ATOM     21  N   UNL     1       3.279   4.484  19.309  0.00  0.00    +0.000 N 
ATOM     22  C   UNL     1       1.821   4.493  19.148  0.00  0.00    +0.000 C 
ATOM     23  C   UNL     1       1.139   3.973  20.415  0.00  0.00    +0.000 C 
ATOM     24  O   UNL     1       1.630   2.665  20.754  0.00  0.00    +0.000 OA
ATOM     25  C   UNL     1       3.044   2.697  20.995  0.00  0.00    +0.000 C 
ATOM     26  C   UNL     1       3.812   3.193  19.762  0.00  0.00    +0.000 C 
ENDBRANCH  18  20
ENDBRANCH   1  18
TORSDOF 5
ENDMDL
MODEL 8
REMARK VINA RESULT:      -7.5      5.206      5.930
REMARK  Name = 
REMARK  5 active torsions:
REMARK  status: ('A' for Active; 'I' for Inactive)
REMARK    1  A    between atoms: C_2  and  C_3
REMARK    2  A    between atoms: C_3  and  N_4
REMARK    3  A    between atoms: C_8  and  N_9
REMARK    4  A    between atoms: N_10  and  C_11
REMARK    5  A    between atoms: C_14  and  C_15
REMARK                            x       y       z     vdW  Elec       q    Type
REMARK                         _______ _______ _______ _____ _____    ______ ____
ROOT
ATOM      1  N   UNL     1       6.133   5.322  17.561  0.00  0.00    +0.000 N 
ATOM      2  C   UNL     1       5.771   4.394  16.618  0.00  0.00    +0.000 A 
ATOM      3  C   UNL     1       6.564   4.668  15.533  0.00  0.00    +0.000 A 
ATOM      4  N   UNL     1       7.402   5.714  15.803  0.00  0.00    +0.000 NA
ATOM      5  C   UNL     1       7.126   6.122  17.033  0.00  0.00    +0.000 A 
ENDROOT
BRANCH   5   6
ATOM      6  N   UNL     1       7.684   7.126  17.769  0.00  0.00    +0.000 NA
ATOM      7  N   UNL     1       7.648   8.235  17.196  0.00  0.00    +0.000 NA
BRANCH   7   8
ATOM      8  C   UNL     1       8.263   9.278  17.913  0.00  0.00    +0.000 A 
ATOM      9  C   UNL     1       8.166  10.569  17.378  0.00  0.00    +0.000 A 
ATOM     10  C   UNL     1       8.692  11.677  18.050  0.00  0.00    +0.000 A 
ATOM     11  C   UNL     1       9.325  11.518  19.289  0.00  0.00    +0.000 A 
ATOM     12  C   UNL     1       9.432  10.225  19.829  0.00  0.00    +0.000 A 
ATOM     13  C   UNL     1       8.899   9.121  19.150  0.00  0.00    +0.000 A 
BRANCH  11  14
ATOM     14  C   UNL     1       9.862  12.707  20.049  0.00  0.00    +0.000 C 
ATOM     15  F   UNL     1      10.220  13.750  19.249  0.00  0.00    +0.000 F 
ATOM     16  F   UNL     1       8.955  13.210  20.934  0.00  0.00    +0.000 F 
ATOM     17  F   UNL     1      10.969  12.402  20.782  0.00  0.00    +0.000 F 
ENDBRANCH  11  14
ENDBRANCH   7   8
ENDBRANCH   5   6
BRANCH   1  18
ATOM     18  C   UNL     1       5.586   5.397  18.907  0.00  0.00    +0.000 C 
BRANCH  18  20
ATOM     19  O   UNL     1       3.522   6.599  18.609  0.00  0.00    +0.000 OA
ATOM     20  C   UNL     1       4.076   5.543  18.924  0.00  0.00    +0.000 C 
ATOM     21  N   UNL     1       3.334   4.432  19.304  0.00  0.00    +0.000 N 
ATOM     22  C   UNL     1       1.871   4.473  19.210  0.00  0.00    +0.000 C 
ATOM     23  C   UNL     1       1.238   3.969  20.509  0.00  0.00    +0.000 C 
ATOM     24  O   UNL     1       1.716   2.652  20.829  0.00  0.00    +0.000 OA
ATOM     25  C   UNL     1       3.140   2.653  21.004  0.00  0.00    +0.000 C 
ATOM     26  C   UNL     1       3.861   3.131  19.734  0.00  0.00    +0.000 C 
ENDBRANCH  18  20
ENDBRANCH   1  18
TORSDOF 5
ENDMDL
MODEL 9
REMARK VINA RESULT:      -7.5      1.053      1.259
REMARK  Name = 
REMARK  5 active torsions:
REMARK  status: ('A' for Active; 'I' for Inactive)
REMARK    1  A    between atoms: C_2  and  C_3
REMARK    2  A    between atoms: C_3  and  N_4
REMARK    3  A    between atoms: C_8  and  N_9
REMARK    4  A    between atoms: N_10  and  C_11
REMARK    5  A    between atoms: C_14  and  C_15
REMARK                            x       y       z     vdW  Elec       q    Type
REMARK                         _______ _______ _______ _____ _____    ______ ____
ROOT
ATOM      1  N   UNL     1       5.464   4.862  17.334  0.00  0.00    +0.000 N 
ATOM      2  C   UNL     1       6.375   4.539  16.362  0.00  0.00    +0.000 A 
ATOM      3  C   UNL     1       6.295   5.562  15.451  0.00  0.00    +0.000 A 
ATOM      4  N   UNL     1       5.383   6.495  15.856  0.00  0.00    +0.000 NA
ATOM      5  C   UNL     1       4.865   6.060  16.996  0.00  0.00    +0.000 A 
ENDROOT
BRANCH   5   6
ATOM      6  N   UNL     1       3.922   6.625  17.802  0.00  0.00    +0.000 NA
ATOM      7  N   UNL     1       3.425   7.667  17.325  0.00  0.00    +0.000 NA
BRANCH   7   8
ATOM      8  C   UNL     1       2.486   8.298  18.161  0.00  0.00    +0.000 A 
ATOM      9  C   UNL     1       2.271   7.734  19.425  0.00  0.00    +0.000 A 
ATOM     10  C   UNL     1       1.402   8.326  20.348  0.00  0.00    +0.000 A 
ATOM     11  C   UNL     1       0.729   9.511  20.026  0.00  0.00    +0.000 A 
ATOM     12  C   UNL     1       0.934  10.078  18.758  0.00  0.00    +0.000 A 
ATOM     13  C   UNL     1       1.809   9.481  17.840  0.00  0.00    +0.000 A 
BRANCH  11  14
ATOM     14  C   UNL     1      -0.181  10.186  21.025  0.00  0.00    +0.000 C 
ATOM     15  F   UNL     1      -1.250  10.809  20.455  0.00  0.00    +0.000 F 
ATOM     16  F   UNL     1      -0.700   9.309  21.929  0.00  0.00    +0.000 F 
ATOM     17  F   UNL     1       0.461  11.140  21.755  0.00  0.00    +0.000 F 
ENDBRANCH  11  14
ENDBRANCH   7   8
ENDBRANCH   5   6
BRANCH   1  18
ATOM     18  C   UNL     1       5.224   4.087  18.541  0.00  0.00    +0.000 C 
BRANCH  18  20
ATOM     19  O   UNL     1       4.145   2.227  17.456  0.00  0.00    +0.000 OA
ATOM     20  C   UNL     1       4.124   3.055  18.370  0.00  0.00    +0.000 C 
ATOM     21  N   UNL     1       3.087   3.073  19.294  0.00  0.00    +0.000 N 
ATOM     22  C   UNL     1       2.069   2.018  19.259  0.00  0.00    +0.000 C 
ATOM     23  C   UNL     1       0.666   2.626  19.321  0.00  0.00    +0.000 C 
ATOM     24  O   UNL     1       0.527   3.464  20.480  0.00  0.00    +0.000 OA
ATOM     25  C   UNL     1       1.474   4.541  20.449  0.00  0.00    +0.000 C 
ATOM     26  C   UNL     1       2.918   4.018  20.404  0.00  0.00    +0.000 C 
ENDBRANCH  18  20
ENDBRANCH   1  18
TORSDOF 5
ENDMDL
