MODEL 1
REMARK VINA RESULT:      -7.1      0.000      0.000
REMARK  Name = 
REMARK  6 active torsions:
REMARK  status: ('A' for Active; 'I' for Inactive)
REMARK    1  A    between atoms: N_1  and  C_2
REMARK    2  A    between atoms: C_2  and  C_3
REMARK    3  A    between atoms: C_3  and  C_4
REMARK    4  A    between atoms: C_7  and  S_8
REMARK    5  A    between atoms: N_9  and  C_10
REMARK    6  A    between atoms: C_18  and  N_19
REMARK                            x       y       z     vdW  Elec       q    Type
REMARK                         _______ _______ _______ _____ _____    ______ ____
ROOT
ATOM      1  C   UNL     1       2.571   6.264  18.382  0.00  0.00    +0.000 C 
ATOM      2  C   UNL     1       2.752   6.304  19.904  0.00  0.00    +0.000 C 
ATOM      3  O   UNL     1       1.828   7.178  20.457  0.00  0.00    +0.000 OA
ATOM      4  C   UNL     1       1.507   8.381  19.912  0.00  0.00    +0.000 A 
ATOM      5  C   UNL     1       1.917   8.684  18.591  0.00  0.00    +0.000 A 
ATOM      6  C   UNL     1       1.615   9.928  18.029  0.00  0.00    +0.000 A 
ATOM      7  C   UNL     1       0.886  10.867  18.754  0.00  0.00    +0.000 A 
ATOM      8  C   UNL     1       0.463  10.580  20.052  0.00  0.00    +0.000 A 
ATOM      9  C   UNL     1       0.767   9.344  20.657  0.00  0.00    +0.000 A 
ATOM     10  C   UNL     1       2.706   7.678  17.791  0.00  0.00    +0.000 C 
ENDROOT
BRANCH   1  15
ATOM     11  C   UNL     1       4.670   5.454  17.106  0.00  0.00    +0.000 A 
ATOM     12  C   UNL     1       5.114   4.223  16.669  0.00  0.00    +0.000 A 
ATOM     13  N   UNL     1       4.205   3.285  16.978  0.00  0.00    +0.000 NA
ATOM     14  C   UNL     1       3.219   3.952  17.610  0.00  0.00    +0.000 A 
ATOM     15  N   UNL     1       3.466   5.282  17.721  0.00  0.00    +0.000 N 
BRANCH  14  16
ATOM     16  S   UNL     1       1.746   3.118  18.213  0.00  0.00    +0.000 S 
ATOM     17  H   UNL     1       2.357   2.721  19.417  0.00  0.00    +0.000 HD
ENDBRANCH  14  16
BRANCH  11  18
ATOM     18  C   UNL     1       5.446   6.733  16.892  0.00  0.00    +0.000 C 
BRANCH  18  19
ATOM     19  C   UNL     1       6.940   6.529  17.195  0.00  0.00    +0.000 C 
BRANCH  19  20
ATOM     20  N   UNL     1       7.665   7.797  17.171  0.00  0.00    +0.000 NA
ATOM     21  H   UNL     1       8.682   7.597  17.040  0.00  0.00    +0.000 HD
ATOM     22  H   UNL     1       7.564   8.265  18.099  0.00  0.00    +0.000 HD
ENDBRANCH  19  20
ENDBRANCH  18  19
ENDBRANCH  11  18
ENDBRANCH   1  15
BRANCH   9  23
ATOM     23  N   UNL     1       0.331   9.096  21.999  0.00  0.00    +0.000 N 
ATOM     24  O   UNL     1       0.929   9.547  22.929  0.00  0.00    +0.000 OA
ATOM     25  O   UNL     1      -0.746   8.375  22.229  0.00  0.00    +0.000 OA
ENDBRANCH   9  23
TORSDOF 6
ENDMDL
MODEL 2
REMARK VINA RESULT:      -7.1      1.565      1.779
REMARK  Name = 
REMARK  6 active torsions:
REMARK  status: ('A' for Active; 'I' for Inactive)
REMARK    1  A    between atoms: N_1  and  C_2
REMARK    2  A    between atoms: C_2  and  C_3
REMARK    3  A    between atoms: C_3  and  C_4
REMARK    4  A    between atoms: C_7  and  S_8
REMARK    5  A    between atoms: N_9  and  C_10
REMARK    6  A    between atoms: C_18  and  N_19
REMARK                            x       y       z     vdW  Elec       q    Type
REMARK                         _______ _______ _______ _____ _____    ______ ____
ROOT
ATOM      1  C   UNL     1       2.328   5.289  19.299  0.00  0.00    +0.000 C 
ATOM      2  C   UNL     1       2.370   5.774  20.752  0.00  0.00    +0.000 C 
ATOM      3  O   UNL     1       1.607   6.926  20.878  0.00  0.00    +0.000 OA
ATOM      4  C   UNL     1       1.604   7.932  19.964  0.00  0.00    +0.000 A 
ATOM      5  C   UNL     1       2.191   7.726  18.693  0.00  0.00    +0.000 A 
ATOM      6  C   UNL     1       2.217   8.763  17.754  0.00  0.00    +0.000 A 
ATOM      7  C   UNL     1       1.640   9.994  18.053  0.00  0.00    +0.000 A 
ATOM      8  C   UNL     1       1.046  10.210  19.297  0.00  0.00    +0.000 A 
ATOM      9  C   UNL     1       1.021   9.194  20.274  0.00  0.00    +0.000 A 
ATOM     10  C   UNL     1       2.818   6.397  18.351  0.00  0.00    +0.000 C 
ENDROOT
BRANCH   1  15
ATOM     11  C   UNL     1       4.386   3.742  19.047  0.00  0.00    +0.000 A 
ATOM     12  C   UNL     1       4.552   2.385  18.863  0.00  0.00    +0.000 A 
ATOM     13  N   UNL     1       3.348   1.796  18.775  0.00  0.00    +0.000 NA
ATOM     14  C   UNL     1       2.460   2.799  18.918  0.00  0.00    +0.000 A 
ATOM     15  N   UNL     1       3.050   4.008  19.098  0.00  0.00    +0.000 N 
BRANCH  14  16
ATOM     16  S   UNL     1       0.688   2.511  18.854  0.00  0.00    +0.000 S 
ATOM     17  H   UNL     1       0.523   2.677  20.243  0.00  0.00    +0.000 HD
ENDBRANCH  14  16
BRANCH  11  18
ATOM     18  C   UNL     1       5.545   4.705  19.159  0.00  0.00    +0.000 C 
BRANCH  18  19
ATOM     19  C   UNL     1       6.314   4.799  17.830  0.00  0.00    +0.000 C 
BRANCH  19  20
ATOM     20  N   UNL     1       7.681   4.303  17.971  0.00  0.00    +0.000 NA
ATOM     21  H   UNL     1       7.649   3.367  18.435  0.00  0.00    +0.000 HD
ATOM     22  H   UNL     1       8.211   4.939  18.606  0.00  0.00    +0.000 HD
ENDBRANCH  19  20
ENDBRANCH  18  19
ENDBRANCH  11  18
ENDBRANCH   1  15
BRANCH   9  23
ATOM     23  N   UNL     1       0.418   9.462  21.546  0.00  0.00    +0.000 N 
ATOM     24  O   UNL     1       0.846  10.322  22.256  0.00  0.00    +0.000 OA
ATOM     25  O   UNL     1      -0.628   8.773  21.948  0.00  0.00    +0.000 OA
ENDBRANCH   9  23
TORSDOF 6
ENDMDL
MODEL 3
REMARK VINA RESULT:      -7.0      3.728      5.035
REMARK  Name = 
REMARK  6 active torsions:
REMARK  status: ('A' for Active; 'I' for Inactive)
REMARK    1  A    between atoms: N_1  and  C_2
REMARK    2  A    between atoms: C_2  and  C_3
REMARK    3  A    between atoms: C_3  and  C_4
REMARK    4  A    between atoms: C_7  and  S_8
REMARK    5  A    between atoms: N_9  and  C_10
REMARK    6  A    between atoms: C_18  and  N_19
REMARK                            x       y       z     vdW  Elec       q    Type
REMARK                         _______ _______ _______ _____ _____    ______ ____
ROOT
ATOM      1  C   UNL     1       4.709   4.691  16.750  0.00  0.00    +0.000 C 
ATOM      2  C   UNL     1       5.038   3.602  17.777  0.00  0.00    +0.000 C 
ATOM      3  O   UNL     1       3.960   3.432  18.632  0.00  0.00    +0.000 OA
ATOM      4  C   UNL     1       3.229   4.460  19.139  0.00  0.00    +0.000 A 
ATOM      5  C   UNL     1       3.377   5.759  18.597  0.00  0.00    +0.000 A 
ATOM      6  C   UNL     1       2.650   6.830  19.127  0.00  0.00    +0.000 A 
ATOM      7  C   UNL     1       1.754   6.619  20.173  0.00  0.00    +0.000 A 
ATOM      8  C   UNL     1       1.587   5.343  20.710  0.00  0.00    +0.000 A 
ATOM      9  C   UNL     1       2.319   4.246  20.214  0.00  0.00    +0.000 A 
ATOM     10  C   UNL     1       4.340   6.004  17.462  0.00  0.00    +0.000 C 
ENDROOT
BRANCH   1  15
ATOM     11  C   UNL     1       5.874   4.428  14.455  0.00  0.00    +0.000 A 
ATOM     12  C   UNL     1       7.062   4.885  13.922  0.00  0.00    +0.000 A 
ATOM     13  N   UNL     1       7.727   5.590  14.852  0.00  0.00    +0.000 NA
ATOM     14  C   UNL     1       6.933   5.565  15.940  0.00  0.00    +0.000 A 
ATOM     15  N   UNL     1       5.781   4.874  15.740  0.00  0.00    +0.000 N 
BRANCH  14  16
ATOM     16  S   UNL     1       7.404   6.370  17.476  0.00  0.00    +0.000 S 
ATOM     17  H   UNL     1       8.595   6.893  16.938  0.00  0.00    +0.000 HD
ENDBRANCH  14  16
BRANCH  11  18
ATOM     18  C   UNL     1       4.898   3.576  13.680  0.00  0.00    +0.000 C 
BRANCH  18  19
ATOM     19  C   UNL     1       5.328   3.444  12.208  0.00  0.00    +0.000 C 
BRANCH  19  20
ATOM     20  N   UNL     1       6.036   2.189  11.972  0.00  0.00    +0.000 NA
ATOM     21  H   UNL     1       6.107   2.036  10.941  0.00  0.00    +0.000 HD
ATOM     22  H   UNL     1       5.471   1.401  12.358  0.00  0.00    +0.000 HD
ENDBRANCH  19  20
ENDBRANCH  18  19
ENDBRANCH  11  18
ENDBRANCH   1  15
BRANCH   9  23
ATOM     23  N   UNL     1       2.132   2.954  20.806  0.00  0.00    +0.000 N 
ATOM     24  O   UNL     1       1.524   2.101  20.232  0.00  0.00    +0.000 OA
ATOM     25  O   UNL     1       2.637   2.682  21.990  0.00  0.00    +0.000 OA
ENDBRANCH   9  23
TORSDOF 6
ENDMDL
MODEL 4
REMARK VINA RESULT:      -6.9      0.909      1.127
REMARK  Name = 
REMARK  6 active torsions:
REMARK  status: ('A' for Active; 'I' for Inactive)
REMARK    1  A    between atoms: N_1  and  C_2
REMARK    2  A    between atoms: C_2  and  C_3
REMARK    3  A    between atoms: C_3  and  C_4
REMARK    4  A    between atoms: C_7  and  S_8
REMARK    5  A    between atoms: N_9  and  C_10
REMARK    6  A    between atoms: C_18  and  N_19
REMARK                            x       y       z     vdW  Elec       q    Type
REMARK                         _______ _______ _______ _____ _____    ______ ____
ROOT
ATOM      1  C   UNL     1       2.293   5.827  18.773  0.00  0.00    +0.000 C 
ATOM      2  C   UNL     1       2.498   5.997  20.282  0.00  0.00    +0.000 C 
ATOM      3  O   UNL     1       1.688   7.021  20.748  0.00  0.00    +0.000 OA
ATOM      4  C   UNL     1       1.499   8.194  20.086  0.00  0.00    +0.000 A 
ATOM      5  C   UNL     1       1.922   8.315  18.740  0.00  0.00    +0.000 A 
ATOM      6  C   UNL     1       1.756   9.524  18.057  0.00  0.00    +0.000 A 
ATOM      7  C   UNL     1       1.148  10.607  18.687  0.00  0.00    +0.000 A 
ATOM      8  C   UNL     1       0.714  10.501  20.007  0.00  0.00    +0.000 A 
ATOM      9  C   UNL     1       0.884   9.304  20.732  0.00  0.00    +0.000 A 
ATOM     10  C   UNL     1       2.580   7.150  18.043  0.00  0.00    +0.000 C 
ENDROOT
BRANCH   1  15
ATOM     11  C   UNL     1       4.303   4.648  17.649  0.00  0.00    +0.000 A 
ATOM     12  C   UNL     1       4.579   3.342  17.301  0.00  0.00    +0.000 A 
ATOM     13  N   UNL     1       3.529   2.565  17.613  0.00  0.00    +0.000 NA
ATOM     14  C   UNL     1       2.626   3.404  18.158  0.00  0.00    +0.000 A 
ATOM     15  N   UNL     1       3.061   4.689  18.211  0.00  0.00    +0.000 N 
BRANCH  14  16
ATOM     16  S   UNL     1       1.022   2.830  18.728  0.00  0.00    +0.000 S 
ATOM     17  H   UNL     1       1.525   2.375  19.962  0.00  0.00    +0.000 HD
ENDBRANCH  14  16
BRANCH  11  18
ATOM     18  C   UNL     1       5.266   5.786  17.408  0.00  0.00    +0.000 C 
BRANCH  18  19
ATOM     19  C   UNL     1       5.794   5.765  15.963  0.00  0.00    +0.000 C 
BRANCH  19  20
ATOM     20  N   UNL     1       7.250   5.877  15.927  0.00  0.00    +0.000 NA
ATOM     21  H   UNL     1       7.661   4.944  16.157  0.00  0.00    +0.000 HD
ATOM     22  H   UNL     1       7.560   6.538  16.673  0.00  0.00    +0.000 HD
ENDBRANCH  19  20
ENDBRANCH  18  19
ENDBRANCH  11  18
ENDBRANCH   1  15
BRANCH   9  23
ATOM     23  N   UNL     1       0.440   9.241  22.094  0.00  0.00    +0.000 N 
ATOM     24  O   UNL     1      -0.633   8.793  22.367  0.00  0.00    +0.000 OA
ATOM     25  O   UNL     1       1.215   9.666  23.068  0.00  0.00    +0.000 OA
ENDBRANCH   9  23
TORSDOF 6
ENDMDL
MODEL 5
REMARK VINA RESULT:      -6.8      1.726      3.036
REMARK  Name = 
REMARK  6 active torsions:
REMARK  status: ('A' for Active; 'I' for Inactive)
REMARK    1  A    between atoms: N_1  and  C_2
REMARK    2  A    between atoms: C_2  and  C_3
REMARK    3  A    between atoms: C_3  and  C_4
REMARK    4  A    between atoms: C_7  and  S_8
REMARK    5  A    between atoms: N_9  and  C_10
REMARK    6  A    between atoms: C_18  and  N_19
REMARK                            x       y       z     vdW  Elec       q    Type
REMARK                         _______ _______ _______ _____ _____    ______ ____
ROOT
ATOM      1  C   UNL     1       2.416   6.008  18.551  0.00  0.00    +0.000 C 
ATOM      2  C   UNL     1       2.683   6.157  20.053  0.00  0.00    +0.000 C 
ATOM      3  O   UNL     1       1.849   7.133  20.577  0.00  0.00    +0.000 OA
ATOM      4  C   UNL     1       1.577   8.308  19.950  0.00  0.00    +0.000 A 
ATOM      5  C   UNL     1       1.931   8.476  18.590  0.00  0.00    +0.000 A 
ATOM      6  C   UNL     1       1.679   9.689  17.942  0.00  0.00    +0.000 A 
ATOM      7  C   UNL     1       1.053  10.730  18.622  0.00  0.00    +0.000 A 
ATOM      8  C   UNL     1       0.685  10.578  19.959  0.00  0.00    +0.000 A 
ATOM      9  C   UNL     1       0.943   9.376  20.648  0.00  0.00    +0.000 A 
ATOM     10  C   UNL     1       2.608   7.357  17.838  0.00  0.00    +0.000 C 
ENDROOT
BRANCH   1  15
ATOM     11  C   UNL     1       2.915   3.598  17.754  0.00  0.00    +0.000 A 
ATOM     12  C   UNL     1       3.973   3.002  17.100  0.00  0.00    +0.000 A 
ATOM     13  N   UNL     1       4.934   3.914  16.881  0.00  0.00    +0.000 NA
ATOM     14  C   UNL     1       4.447   5.061  17.394  0.00  0.00    +0.000 A 
ATOM     15  N   UNL     1       3.208   4.918  17.930  0.00  0.00    +0.000 N 
BRANCH  14  16
ATOM     16  S   UNL     1       5.388   6.591  17.357  0.00  0.00    +0.000 S 
ATOM     17  H   UNL     1       4.252   7.397  17.562  0.00  0.00    +0.000 HD
ENDBRANCH  14  16
BRANCH  11  18
ATOM     18  C   UNL     1       1.677   2.842  18.176  0.00  0.00    +0.000 C 
BRANCH  18  19
ATOM     19  C   UNL     1       1.721   2.504  19.676  0.00  0.00    +0.000 C 
BRANCH  19  20
ATOM     20  N   UNL     1       0.640   3.165  20.403  0.00  0.00    +0.000 NA
ATOM     21  H   UNL     1       0.400   2.587  21.240  0.00  0.00    +0.000 HD
ATOM     22  H   UNL     1      -0.210   3.192  19.798  0.00  0.00    +0.000 HD
ENDBRANCH  19  20
ENDBRANCH  18  19
ENDBRANCH  11  18
ENDBRANCH   1  15
BRANCH   9  23
ATOM     23  N   UNL     1       0.566   9.266  22.027  0.00  0.00    +0.000 N 
ATOM     24  O   UNL     1       1.316   9.603  22.894  0.00  0.00    +0.000 OA
ATOM     25  O   UNL     1      -0.619   8.803  22.361  0.00  0.00    +0.000 OA
ENDBRANCH   9  23
TORSDOF 6
ENDMDL
MODEL 6
REMARK VINA RESULT:      -6.7      2.591      3.875
REMARK  Name = 
REMARK  6 active torsions:
REMARK  status: ('A' for Active; 'I' for Inactive)
REMARK    1  A    between atoms: N_1  and  C_2
REMARK    2  A    between atoms: C_2  and  C_3
REMARK    3  A    between atoms: C_3  and  C_4
REMARK    4  A    between atoms: C_7  and  S_8
REMARK    5  A    between atoms: N_9  and  C_10
REMARK    6  A    between atoms: C_18  and  N_19
REMARK                            x       y       z     vdW  Elec       q    Type
REMARK                         _______ _______ _______ _____ _____    ______ ____
ROOT
ATOM      1  C   UNL     1       3.023   6.980  18.463  0.00  0.00    +0.000 C 
ATOM      2  C   UNL     1       2.172   7.788  17.478  0.00  0.00    +0.000 C 
ATOM      3  O   UNL     1       1.832   9.006  18.050  0.00  0.00    +0.000 OA
ATOM      4  C   UNL     1       1.453   9.149  19.348  0.00  0.00    +0.000 A 
ATOM      5  C   UNL     1       1.646   8.082  20.257  0.00  0.00    +0.000 A 
ATOM      6  C   UNL     1       1.237   8.209  21.588  0.00  0.00    +0.000 A 
ATOM      7  C   UNL     1       0.663   9.396  22.035  0.00  0.00    +0.000 A 
ATOM      8  C   UNL     1       0.477  10.463  21.155  0.00  0.00    +0.000 A 
ATOM      9  C   UNL     1       0.859  10.362  19.802  0.00  0.00    +0.000 A 
ATOM     10  C   UNL     1       2.269   6.789  19.790  0.00  0.00    +0.000 C 
ENDROOT
BRANCH   1  15
ATOM     11  C   UNL     1       2.854   4.514  17.699  0.00  0.00    +0.000 A 
ATOM     12  C   UNL     1       3.733   3.628  17.111  0.00  0.00    +0.000 A 
ATOM     13  N   UNL     1       4.926   4.222  16.951  0.00  0.00    +0.000 NA
ATOM     14  C   UNL     1       4.761   5.469  17.433  0.00  0.00    +0.000 A 
ATOM     15  N   UNL     1       3.503   5.697  17.892  0.00  0.00    +0.000 N 
BRANCH  14  16
ATOM     16  S   UNL     1       6.103   6.664  17.453  0.00  0.00    +0.000 S 
ATOM     17  H   UNL     1       5.821   7.088  18.766  0.00  0.00    +0.000 HD
ENDBRANCH  14  16
BRANCH  11  18
ATOM     18  C   UNL     1       1.429   4.153  18.045  0.00  0.00    +0.000 C 
BRANCH  18  19
ATOM     19  C   UNL     1       1.382   2.987  19.047  0.00  0.00    +0.000 C 
BRANCH  19  20
ATOM     20  N   UNL     1       0.593   3.331  20.226  0.00  0.00    +0.000 NA
ATOM     21  H   UNL     1       0.120   4.247  20.055  0.00  0.00    +0.000 HD
ATOM     22  H   UNL     1       1.234   3.467  21.038  0.00  0.00    +0.000 HD
ENDBRANCH  19  20
ENDBRANCH  18  19
ENDBRANCH  11  18
ENDBRANCH   1  15
BRANCH   9  23
ATOM     23  N   UNL     1       0.634  11.474  18.926  0.00  0.00    +0.000 N 
ATOM     24  O   UNL     1      -0.452  11.688  18.478  0.00  0.00    +0.000 OA
ATOM     25  O   UNL     1       1.620  12.286  18.612  0.00  0.00    +0.000 OA
ENDBRANCH   9  23
TORSDOF 6
ENDMDL
MODEL 7
REMARK VINA RESULT:      -6.6      4.732      5.677
REMARK  Name = 
REMARK  6 active torsions:
REMARK  status: ('A' for Active; 'I' for Inactive)
REMARK    1  A    between atoms: N_1  and  C_2
REMARK    2  A    between atoms: C_2  and  C_3
REMARK    3  A    between atoms: C_3  and  C_4
REMARK    4  A    between atoms: C_7  and  S_8
REMARK    5  A    between atoms: N_9  and  C_10
REMARK    6  A    between atoms: C_18  and  N_19
REMARK                            x       y       z     vdW  Elec       q    Type
REMARK                         _______ _______ _______ _____ _____    ______ ____
ROOT
ATOM      1  C   UNL     1       5.130   3.926  16.971  0.00  0.00    +0.000 C 
ATOM      2  C   UNL     1       5.516   4.212  18.426  0.00  0.00    +0.000 C 
ATOM      3  O   UNL     1       4.650   3.540  19.277  0.00  0.00    +0.000 OA
ATOM      4  C   UNL     1       3.309   3.455  19.073  0.00  0.00    +0.000 A 
ATOM      5  C   UNL     1       2.764   3.831  17.822  0.00  0.00    +0.000 A 
ATOM      6  C   UNL     1       1.383   3.771  17.609  0.00  0.00    +0.000 A 
ATOM      7  C   UNL     1       0.538   3.314  18.618  0.00  0.00    +0.000 A 
ATOM      8  C   UNL     1       1.060   2.927  19.852  0.00  0.00    +0.000 A 
ATOM      9  C   UNL     1       2.444   2.994  20.107  0.00  0.00    +0.000 A 
ATOM     10  C   UNL     1       3.666   4.326  16.718  0.00  0.00    +0.000 C 
ENDROOT
BRANCH   1  15
ATOM     11  C   UNL     1       6.209   4.331  14.656  0.00  0.00    +0.000 A 
ATOM     12  C   UNL     1       7.206   5.165  14.193  0.00  0.00    +0.000 A 
ATOM     13  N   UNL     1       7.704   5.878  15.216  0.00  0.00    +0.000 NA
ATOM     14  C   UNL     1       6.999   5.478  16.292  0.00  0.00    +0.000 A 
ATOM     15  N   UNL     1       6.064   4.539  15.995  0.00  0.00    +0.000 N 
BRANCH  14  16
ATOM     16  S   UNL     1       7.313   6.142  17.932  0.00  0.00    +0.000 S 
ATOM     17  H   UNL     1       7.834   4.928  18.419  0.00  0.00    +0.000 HD
ENDBRANCH  14  16
BRANCH  11  18
ATOM     18  C   UNL     1       5.458   3.372  13.763  0.00  0.00    +0.000 C 
BRANCH  18  19
ATOM     19  C   UNL     1       6.082   3.321  12.358  0.00  0.00    +0.000 C 
BRANCH  19  20
ATOM     20  N   UNL     1       5.963   1.989  11.771  0.00  0.00    +0.000 NA
ATOM     21  H   UNL     1       4.953   1.798  11.580  0.00  0.00    +0.000 HD
ATOM     22  H   UNL     1       6.279   1.279  12.469  0.00  0.00    +0.000 HD
ENDBRANCH  19  20
ENDBRANCH  18  19
ENDBRANCH  11  18
ENDBRANCH   1  15
BRANCH   9  23
ATOM     23  N   UNL     1       2.938   2.605  21.395  0.00  0.00    +0.000 N 
ATOM     24  O   UNL     1       2.378   2.947  22.393  0.00  0.00    +0.000 OA
ATOM     25  O   UNL     1       4.012   1.852  21.499  0.00  0.00    +0.000 OA
ENDBRANCH   9  23
TORSDOF 6
ENDMDL
MODEL 8
REMARK VINA RESULT:      -6.5      1.693      2.909
REMARK  Name = 
REMARK  6 active torsions:
REMARK  status: ('A' for Active; 'I' for Inactive)
REMARK    1  A    between atoms: N_1  and  C_2
REMARK    2  A    between atoms: C_2  and  C_3
REMARK    3  A    between atoms: C_3  and  C_4
REMARK    4  A    between atoms: C_7  and  S_8
REMARK    5  A    between atoms: N_9  and  C_10
REMARK    6  A    between atoms: C_18  and  N_19
REMARK                            x       y       z     vdW  Elec       q    Type
REMARK                         _______ _______ _______ _____ _____    ______ ____
ROOT
ATOM      1  C   UNL     1       2.977   6.097  18.150  0.00  0.00    +0.000 C 
ATOM      2  C   UNL     1       3.106   6.129  19.677  0.00  0.00    +0.000 C 
ATOM      3  O   UNL     1       2.121   6.948  20.208  0.00  0.00    +0.000 OA
ATOM      4  C   UNL     1       1.756   8.140  19.665  0.00  0.00    +0.000 A 
ATOM      5  C   UNL     1       2.192   8.478  18.362  0.00  0.00    +0.000 A 
ATOM      6  C   UNL     1       1.845   9.712  17.802  0.00  0.00    +0.000 A 
ATOM      7  C   UNL     1       1.045  10.603  18.512  0.00  0.00    +0.000 A 
ATOM      8  C   UNL     1       0.596  10.280  19.792  0.00  0.00    +0.000 A 
ATOM      9  C   UNL     1       0.944   9.054  20.394  0.00  0.00    +0.000 A 
ATOM     10  C   UNL     1       3.058   7.523  17.578  0.00  0.00    +0.000 C 
ENDROOT
BRANCH   1  15
ATOM     11  C   UNL     1       3.821   3.855  17.176  0.00  0.00    +0.000 A 
ATOM     12  C   UNL     1       4.996   3.448  16.577  0.00  0.00    +0.000 A 
ATOM     13  N   UNL     1       5.860   4.475  16.547  0.00  0.00    +0.000 NA
ATOM     14  C   UNL     1       5.200   5.501  17.118  0.00  0.00    +0.000 A 
ATOM     15  N   UNL     1       3.942   5.171  17.509  0.00  0.00    +0.000 N 
BRANCH  14  16
ATOM     16  S   UNL     1       5.958   7.117  17.328  0.00  0.00    +0.000 S 
ATOM     17  H   UNL     1       6.246   6.902  18.689  0.00  0.00    +0.000 HD
ENDBRANCH  14  16
BRANCH  11  18
ATOM     18  C   UNL     1       2.646   2.931  17.394  0.00  0.00    +0.000 C 
BRANCH  18  19
ATOM     19  C   UNL     1       2.860   2.049  18.635  0.00  0.00    +0.000 C 
BRANCH  19  20
ATOM     20  N   UNL     1       3.777   0.948  18.353  0.00  0.00    +0.000 NA
ATOM     21  H   UNL     1       3.894   0.380  19.222  0.00  0.00    +0.000 HD
ATOM     22  H   UNL     1       4.716   1.338  18.116  0.00  0.00    +0.000 HD
ENDBRANCH  19  20
ENDBRANCH  18  19
ENDBRANCH  11  18
ENDBRANCH   1  15
BRANCH   9  23
ATOM     23  N   UNL     1       0.477   8.768  21.719  0.00  0.00    +0.000 N 
ATOM     24  O   UNL     1      -0.518   8.130  21.892  0.00  0.00    +0.000 OA
ATOM     25  O   UNL     1       1.146   9.194  22.769  0.00  0.00    +0.000 OA
ENDBRANCH   9  23
TORSDOF 6
ENDMDL
MODEL 9
REMARK VINA RESULT:      -6.5      2.756      3.986
REMARK  Name = 
REMARK  6 active torsions:
REMARK  status: ('A' for Active; 'I' for Inactive)
REMARK    1  A    between atoms: N_1  and  C_2
REMARK    2  A    between atoms: C_2  and  C_3
REMARK    3  A    between atoms: C_3  and  C_4
REMARK    4  A    between atoms: C_7  and  S_8
REMARK    5  A    between atoms: N_9  and  C_10
REMARK    6  A    between atoms: C_18  and  N_19
REMARK                            x       y       z     vdW  Elec       q    Type
REMARK                         _______ _______ _______ _____ _____    ______ ____
ROOT
ATOM      1  C   UNL     1       2.714   6.711  19.277  0.00  0.00    +0.000 C 
ATOM      2  C   UNL     1       2.028   7.438  18.116  0.00  0.00    +0.000 C 
ATOM      3  O   UNL     1       1.783   8.756  18.475  0.00  0.00    +0.000 OA
ATOM      4  C   UNL     1       1.331   9.132  19.701  0.00  0.00    +0.000 A 
ATOM      5  C   UNL     1       1.342   8.202  20.768  0.00  0.00    +0.000 A 
ATOM      6  C   UNL     1       0.855   8.569  22.027  0.00  0.00    +0.000 A 
ATOM      7  C   UNL     1       0.384   9.861  22.246  0.00  0.00    +0.000 A 
ATOM      8  C   UNL     1       0.378  10.793  21.209  0.00  0.00    +0.000 A 
ATOM      9  C   UNL     1       0.842  10.451  19.923  0.00  0.00    +0.000 A 
ATOM     10  C   UNL     1       1.851   6.799  20.548  0.00  0.00    +0.000 C 
ENDROOT
BRANCH   1  15
ATOM     11  C   UNL     1       2.445   4.140  19.181  0.00  0.00    +0.000 A 
ATOM     12  C   UNL     1       3.197   3.114  18.648  0.00  0.00    +0.000 A 
ATOM     13  N   UNL     1       4.314   3.618  18.097  0.00  0.00    +0.000 NA
ATOM     14  C   UNL     1       4.225   4.948  18.291  0.00  0.00    +0.000 A 
ATOM     15  N   UNL     1       3.091   5.316  18.941  0.00  0.00    +0.000 N 
BRANCH  14  16
ATOM     16  S   UNL     1       5.511   6.074  17.736  0.00  0.00    +0.000 S 
ATOM     17  H   UNL     1       4.737   7.222  17.990  0.00  0.00    +0.000 HD
ENDBRANCH  14  16
BRANCH  11  18
ATOM     18  C   UNL     1       1.136   3.913  19.900  0.00  0.00    +0.000 C 
BRANCH  18  19
ATOM     19  C   UNL     1       1.282   2.829  20.983  0.00  0.00    +0.000 C 
BRANCH  19  20
ATOM     20  N   UNL     1       2.181   3.261  22.049  0.00  0.00    +0.000 NA
ATOM     21  H   UNL     1       2.498   2.418  22.579  0.00  0.00    +0.000 HD
ATOM     22  H   UNL     1       1.652   3.861  22.720  0.00  0.00    +0.000 HD
ENDBRANCH  19  20
ENDBRANCH  18  19
ENDBRANCH  11  18
ENDBRANCH   1  15
BRANCH   9  23
ATOM     23  N   UNL     1       0.802  11.433  18.880  0.00  0.00    +0.000 N 
ATOM     24  O   UNL     1       1.804  11.961  18.499  0.00  0.00    +0.000 OA
ATOM     25  O   UNL     1      -0.340  11.761  18.315  0.00  0.00    +0.000 OA
ENDBRANCH   9  23
TORSDOF 6
ENDMDL
