MODEL 1
REMARK VINA RESULT:      -6.6      0.000      0.000
REMARK  Name = 
REMARK  5 active torsions:
REMARK  status: ('A' for Active; 'I' for Inactive)
REMARK    1  A    between atoms: C_1  and  O_2
REMARK    2  A    between atoms: O_2  and  C_3
REMARK    3  A    between atoms: C_3  and  C_4
REMARK    4  A    between atoms: C_7  and  C_8
REMARK    5  A    between atoms: C_15  and  O_16
REMARK                            x       y       z     vdW  Elec       q    Type
REMARK                         _______ _______ _______ _____ _____    ______ ____
ROOT
ATOM      1  C   UNL     1       4.447   5.156  18.821  0.00  0.00    +0.000 C 
ATOM      2  O   UNL     1       5.191   5.463  19.755  0.00  0.00    +0.000 OA
ATOM      3  N   UNL     1       3.171   4.620  19.084  0.00  0.00    +0.000 N 
ATOM      4  C   UNL     1       2.737   4.506  20.487  0.00  0.00    +0.000 C 
ATOM      5  C   UNL     1       2.084   3.162  20.828  0.00  0.00    +0.000 C 
ATOM      6  O   UNL     1       0.817   3.041  20.185  0.00  0.00    +0.000 OA
ATOM      7  C   UNL     1       0.843   2.354  18.932  0.00  0.00    +0.000 C 
ATOM      8  C   UNL     1       1.847   2.890  17.900  0.00  0.00    +0.000 C 
ATOM      9  C   UNL     1       2.126   4.387  18.073  0.00  0.00    +0.000 C 
ENDROOT
BRANCH   1  13
ATOM     10  C   UNL     1       5.698   4.842  15.466  0.00  0.00    +0.000 A 
ATOM     11  C   UNL     1       5.349   6.173  15.402  0.00  0.00    +0.000 A 
ATOM     12  C   UNL     1       4.849   6.518  16.678  0.00  0.00    +0.000 A 
ATOM     13  C   UNL     1       4.871   5.366  17.447  0.00  0.00    +0.000 A 
ATOM     14  O   UNL     1       5.440   4.357  16.716  0.00  0.00    +0.000 OA
BRANCH  10  15
ATOM     15  C   UNL     1       6.246   3.882  14.479  0.00  0.00    +0.000 C 
BRANCH  15  17
ATOM     16  C   UNL     1       5.975   3.249  12.231  0.00  0.00    +0.000 C 
ATOM     17  O   UNL     1       5.406   3.944  13.330  0.00  0.00    +0.000 OA
ENDBRANCH  15  17
ENDBRANCH  10  15
ENDBRANCH   1  13
BRANCH   8  18
ATOM     18  O   UNL     1       3.058   2.121  17.959  0.00  0.00    +0.000 OA
ATOM     19  H   UNL     1       3.422   2.095  17.056  0.00  0.00    +0.000 HD
ENDBRANCH   8  18
TORSDOF 4
ENDMDL
MODEL 2
REMARK VINA RESULT:      -6.3      1.558      2.109
REMARK  Name = 
REMARK  5 active torsions:
REMARK  status: ('A' for Active; 'I' for Inactive)
REMARK    1  A    between atoms: C_1  and  O_2
REMARK    2  A    between atoms: O_2  and  C_3
REMARK    3  A    between atoms: C_3  and  C_4
REMARK    4  A    between atoms: C_7  and  C_8
REMARK    5  A    between atoms: C_15  and  O_16
REMARK                            x       y       z     vdW  Elec       q    Type
REMARK                         _______ _______ _______ _____ _____    ______ ____
ROOT
ATOM      1  C   UNL     1       4.430   5.795  16.978  0.00  0.00    +0.000 C 
ATOM      2  O   UNL     1       4.234   7.009  17.054  0.00  0.00    +0.000 OA
ATOM      3  N   UNL     1       3.662   4.907  17.758  0.00  0.00    +0.000 N 
ATOM      4  C   UNL     1       2.591   5.466  18.600  0.00  0.00    +0.000 C 
ATOM      5  C   UNL     1       2.556   4.894  20.022  0.00  0.00    +0.000 C 
ATOM      6  O   UNL     1       2.146   3.528  20.005  0.00  0.00    +0.000 OA
ATOM      7  C   UNL     1       3.216   2.581  19.986  0.00  0.00    +0.000 C 
ATOM      8  C   UNL     1       4.259   2.775  18.875  0.00  0.00    +0.000 C 
ATOM      9  C   UNL     1       3.669   3.441  17.626  0.00  0.00    +0.000 C 
ENDROOT
BRANCH   1  13
ATOM     10  C   UNL     1       6.230   4.296  14.252  0.00  0.00    +0.000 A 
ATOM     11  C   UNL     1       7.322   4.642  15.018  0.00  0.00    +0.000 A 
ATOM     12  C   UNL     1       6.814   5.237  16.194  0.00  0.00    +0.000 A 
ATOM     13  C   UNL     1       5.435   5.270  16.069  0.00  0.00    +0.000 A 
ATOM     14  O   UNL     1       5.082   4.646  14.902  0.00  0.00    +0.000 OA
BRANCH  10  15
ATOM     15  C   UNL     1       6.077   3.674  12.916  0.00  0.00    +0.000 C 
BRANCH  15  17
ATOM     16  C   UNL     1       4.424   3.117  11.340  0.00  0.00    +0.000 C 
ATOM     17  O   UNL     1       4.680   3.594  12.653  0.00  0.00    +0.000 OA
ENDBRANCH  15  17
ENDBRANCH  10  15
ENDBRANCH   1  13
BRANCH   8  18
ATOM     18  O   UNL     1       5.378   3.516  19.385  0.00  0.00    +0.000 OA
ATOM     19  H   UNL     1       5.458   3.293  20.330  0.00  0.00    +0.000 HD
ENDBRANCH   8  18
TORSDOF 4
ENDMDL
MODEL 3
REMARK VINA RESULT:      -6.2      1.376      1.599
REMARK  Name = 
REMARK  5 active torsions:
REMARK  status: ('A' for Active; 'I' for Inactive)
REMARK    1  A    between atoms: C_1  and  O_2
REMARK    2  A    between atoms: O_2  and  C_3
REMARK    3  A    between atoms: C_3  and  C_4
REMARK    4  A    between atoms: C_7  and  C_8
REMARK    5  A    between atoms: C_15  and  O_16
REMARK                            x       y       z     vdW  Elec       q    Type
REMARK                         _______ _______ _______ _____ _____    ______ ____
ROOT
ATOM      1  C   UNL     1       4.015   5.540  18.029  0.00  0.00    +0.000 C 
ATOM      2  O   UNL     1       3.833   6.702  18.396  0.00  0.00    +0.000 OA
ATOM      3  N   UNL     1       3.005   4.575  18.221  0.00  0.00    +0.000 N 
ATOM      4  C   UNL     1       1.724   5.012  18.800  0.00  0.00    +0.000 C 
ATOM      5  C   UNL     1       1.191   4.084  19.897  0.00  0.00    +0.000 C 
ATOM      6  O   UNL     1       0.779   2.836  19.344  0.00  0.00    +0.000 OA
ATOM      7  C   UNL     1       1.768   1.804  19.389  0.00  0.00    +0.000 C 
ATOM      8  C   UNL     1       3.132   2.163  18.782  0.00  0.00    +0.000 C 
ATOM      9  C   UNL     1       3.023   3.210  17.668  0.00  0.00    +0.000 C 
ENDROOT
BRANCH   1  13
ATOM     10  C   UNL     1       6.631   4.729  15.703  0.00  0.00    +0.000 A 
ATOM     11  C   UNL     1       7.361   4.554  16.858  0.00  0.00    +0.000 A 
ATOM     12  C   UNL     1       6.475   4.800  17.931  0.00  0.00    +0.000 A 
ATOM     13  C   UNL     1       5.258   5.162  17.378  0.00  0.00    +0.000 A 
ATOM     14  O   UNL     1       5.346   5.067  16.014  0.00  0.00    +0.000 OA
BRANCH  10  15
ATOM     15  C   UNL     1       6.970   4.653  14.261  0.00  0.00    +0.000 C 
BRANCH  15  17
ATOM     16  C   UNL     1       6.287   3.567  12.292  0.00  0.00    +0.000 C 
ATOM     17  O   UNL     1       6.189   3.598  13.708  0.00  0.00    +0.000 OA
ENDBRANCH  15  17
ENDBRANCH  10  15
ENDBRANCH   1  13
BRANCH   8  18
ATOM     18  O   UNL     1       4.026   2.594  19.820  0.00  0.00    +0.000 OA
ATOM     19  H   UNL     1       3.625   3.381  20.231  0.00  0.00    +0.000 HD
ENDBRANCH   8  18
TORSDOF 4
ENDMDL
MODEL 4
REMARK VINA RESULT:      -6.1      2.045      3.521
REMARK  Name = 
REMARK  5 active torsions:
REMARK  status: ('A' for Active; 'I' for Inactive)
REMARK    1  A    between atoms: C_1  and  O_2
REMARK    2  A    between atoms: O_2  and  C_3
REMARK    3  A    between atoms: C_3  and  C_4
REMARK    4  A    between atoms: C_7  and  C_8
REMARK    5  A    between atoms: C_15  and  O_16
REMARK                            x       y       z     vdW  Elec       q    Type
REMARK                         _______ _______ _______ _____ _____    ______ ____
ROOT
ATOM      1  C   UNL     1       3.146   3.536  17.251  0.00  0.00    +0.000 C 
ATOM      2  O   UNL     1       2.343   3.460  16.320  0.00  0.00    +0.000 OA
ATOM      3  N   UNL     1       2.767   3.123  18.545  0.00  0.00    +0.000 N 
ATOM      4  C   UNL     1       1.425   2.545  18.727  0.00  0.00    +0.000 C 
ATOM      5  C   UNL     1       0.677   3.085  19.951  0.00  0.00    +0.000 C 
ATOM      6  O   UNL     1       1.289   2.630  21.156  0.00  0.00    +0.000 OA
ATOM      7  C   UNL     1       2.237   3.535  21.727  0.00  0.00    +0.000 C 
ATOM      8  C   UNL     1       3.350   4.015  20.784  0.00  0.00    +0.000 C 
ATOM      9  C   UNL     1       3.679   2.990  19.692  0.00  0.00    +0.000 C 
ENDROOT
BRANCH   1  13
ATOM     10  C   UNL     1       6.285   5.285  17.319  0.00  0.00    +0.000 A 
ATOM     11  C   UNL     1       6.592   4.408  16.302  0.00  0.00    +0.000 A 
ATOM     12  C   UNL     1       5.437   3.624  16.087  0.00  0.00    +0.000 A 
ATOM     13  C   UNL     1       4.494   4.028  17.019  0.00  0.00    +0.000 A 
ATOM     14  O   UNL     1       5.002   5.079  17.735  0.00  0.00    +0.000 OA
BRANCH  10  15
ATOM     15  C   UNL     1       7.055   6.335  18.028  0.00  0.00    +0.000 C 
BRANCH  15  17
ATOM     16  C   UNL     1       7.919   8.492  17.676  0.00  0.00    +0.000 C 
ATOM     17  O   UNL     1       7.396   7.324  17.062  0.00  0.00    +0.000 OA
ENDBRANCH  15  17
ENDBRANCH  10  15
ENDBRANCH   1  13
BRANCH   8  18
ATOM     18  O   UNL     1       2.991   5.285  20.218  0.00  0.00    +0.000 OA
ATOM     19  H   UNL     1       3.495   5.964  20.702  0.00  0.00    +0.000 HD
ENDBRANCH   8  18
TORSDOF 4
ENDMDL
MODEL 5
REMARK VINA RESULT:      -6.1      2.593      4.253
REMARK  Name = 
REMARK  5 active torsions:
REMARK  status: ('A' for Active; 'I' for Inactive)
REMARK    1  A    between atoms: C_1  and  O_2
REMARK    2  A    between atoms: O_2  and  C_3
REMARK    3  A    between atoms: C_3  and  C_4
REMARK    4  A    between atoms: C_7  and  C_8
REMARK    5  A    between atoms: C_15  and  O_16
REMARK                            x       y       z     vdW  Elec       q    Type
REMARK                         _______ _______ _______ _____ _____    ______ ____
ROOT
ATOM      1  C   UNL     1       4.869   4.513  17.153  0.00  0.00    +0.000 C 
ATOM      2  O   UNL     1       4.786   4.163  15.974  0.00  0.00    +0.000 OA
ATOM      3  N   UNL     1       3.855   4.160  18.066  0.00  0.00    +0.000 N 
ATOM      4  C   UNL     1       2.747   3.317  17.587  0.00  0.00    +0.000 C 
ATOM      5  C   UNL     1       1.363   3.798  18.034  0.00  0.00    +0.000 C 
ATOM      6  O   UNL     1       1.198   3.617  19.440  0.00  0.00    +0.000 OA
ATOM      7  C   UNL     1       1.507   4.766  20.232  0.00  0.00    +0.000 C 
ATOM      8  C   UNL     1       2.892   5.385  19.995  0.00  0.00    +0.000 C 
ATOM      9  C   UNL     1       3.924   4.354  19.524  0.00  0.00    +0.000 C 
ENDROOT
BRANCH   1  13
ATOM     10  C   UNL     1       7.364   7.010  17.831  0.00  0.00    +0.000 A 
ATOM     11  C   UNL     1       7.916   5.998  18.585  0.00  0.00    +0.000 A 
ATOM     12  C   UNL     1       7.077   4.873  18.421  0.00  0.00    +0.000 A 
ATOM     13  C   UNL     1       6.023   5.268  17.614  0.00  0.00    +0.000 A 
ATOM     14  O   UNL     1       6.231   6.562  17.215  0.00  0.00    +0.000 OA
BRANCH  10  15
ATOM     15  C   UNL     1       7.732   8.427  17.600  0.00  0.00    +0.000 C 
BRANCH  15  17
ATOM     16  C   UNL     1       8.971  10.173  18.571  0.00  0.00    +0.000 C 
ATOM     17  O   UNL     1       8.642   8.793  18.632  0.00  0.00    +0.000 OA
ENDBRANCH  15  17
ENDBRANCH  10  15
ENDBRANCH   1  13
BRANCH   8  18
ATOM     18  O   UNL     1       2.782   6.477  19.069  0.00  0.00    +0.000 OA
ATOM     19  H   UNL     1       2.013   7.006  19.345  0.00  0.00    +0.000 HD
ENDBRANCH   8  18
TORSDOF 4
ENDMDL
MODEL 6
REMARK VINA RESULT:      -6.0      1.048      1.217
REMARK  Name = 
REMARK  5 active torsions:
REMARK  status: ('A' for Active; 'I' for Inactive)
REMARK    1  A    between atoms: C_1  and  O_2
REMARK    2  A    between atoms: O_2  and  C_3
REMARK    3  A    between atoms: C_3  and  C_4
REMARK    4  A    between atoms: C_7  and  C_8
REMARK    5  A    between atoms: C_15  and  O_16
REMARK                            x       y       z     vdW  Elec       q    Type
REMARK                         _______ _______ _______ _____ _____    ______ ____
ROOT
ATOM      1  C   UNL     1       5.060   4.817  18.782  0.00  0.00    +0.000 C 
ATOM      2  O   UNL     1       5.581   5.415  19.725  0.00  0.00    +0.000 OA
ATOM      3  N   UNL     1       3.746   4.321  18.901  0.00  0.00    +0.000 N 
ATOM      4  C   UNL     1       3.007   4.597  20.145  0.00  0.00    +0.000 C 
ATOM      5  C   UNL     1       2.267   3.380  20.711  0.00  0.00    +0.000 C 
ATOM      6  O   UNL     1       1.174   3.019  19.868  0.00  0.00    +0.000 OA
ATOM      7  C   UNL     1       1.467   2.002  18.908  0.00  0.00    +0.000 C 
ATOM      8  C   UNL     1       2.687   2.263  18.012  0.00  0.00    +0.000 C 
ATOM      9  C   UNL     1       2.950   3.758  17.798  0.00  0.00    +0.000 C 
ENDROOT
BRANCH   1  13
ATOM     10  C   UNL     1       6.067   4.274  15.374  0.00  0.00    +0.000 A 
ATOM     11  C   UNL     1       7.324   4.468  15.903  0.00  0.00    +0.000 A 
ATOM     12  C   UNL     1       7.148   4.671  17.290  0.00  0.00    +0.000 A 
ATOM     13  C   UNL     1       5.785   4.640  17.535  0.00  0.00    +0.000 A 
ATOM     14  O   UNL     1       5.133   4.346  16.367  0.00  0.00    +0.000 OA
BRANCH  10  15
ATOM     15  C   UNL     1       5.562   4.043  14.000  0.00  0.00    +0.000 C 
BRANCH  15  17
ATOM     16  C   UNL     1       6.555   3.313  11.999  0.00  0.00    +0.000 C 
ATOM     17  O   UNL     1       6.676   4.173  13.122  0.00  0.00    +0.000 OA
ENDBRANCH  15  17
ENDBRANCH  10  15
ENDBRANCH   1  13
BRANCH   8  18
ATOM     18  O   UNL     1       3.838   1.601  18.559  0.00  0.00    +0.000 OA
ATOM     19  H   UNL     1       4.584   1.792  17.962  0.00  0.00    +0.000 HD
ENDBRANCH   8  18
TORSDOF 4
ENDMDL
MODEL 7
REMARK VINA RESULT:      -6.0      1.768      5.638
REMARK  Name = 
REMARK  5 active torsions:
REMARK  status: ('A' for Active; 'I' for Inactive)
REMARK    1  A    between atoms: C_1  and  O_2
REMARK    2  A    between atoms: O_2  and  C_3
REMARK    3  A    between atoms: C_3  and  C_4
REMARK    4  A    between atoms: C_7  and  C_8
REMARK    5  A    between atoms: C_15  and  O_16
REMARK                            x       y       z     vdW  Elec       q    Type
REMARK                         _______ _______ _______ _____ _____    ______ ____
ROOT
ATOM      1  C   UNL     1       5.636   5.008  19.101  0.00  0.00    +0.000 C 
ATOM      2  O   UNL     1       6.544   5.310  19.878  0.00  0.00    +0.000 OA
ATOM      3  N   UNL     1       5.941   4.585  17.791  0.00  0.00    +0.000 N 
ATOM      4  C   UNL     1       7.358   4.453  17.413  0.00  0.00    +0.000 C 
ATOM      5  C   UNL     1       7.693   5.052  16.043  0.00  0.00    +0.000 C 
ATOM      6  O   UNL     1       7.103   4.280  14.998  0.00  0.00    +0.000 OA
ATOM      7  C   UNL     1       5.833   4.754  14.545  0.00  0.00    +0.000 C 
ATOM      8  C   UNL     1       4.772   4.961  15.637  0.00  0.00    +0.000 C 
ATOM      9  C   UNL     1       4.971   4.026  16.835  0.00  0.00    +0.000 C 
ENDROOT
BRANCH   1  13
ATOM     10  C   UNL     1       2.347   4.322  20.378  0.00  0.00    +0.000 A 
ATOM     11  C   UNL     1       2.144   5.650  20.068  0.00  0.00    +0.000 A 
ATOM     12  C   UNL     1       3.351   6.116  19.500  0.00  0.00    +0.000 A 
ATOM     13  C   UNL     1       4.250   5.064  19.536  0.00  0.00    +0.000 A 
ATOM     14  O   UNL     1       3.614   3.955  20.027  0.00  0.00    +0.000 OA
BRANCH  10  15
ATOM     15  C   UNL     1       1.504   3.283  21.014  0.00  0.00    +0.000 C 
BRANCH  15  17
ATOM     16  C   UNL     1       0.799   2.400  18.953  0.00  0.00    +0.000 C 
ATOM     17  O   UNL     1       1.519   2.150  20.151  0.00  0.00    +0.000 OA
ENDBRANCH  15  17
ENDBRANCH  10  15
ENDBRANCH   1  13
BRANCH   8  18
ATOM     18  O   UNL     1       4.759   6.338  16.043  0.00  0.00    +0.000 OA
ATOM     19  H   UNL     1       5.479   6.450  16.690  0.00  0.00    +0.000 HD
ENDBRANCH   8  18
TORSDOF 4
ENDMDL
MODEL 8
REMARK VINA RESULT:      -6.0      2.444      6.112
REMARK  Name = 
REMARK  5 active torsions:
REMARK  status: ('A' for Active; 'I' for Inactive)
REMARK    1  A    between atoms: C_1  and  O_2
REMARK    2  A    between atoms: O_2  and  C_3
REMARK    3  A    between atoms: C_3  and  C_4
REMARK    4  A    between atoms: C_7  and  C_8
REMARK    5  A    between atoms: C_15  and  O_16
REMARK                            x       y       z     vdW  Elec       q    Type
REMARK                         _______ _______ _______ _____ _____    ______ ____
ROOT
ATOM      1  C   UNL     1       2.970   4.261  17.492  0.00  0.00    +0.000 C 
ATOM      2  O   UNL     1       2.312   3.552  16.729  0.00  0.00    +0.000 OA
ATOM      3  N   UNL     1       4.264   4.680  17.124  0.00  0.00    +0.000 N 
ATOM      4  C   UNL     1       4.766   4.304  15.791  0.00  0.00    +0.000 C 
ATOM      5  C   UNL     1       6.206   3.780  15.795  0.00  0.00    +0.000 C 
ATOM      6  O   UNL     1       7.123   4.830  16.098  0.00  0.00    +0.000 OA
ATOM      7  C   UNL     1       7.488   4.929  17.477  0.00  0.00    +0.000 C 
ATOM      8  C   UNL     1       6.319   5.020  18.470  0.00  0.00    +0.000 C 
ATOM      9  C   UNL     1       5.074   5.669  17.854  0.00  0.00    +0.000 C 
ENDROOT
BRANCH   1  13
ATOM     10  C   UNL     1       1.745   6.103  20.324  0.00  0.00    +0.000 A 
ATOM     11  C   UNL     1       1.470   4.840  20.802  0.00  0.00    +0.000 A 
ATOM     12  C   UNL     1       1.924   3.934  19.818  0.00  0.00    +0.000 A 
ATOM     13  C   UNL     1       2.409   4.689  18.763  0.00  0.00    +0.000 A 
ATOM     14  O   UNL     1       2.343   6.014  19.101  0.00  0.00    +0.000 OA
BRANCH  10  15
ATOM     15  C   UNL     1       1.498   7.468  20.848  0.00  0.00    +0.000 C 
BRANCH  15  17
ATOM     16  C   UNL     1       0.866   9.507  19.865  0.00  0.00    +0.000 C 
ATOM     17  O   UNL     1       1.714   8.372  19.769  0.00  0.00    +0.000 OA
ENDBRANCH  15  17
ENDBRANCH  10  15
ENDBRANCH   1  13
BRANCH   8  18
ATOM     18  O   UNL     1       6.026   3.716  18.993  0.00  0.00    +0.000 OA
ATOM     19  H   UNL     1       5.779   3.155  18.236  0.00  0.00    +0.000 HD
ENDBRANCH   8  18
TORSDOF 4
ENDMDL
MODEL 9
REMARK VINA RESULT:      -5.9      1.589      2.552
REMARK  Name = 
REMARK  5 active torsions:
REMARK  status: ('A' for Active; 'I' for Inactive)
REMARK    1  A    between atoms: C_1  and  O_2
REMARK    2  A    between atoms: O_2  and  C_3
REMARK    3  A    between atoms: C_3  and  C_4
REMARK    4  A    between atoms: C_7  and  C_8
REMARK    5  A    between atoms: C_15  and  O_16
REMARK                            x       y       z     vdW  Elec       q    Type
REMARK                         _______ _______ _______ _____ _____    ______ ____
ROOT
ATOM      1  C   UNL     1       2.926   3.729  17.358  0.00  0.00    +0.000 C 
ATOM      2  O   UNL     1       2.192   3.384  16.430  0.00  0.00    +0.000 OA
ATOM      3  N   UNL     1       2.691   3.244  18.660  0.00  0.00    +0.000 N 
ATOM      4  C   UNL     1       1.600   2.274  18.857  0.00  0.00    +0.000 C 
ATOM      5  C   UNL     1       0.714   2.574  20.071  0.00  0.00    +0.000 C 
ATOM      6  O   UNL     1       1.434   2.361  21.284  0.00  0.00    +0.000 OA
ATOM      7  C   UNL     1       2.044   3.531  21.834  0.00  0.00    +0.000 C 
ATOM      8  C   UNL     1       2.952   4.320  20.879  0.00  0.00    +0.000 C 
ATOM      9  C   UNL     1       3.593   3.430  19.808  0.00  0.00    +0.000 C 
ENDROOT
BRANCH   1  13
ATOM     10  C   UNL     1       6.101   5.196  16.533  0.00  0.00    +0.000 A 
ATOM     11  C   UNL     1       5.447   6.363  16.863  0.00  0.00    +0.000 A 
ATOM     12  C   UNL     1       4.144   5.991  17.264  0.00  0.00    +0.000 A 
ATOM     13  C   UNL     1       4.049   4.618  17.112  0.00  0.00    +0.000 A 
ATOM     14  O   UNL     1       5.266   4.132  16.714  0.00  0.00    +0.000 OA
BRANCH  10  15
ATOM     15  C   UNL     1       7.459   4.899  16.019  0.00  0.00    +0.000 C 
BRANCH  15  17
ATOM     16  C   UNL     1       6.812   4.487  13.797  0.00  0.00    +0.000 C 
ATOM     17  O   UNL     1       7.504   5.364  14.674  0.00  0.00    +0.000 OA
ENDBRANCH  15  17
ENDBRANCH  10  15
ENDBRANCH   1  13
BRANCH   8  18
ATOM     18  O   UNL     1       2.211   5.399  20.288  0.00  0.00    +0.000 OA
ATOM     19  H   UNL     1       1.990   5.127  19.379  0.00  0.00    +0.000 HD
ENDBRANCH   8  18
TORSDOF 4
ENDMDL
