MODEL 1
REMARK VINA RESULT:      -7.0      0.000      0.000
REMARK  Name = 
REMARK  7 active torsions:
REMARK  status: ('A' for Active; 'I' for Inactive)
REMARK    1  A    between atoms: S_2  and  N_4
REMARK    2  A    between atoms: S_2  and  C_16
REMARK    3  A    between atoms: N_4  and  C_5
REMARK    4  A    between atoms: C_5  and  C_6
REMARK    5  A    between atoms: C_6  and  S_7
REMARK    6  A    between atoms: S_7  and  C_8
REMARK    7  A    between atoms: N_12  and  C_13
REMARK                            x       y       z     vdW  Elec       q    Type
REMARK                         _______ _______ _______ _____ _____    ______ ____
ROOT
ATOM      1  N   UNL     1       5.689   5.041  17.096  0.00  0.00    +0.000 NA
ATOM      2  H   UNL     1       5.693   4.407  17.896  0.00  0.00    +0.000 HD
ENDROOT
BRANCH   1   4
ATOM      3  O   UNL     1       7.522   6.643  16.421  0.00  0.00    +0.000 OA
ATOM      4  S   UNL     1       7.238   5.226  16.445  0.00  0.00    +0.000 S 
ATOM      5  O   UNL     1       8.108   4.271  17.089  0.00  0.00    +0.000 OA
BRANCH   4   6
ATOM      6  C   UNL     1       6.981   4.712  14.763  0.00  0.00    +0.000 A 
ATOM      7  C   UNL     1       7.805   5.238  13.761  0.00  0.00    +0.000 A 
ATOM      8  C   UNL     1       7.567   4.898  12.431  0.00  0.00    +0.000 A 
ATOM      9  C   UNL     1       6.522   4.029  12.109  0.00  0.00    +0.000 A 
ATOM     10  C   UNL     1       5.722   3.484  13.116  0.00  0.00    +0.000 A 
ATOM     11  C   UNL     1       5.951   3.821  14.450  0.00  0.00    +0.000 A 
ENDBRANCH   4   6
ENDBRANCH   1   4
BRANCH   1  12
ATOM     12  C   UNL     1       4.877   6.264  17.267  0.00  0.00    +0.000 C 
BRANCH  12  13
ATOM     13  C   UNL     1       3.972   6.152  18.497  0.00  0.00    +0.000 C 
BRANCH  13  14
ATOM     14  S   UNL     1       2.354   5.453  18.023  0.00  0.00    +0.000 S 
BRANCH  14  15
ATOM     15  C   UNL     1       2.677   3.758  18.133  0.00  0.00    +0.000 A 
ATOM     16  N   UNL     1       3.361   3.034  17.275  0.00  0.00    +0.000 NA
ATOM     17  N   UNL     1       3.391   1.738  17.751  0.00  0.00    +0.000 NA
ATOM     18  C   UNL     1       2.727   1.713  18.886  0.00  0.00    +0.000 A 
ATOM     19  N   UNL     1       2.253   2.961  19.162  0.00  0.00    +0.000 N 
BRANCH  19  20
ATOM     20  C   UNL     1       1.467   3.352  20.314  0.00  0.00    +0.000 C 
ATOM     21  C   UNL     1       1.562   2.630  21.647  0.00  0.00    +0.000 C 
ATOM     22  C   UNL     1       2.096   4.014  21.526  0.00  0.00    +0.000 C 
ENDBRANCH  19  20
ENDBRANCH  14  15
ENDBRANCH  13  14
ENDBRANCH  12  13
ENDBRANCH   1  12
TORSDOF 7
ENDMDL
MODEL 2
REMARK VINA RESULT:      -6.7      2.545      7.337
REMARK  Name = 
REMARK  7 active torsions:
REMARK  status: ('A' for Active; 'I' for Inactive)
REMARK    1  A    between atoms: S_2  and  N_4
REMARK    2  A    between atoms: S_2  and  C_16
REMARK    3  A    between atoms: N_4  and  C_5
REMARK    4  A    between atoms: C_5  and  C_6
REMARK    5  A    between atoms: C_6  and  S_7
REMARK    6  A    between atoms: S_7  and  C_8
REMARK    7  A    between atoms: N_12  and  C_13
REMARK                            x       y       z     vdW  Elec       q    Type
REMARK                         _______ _______ _______ _____ _____    ______ ____
ROOT
ATOM      1  N   UNL     1       4.652   3.102  17.664  0.00  0.00    +0.000 NA
ATOM      2  H   UNL     1       4.361   2.151  17.435  0.00  0.00    +0.000 HD
ENDROOT
BRANCH   1   4
ATOM      3  O   UNL     1       5.130   1.982  19.878  0.00  0.00    +0.000 OA
ATOM      4  S   UNL     1       4.880   3.295  19.328  0.00  0.00    +0.000 S 
ATOM      5  O   UNL     1       5.780   4.404  19.528  0.00  0.00    +0.000 OA
BRANCH   4   6
ATOM      6  C   UNL     1       3.253   3.784  19.855  0.00  0.00    +0.000 A 
ATOM      7  C   UNL     1       2.236   2.825  19.889  0.00  0.00    +0.000 A 
ATOM      8  C   UNL     1       0.941   3.211  20.232  0.00  0.00    +0.000 A 
ATOM      9  C   UNL     1       0.673   4.544  20.551  0.00  0.00    +0.000 A 
ATOM     10  C   UNL     1       1.700   5.492  20.546  0.00  0.00    +0.000 A 
ATOM     11  C   UNL     1       2.998   5.114  20.200  0.00  0.00    +0.000 A 
ENDBRANCH   4   6
ENDBRANCH   1   4
BRANCH   1  12
ATOM     12  C   UNL     1       3.923   4.172  16.953  0.00  0.00    +0.000 C 
BRANCH  12  13
ATOM     13  C   UNL     1       4.722   4.670  15.746  0.00  0.00    +0.000 C 
BRANCH  13  14
ATOM     14  S   UNL     1       6.424   4.013  15.807  0.00  0.00    +0.000 S 
BRANCH  14  15
ATOM     15  C   UNL     1       7.064   4.604  14.315  0.00  0.00    +0.000 A 
ATOM     16  N   UNL     1       7.987   5.530  14.170  0.00  0.00    +0.000 NA
ATOM     17  N   UNL     1       8.215   5.686  12.817  0.00  0.00    +0.000 NA
ATOM     18  C   UNL     1       7.427   4.849  12.179  0.00  0.00    +0.000 A 
ATOM     19  N   UNL     1       6.679   4.152  13.081  0.00  0.00    +0.000 N 
BRANCH  19  20
ATOM     20  C   UNL     1       5.686   3.141  12.783  0.00  0.00    +0.000 C 
ATOM     21  C   UNL     1       4.662   3.309  11.674  0.00  0.00    +0.000 C 
ATOM     22  C   UNL     1       5.749   2.304  11.517  0.00  0.00    +0.000 C 
ENDBRANCH  19  20
ENDBRANCH  14  15
ENDBRANCH  13  14
ENDBRANCH  12  13
ENDBRANCH   1  12
TORSDOF 7
ENDMDL
MODEL 3
REMARK VINA RESULT:      -6.6      3.231      7.308
REMARK  Name = 
REMARK  7 active torsions:
REMARK  status: ('A' for Active; 'I' for Inactive)
REMARK    1  A    between atoms: S_2  and  N_4
REMARK    2  A    between atoms: S_2  and  C_16
REMARK    3  A    between atoms: N_4  and  C_5
REMARK    4  A    between atoms: C_5  and  C_6
REMARK    5  A    between atoms: C_6  and  S_7
REMARK    6  A    between atoms: S_7  and  C_8
REMARK    7  A    between atoms: N_12  and  C_13
REMARK                            x       y       z     vdW  Elec       q    Type
REMARK                         _______ _______ _______ _____ _____    ______ ____
ROOT
ATOM      1  N   UNL     1       4.480   5.747  18.631  0.00  0.00    +0.000 NA
ATOM      2  H   UNL     1       4.812   6.664  18.931  0.00  0.00    +0.000 HD
ENDROOT
BRANCH   1   4
ATOM      3  O   UNL     1       2.219   4.847  17.951  0.00  0.00    +0.000 OA
ATOM      4  S   UNL     1       2.864   5.503  19.065  0.00  0.00    +0.000 S 
ATOM      5  O   UNL     1       2.839   4.964  20.403  0.00  0.00    +0.000 OA
BRANCH   4   6
ATOM      6  C   UNL     1       2.253   7.172  19.117  0.00  0.00    +0.000 A 
ATOM      7  C   UNL     1       1.736   7.666  20.320  0.00  0.00    +0.000 A 
ATOM      8  C   UNL     1       1.188   8.947  20.354  0.00  0.00    +0.000 A 
ATOM      9  C   UNL     1       1.174   9.731  19.199  0.00  0.00    +0.000 A 
ATOM     10  C   UNL     1       1.721   9.244  18.009  0.00  0.00    +0.000 A 
ATOM     11  C   UNL     1       2.267   7.962  17.964  0.00  0.00    +0.000 A 
ENDBRANCH   4   6
ENDBRANCH   1   4
BRANCH   1  12
ATOM     12  C   UNL     1       5.418   4.630  18.863  0.00  0.00    +0.000 C 
BRANCH  12  13
ATOM     13  C   UNL     1       6.293   4.386  17.631  0.00  0.00    +0.000 C 
BRANCH  13  14
ATOM     14  S   UNL     1       5.277   4.452  16.117  0.00  0.00    +0.000 S 
BRANCH  14  15
ATOM     15  C   UNL     1       6.477   4.806  14.924  0.00  0.00    +0.000 A 
ATOM     16  N   UNL     1       7.493   5.629  15.056  0.00  0.00    +0.000 NA
ATOM     17  N   UNL     1       8.209   5.604  13.875  0.00  0.00    +0.000 NA
ATOM     18  C   UNL     1       7.608   4.765  13.061  0.00  0.00    +0.000 A 
ATOM     19  N   UNL     1       6.509   4.244  13.676  0.00  0.00    +0.000 N 
BRANCH  19  20
ATOM     20  C   UNL     1       5.575   3.289  13.115  0.00  0.00    +0.000 C 
ATOM     21  C   UNL     1       4.687   3.622  11.928  0.00  0.00    +0.000 C 
ATOM     22  C   UNL     1       5.802   2.650  11.756  0.00  0.00    +0.000 C 
ENDBRANCH  19  20
ENDBRANCH  14  15
ENDBRANCH  13  14
ENDBRANCH  12  13
ENDBRANCH   1  12
TORSDOF 7
ENDMDL
MODEL 4
REMARK VINA RESULT:      -6.5      2.811      7.069
REMARK  Name = 
REMARK  7 active torsions:
REMARK  status: ('A' for Active; 'I' for Inactive)
REMARK    1  A    between atoms: S_2  and  N_4
REMARK    2  A    between atoms: S_2  and  C_16
REMARK    3  A    between atoms: N_4  and  C_5
REMARK    4  A    between atoms: C_5  and  C_6
REMARK    5  A    between atoms: C_6  and  S_7
REMARK    6  A    between atoms: S_7  and  C_8
REMARK    7  A    between atoms: N_12  and  C_13
REMARK                            x       y       z     vdW  Elec       q    Type
REMARK                         _______ _______ _______ _____ _____    ______ ____
ROOT
ATOM      1  N   UNL     1       4.022   6.522  17.883  0.00  0.00    +0.000 NA
ATOM      2  H   UNL     1       4.486   7.362  17.534  0.00  0.00    +0.000 HD
ENDROOT
BRANCH   1   4
ATOM      3  O   UNL     1       2.851   7.536  19.879  0.00  0.00    +0.000 OA
ATOM      4  S   UNL     1       2.547   6.893  18.621  0.00  0.00    +0.000 S 
ATOM      5  O   UNL     1       1.692   7.498  17.628  0.00  0.00    +0.000 OA
BRANCH   4   6
ATOM      6  C   UNL     1       1.919   5.273  18.997  0.00  0.00    +0.000 A 
ATOM      7  C   UNL     1       1.682   4.932  20.333  0.00  0.00    +0.000 A 
ATOM      8  C   UNL     1       1.258   3.641  20.646  0.00  0.00    +0.000 A 
ATOM      9  C   UNL     1       1.061   2.707  19.627  0.00  0.00    +0.000 A 
ATOM     10  C   UNL     1       1.269   3.063  18.292  0.00  0.00    +0.000 A 
ATOM     11  C   UNL     1       1.697   4.350  17.971  0.00  0.00    +0.000 A 
ENDBRANCH   4   6
ENDBRANCH   1   4
BRANCH   1  12
ATOM     12  C   UNL     1       4.901   5.558  18.577  0.00  0.00    +0.000 C 
BRANCH  12  13
ATOM     13  C   UNL     1       5.968   5.009  17.626  0.00  0.00    +0.000 C 
BRANCH  13  14
ATOM     14  S   UNL     1       5.189   4.407  16.090  0.00  0.00    +0.000 S 
BRANCH  14  15
ATOM     15  C   UNL     1       6.409   4.785  14.926  0.00  0.00    +0.000 A 
ATOM     16  N   UNL     1       7.408   5.627  15.082  0.00  0.00    +0.000 NA
ATOM     17  N   UNL     1       8.151   5.616  13.918  0.00  0.00    +0.000 NA
ATOM     18  C   UNL     1       7.585   4.767  13.090  0.00  0.00    +0.000 A 
ATOM     19  N   UNL     1       6.481   4.225  13.678  0.00  0.00    +0.000 N 
BRANCH  19  20
ATOM     20  C   UNL     1       5.578   3.254  13.095  0.00  0.00    +0.000 C 
ATOM     21  C   UNL     1       4.664   3.592  11.930  0.00  0.00    +0.000 C 
ATOM     22  C   UNL     1       5.814   2.671  11.713  0.00  0.00    +0.000 C 
ENDBRANCH  19  20
ENDBRANCH  14  15
ENDBRANCH  13  14
ENDBRANCH  12  13
ENDBRANCH   1  12
TORSDOF 7
ENDMDL
MODEL 5
REMARK VINA RESULT:      -6.5      3.182      7.291
REMARK  Name = 
REMARK  7 active torsions:
REMARK  status: ('A' for Active; 'I' for Inactive)
REMARK    1  A    between atoms: S_2  and  N_4
REMARK    2  A    between atoms: S_2  and  C_16
REMARK    3  A    between atoms: N_4  and  C_5
REMARK    4  A    between atoms: C_5  and  C_6
REMARK    5  A    between atoms: C_6  and  S_7
REMARK    6  A    between atoms: S_7  and  C_8
REMARK    7  A    between atoms: N_12  and  C_13
REMARK                            x       y       z     vdW  Elec       q    Type
REMARK                         _______ _______ _______ _____ _____    ______ ____
ROOT
ATOM      1  N   UNL     1       4.556   5.681  19.252  0.00  0.00    +0.000 NA
ATOM      2  H   UNL     1       5.046   5.051  19.888  0.00  0.00    +0.000 HD
ENDROOT
BRANCH   1   4
ATOM      3  O   UNL     1       2.609   4.809  17.898  0.00  0.00    +0.000 OA
ATOM      4  S   UNL     1       2.899   5.349  19.206  0.00  0.00    +0.000 S 
ATOM      5  O   UNL     1       2.550   4.660  20.425  0.00  0.00    +0.000 OA
BRANCH   4   6
ATOM      6  C   UNL     1       2.206   6.986  19.265  0.00  0.00    +0.000 A 
ATOM      7  C   UNL     1       2.210   7.764  18.102  0.00  0.00    +0.000 A 
ATOM      8  C   UNL     1       1.736   9.074  18.153  0.00  0.00    +0.000 A 
ATOM      9  C   UNL     1       1.249   9.592  19.355  0.00  0.00    +0.000 A 
ATOM     10  C   UNL     1       1.219   8.800  20.505  0.00  0.00    +0.000 A 
ATOM     11  C   UNL     1       1.695   7.490  20.464  0.00  0.00    +0.000 A 
ENDBRANCH   4   6
ENDBRANCH   1   4
BRANCH   1  12
ATOM     12  C   UNL     1       5.233   5.925  17.961  0.00  0.00    +0.000 C 
BRANCH  12  13
ATOM     13  C   UNL     1       6.143   4.751  17.592  0.00  0.00    +0.000 C 
BRANCH  13  14
ATOM     14  S   UNL     1       5.490   3.889  16.122  0.00  0.00    +0.000 S 
BRANCH  14  15
ATOM     15  C   UNL     1       6.535   4.497  14.886  0.00  0.00    +0.000 A 
ATOM     16  N   UNL     1       7.490   5.388  15.036  0.00  0.00    +0.000 NA
ATOM     17  N   UNL     1       8.087   5.575  13.804  0.00  0.00    +0.000 NA
ATOM     18  C   UNL     1       7.478   4.790  12.943  0.00  0.00    +0.000 A 
ATOM     19  N   UNL     1       6.490   4.098  13.577  0.00  0.00    +0.000 N 
BRANCH  19  20
ATOM     20  C   UNL     1       5.586   3.137  12.979  0.00  0.00    +0.000 C 
ATOM     21  C   UNL     1       4.690   3.487  11.804  0.00  0.00    +0.000 C 
ATOM     22  C   UNL     1       5.834   2.556  11.598  0.00  0.00    +0.000 C 
ENDBRANCH  19  20
ENDBRANCH  14  15
ENDBRANCH  13  14
ENDBRANCH  12  13
ENDBRANCH   1  12
TORSDOF 7
ENDMDL
MODEL 6
REMARK VINA RESULT:      -6.4      5.767      8.450
REMARK  Name = 
REMARK  7 active torsions:
REMARK  status: ('A' for Active; 'I' for Inactive)
REMARK    1  A    between atoms: S_2  and  N_4
REMARK    2  A    between atoms: S_2  and  C_16
REMARK    3  A    between atoms: N_4  and  C_5
REMARK    4  A    between atoms: C_5  and  C_6
REMARK    5  A    between atoms: C_6  and  S_7
REMARK    6  A    between atoms: S_7  and  C_8
REMARK    7  A    between atoms: N_12  and  C_13
REMARK                            x       y       z     vdW  Elec       q    Type
REMARK                         _______ _______ _______ _____ _____    ______ ____
ROOT
ATOM      1  N   UNL     1       6.889   7.340  16.910  0.00  0.00    +0.000 NA
ATOM      2  H   UNL     1       5.959   7.727  17.075  0.00  0.00    +0.000 HD
ENDROOT
BRANCH   1   4
ATOM      3  O   UNL     1       6.926   5.557  15.120  0.00  0.00    +0.000 OA
ATOM      4  S   UNL     1       6.816   5.689  16.555  0.00  0.00    +0.000 S 
ATOM      5  O   UNL     1       7.695   4.998  17.467  0.00  0.00    +0.000 OA
BRANCH   4   6
ATOM      6  C   UNL     1       5.135   5.305  16.990  0.00  0.00    +0.000 A 
ATOM      7  C   UNL     1       4.357   6.286  17.614  0.00  0.00    +0.000 A 
ATOM      8  C   UNL     1       3.062   5.974  18.025  0.00  0.00    +0.000 A 
ATOM      9  C   UNL     1       2.548   4.695  17.799  0.00  0.00    +0.000 A 
ATOM     10  C   UNL     1       3.319   3.729  17.147  0.00  0.00    +0.000 A 
ATOM     11  C   UNL     1       4.617   4.032  16.737  0.00  0.00    +0.000 A 
ENDBRANCH   4   6
ENDBRANCH   1   4
BRANCH   1  12
ATOM     12  C   UNL     1       7.933   7.782  17.858  0.00  0.00    +0.000 C 
BRANCH  12  13
ATOM     13  C   UNL     1       8.137   9.297  17.779  0.00  0.00    +0.000 C 
BRANCH  13  14
ATOM     14  S   UNL     1       9.097   9.876  19.218  0.00  0.00    +0.000 S 
BRANCH  14  15
ATOM     15  C   UNL     1       9.793  11.329  18.593  0.00  0.00    +0.000 A 
ATOM     16  N   UNL     1      10.492  11.449  17.486  0.00  0.00    +0.000 NA
ATOM     17  N   UNL     1      10.842  12.779  17.353  0.00  0.00    +0.000 NA
ATOM     18  C   UNL     1      10.343  13.428  18.382  0.00  0.00    +0.000 A 
ATOM     19  N   UNL     1       9.681  12.555  19.193  0.00  0.00    +0.000 N 
BRANCH  19  20
ATOM     20  C   UNL     1       9.000  12.871  20.431  0.00  0.00    +0.000 C 
ATOM     21  C   UNL     1       9.601  12.564  21.791  0.00  0.00    +0.000 C 
ATOM     22  C   UNL     1       9.480  13.981  21.349  0.00  0.00    +0.000 C 
ENDBRANCH  19  20
ENDBRANCH  14  15
ENDBRANCH  13  14
ENDBRANCH  12  13
ENDBRANCH   1  12
TORSDOF 7
ENDMDL
MODEL 7
REMARK VINA RESULT:      -6.4      1.651      2.784
REMARK  Name = 
REMARK  7 active torsions:
REMARK  status: ('A' for Active; 'I' for Inactive)
REMARK    1  A    between atoms: S_2  and  N_4
REMARK    2  A    between atoms: S_2  and  C_16
REMARK    3  A    between atoms: N_4  and  C_5
REMARK    4  A    between atoms: C_5  and  C_6
REMARK    5  A    between atoms: C_6  and  S_7
REMARK    6  A    between atoms: S_7  and  C_8
REMARK    7  A    between atoms: N_12  and  C_13
REMARK                            x       y       z     vdW  Elec       q    Type
REMARK                         _______ _______ _______ _____ _____    ______ ____
ROOT
ATOM      1  N   UNL     1       6.385   4.288  16.916  0.00  0.00    +0.000 NA
ATOM      2  H   UNL     1       6.878   3.509  16.479  0.00  0.00    +0.000 HD
ENDROOT
BRANCH   1   4
ATOM      3  O   UNL     1       5.056   6.243  16.024  0.00  0.00    +0.000 OA
ATOM      4  S   UNL     1       6.370   5.650  15.916  0.00  0.00    +0.000 S 
ATOM      5  O   UNL     1       7.580   6.396  16.162  0.00  0.00    +0.000 OA
BRANCH   4   6
ATOM      6  C   UNL     1       6.480   4.909  14.303  0.00  0.00    +0.000 A 
ATOM      7  C   UNL     1       5.513   3.974  13.921  0.00  0.00    +0.000 A 
ATOM      8  C   UNL     1       5.629   3.333  12.689  0.00  0.00    +0.000 A 
ATOM      9  C   UNL     1       6.697   3.638  11.842  0.00  0.00    +0.000 A 
ATOM     10  C   UNL     1       7.643   4.596  12.216  0.00  0.00    +0.000 A 
ATOM     11  C   UNL     1       7.536   5.239  13.449  0.00  0.00    +0.000 A 
ENDBRANCH   4   6
ENDBRANCH   1   4
BRANCH   1  12
ATOM     12  C   UNL     1       6.688   4.503  18.346  0.00  0.00    +0.000 C 
BRANCH  12  13
ATOM     13  C   UNL     1       5.434   4.322  19.204  0.00  0.00    +0.000 C 
BRANCH  13  14
ATOM     14  S   UNL     1       4.115   3.525  18.227  0.00  0.00    +0.000 S 
BRANCH  14  15
ATOM     15  C   UNL     1       2.752   3.738  19.268  0.00  0.00    +0.000 A 
ATOM     16  N   UNL     1       1.982   2.790  19.755  0.00  0.00    +0.000 NA
ATOM     17  N   UNL     1       1.025   3.393  20.549  0.00  0.00    +0.000 NA
ATOM     18  C   UNL     1       1.244   4.689  20.524  0.00  0.00    +0.000 A 
ATOM     19  N   UNL     1       2.316   4.954  19.725  0.00  0.00    +0.000 N 
BRANCH  19  20
ATOM     20  C   UNL     1       2.874   6.257  19.429  0.00  0.00    +0.000 C 
ATOM     21  C   UNL     1       2.390   7.103  18.264  0.00  0.00    +0.000 C 
ATOM     22  C   UNL     1       2.086   7.535  19.656  0.00  0.00    +0.000 C 
ENDBRANCH  19  20
ENDBRANCH  14  15
ENDBRANCH  13  14
ENDBRANCH  12  13
ENDBRANCH   1  12
TORSDOF 7
ENDMDL
MODEL 8
REMARK VINA RESULT:      -6.4      2.743      7.034
REMARK  Name = 
REMARK  7 active torsions:
REMARK  status: ('A' for Active; 'I' for Inactive)
REMARK    1  A    between atoms: S_2  and  N_4
REMARK    2  A    between atoms: S_2  and  C_16
REMARK    3  A    between atoms: N_4  and  C_5
REMARK    4  A    between atoms: C_5  and  C_6
REMARK    5  A    between atoms: C_6  and  S_7
REMARK    6  A    between atoms: S_7  and  C_8
REMARK    7  A    between atoms: N_12  and  C_13
REMARK                            x       y       z     vdW  Elec       q    Type
REMARK                         _______ _______ _______ _____ _____    ______ ____
ROOT
ATOM      1  N   UNL     1       4.270   6.189  18.489  0.00  0.00    +0.000 NA
ATOM      2  H   UNL     1       4.818   7.033  18.658  0.00  0.00    +0.000 HD
ENDROOT
BRANCH   1   4
ATOM      3  O   UNL     1       2.560   7.324  19.964  0.00  0.00    +0.000 OA
ATOM      4  S   UNL     1       2.631   6.441  18.822  0.00  0.00    +0.000 S 
ATOM      5  O   UNL     1       1.963   6.729  17.576  0.00  0.00    +0.000 OA
BRANCH   4   6
ATOM      6  C   UNL     1       2.128   4.827  19.374  0.00  0.00    +0.000 A 
ATOM      7  C   UNL     1       1.707   3.889  18.425  0.00  0.00    +0.000 A 
ATOM      8  C   UNL     1       1.242   2.646  18.852  0.00  0.00    +0.000 A 
ATOM      9  C   UNL     1       1.214   2.342  20.214  0.00  0.00    +0.000 A 
ATOM     10  C   UNL     1       1.666   3.272  21.154  0.00  0.00    +0.000 A 
ATOM     11  C   UNL     1       2.128   4.519  20.737  0.00  0.00    +0.000 A 
ENDBRANCH   4   6
ENDBRANCH   1   4
BRANCH   1  12
ATOM     12  C   UNL     1       4.875   4.935  18.983  0.00  0.00    +0.000 C 
BRANCH  12  13
ATOM     13  C   UNL     1       5.815   4.333  17.936  0.00  0.00    +0.000 C 
BRANCH  13  14
ATOM     14  S   UNL     1       4.946   4.156  16.341  0.00  0.00    +0.000 S 
BRANCH  14  15
ATOM     15  C   UNL     1       6.181   4.640  15.232  0.00  0.00    +0.000 A 
ATOM     16  N   UNL     1       7.203   5.426  15.492  0.00  0.00    +0.000 NA
ATOM     17  N   UNL     1       7.949   5.539  14.336  0.00  0.00    +0.000 NA
ATOM     18  C   UNL     1       7.361   4.817  13.408  0.00  0.00    +0.000 A 
ATOM     19  N   UNL     1       6.240   4.239  13.925  0.00  0.00    +0.000 N 
BRANCH  19  20
ATOM     20  C   UNL     1       5.311   3.375  13.225  0.00  0.00    +0.000 C 
ATOM     21  C   UNL     1       4.731   3.735  11.869  0.00  0.00    +0.000 C 
ATOM     22  C   UNL     1       5.710   2.618  11.971  0.00  0.00    +0.000 C 
ENDBRANCH  19  20
ENDBRANCH  14  15
ENDBRANCH  13  14
ENDBRANCH  12  13
ENDBRANCH   1  12
TORSDOF 7
ENDMDL
MODEL 9
REMARK VINA RESULT:      -6.4      2.639      7.170
REMARK  Name = 
REMARK  7 active torsions:
REMARK  status: ('A' for Active; 'I' for Inactive)
REMARK    1  A    between atoms: S_2  and  N_4
REMARK    2  A    between atoms: S_2  and  C_16
REMARK    3  A    between atoms: N_4  and  C_5
REMARK    4  A    between atoms: C_5  and  C_6
REMARK    5  A    between atoms: C_6  and  S_7
REMARK    6  A    between atoms: S_7  and  C_8
REMARK    7  A    between atoms: N_12  and  C_13
REMARK                            x       y       z     vdW  Elec       q    Type
REMARK                         _______ _______ _______ _____ _____    ______ ____
ROOT
ATOM      1  N   UNL     1       5.730   4.002  19.326  0.00  0.00    +0.000 NA
ATOM      2  H   UNL     1       6.326   4.039  20.154  0.00  0.00    +0.000 HD
ENDROOT
BRANCH   1   4
ATOM      3  O   UNL     1       4.457   2.220  18.065  0.00  0.00    +0.000 OA
ATOM      4  S   UNL     1       4.635   2.717  19.411  0.00  0.00    +0.000 S 
ATOM      5  O   UNL     1       5.033   1.865  20.505  0.00  0.00    +0.000 OA
BRANCH   4   6
ATOM      6  C   UNL     1       3.135   3.556  19.864  0.00  0.00    +0.000 A 
ATOM      7  C   UNL     1       1.953   2.815  19.975  0.00  0.00    +0.000 A 
ATOM      8  C   UNL     1       0.757   3.473  20.259  0.00  0.00    +0.000 A 
ATOM      9  C   UNL     1       0.750   4.857  20.445  0.00  0.00    +0.000 A 
ATOM     10  C   UNL     1       1.939   5.586  20.364  0.00  0.00    +0.000 A 
ATOM     11  C   UNL     1       3.139   4.937  20.076  0.00  0.00    +0.000 A 
ENDBRANCH   4   6
ENDBRANCH   1   4
BRANCH   1  12
ATOM     12  C   UNL     1       6.424   4.216  18.039  0.00  0.00    +0.000 C 
BRANCH  12  13
ATOM     13  C   UNL     1       5.748   5.327  17.232  0.00  0.00    +0.000 C 
BRANCH  13  14
ATOM     14  S   UNL     1       4.962   4.628  15.740  0.00  0.00    +0.000 S 
BRANCH  14  15
ATOM     15  C   UNL     1       6.231   4.804  14.580  0.00  0.00    +0.000 A 
ATOM     16  N   UNL     1       7.307   5.550  14.703  0.00  0.00    +0.000 NA
ATOM     17  N   UNL     1       8.063   5.388  13.558  0.00  0.00    +0.000 NA
ATOM     18  C   UNL     1       7.426   4.545  12.775  0.00  0.00    +0.000 A 
ATOM     19  N   UNL     1       6.265   4.157  13.374  0.00  0.00    +0.000 N 
BRANCH  19  20
ATOM     20  C   UNL     1       5.277   3.244  12.836  0.00  0.00    +0.000 C 
ATOM     21  C   UNL     1       4.548   3.513  11.531  0.00  0.00    +0.000 C 
ATOM     22  C   UNL     1       5.548   2.412  11.595  0.00  0.00    +0.000 C 
ENDBRANCH  19  20
ENDBRANCH  14  15
ENDBRANCH  13  14
ENDBRANCH  12  13
ENDBRANCH   1  12
TORSDOF 7
ENDMDL
