MODEL 1
REMARK VINA RESULT:      -8.9      0.000      0.000
REMARK  Name = 
REMARK  7 active torsions:
REMARK  status: ('A' for Active; 'I' for Inactive)
REMARK    1  A    between atoms: C_1  and  N_2
REMARK    2  A    between atoms: C_3  and  C_5
REMARK    3  A    between atoms: C_12  and  C_13
REMARK    4  A    between atoms: C_13  and  N_14
REMARK    5  A    between atoms: C_15  and  C_17
REMARK    6  A    between atoms: C_23  and  C_24
REMARK    7  A    between atoms: C_29  and  C_30
REMARK                            x       y       z     vdW  Elec       q    Type
REMARK                         _______ _______ _______ _____ _____    ______ ____
ROOT
ATOM      1  C   UNL     1       5.509   4.583  16.511  0.00  0.00    +0.000 A 
ATOM      2  S   UNL     1       4.174   3.537  16.755  0.00  0.00    +0.000 S 
ATOM      3  C   UNL     1       3.724   4.384  18.191  0.00  0.00    +0.000 A 
ATOM      4  N   UNL     1       2.670   4.011  18.961  0.00  0.00    +0.000 N 
ATOM      5  C   UNL     1       1.919   2.775  18.766  0.00  0.00    +0.000 C 
ATOM      6  C   UNL     1       1.076   2.828  20.043  0.00  0.00    +0.000 C 
ATOM      7  C   UNL     1       2.106   3.170  21.161  0.00  0.00    +0.000 C 
ATOM      8  C   UNL     1       2.249   4.486  20.280  0.00  0.00    +0.000 C 
ATOM      9  C   UNL     1       0.668   4.334  20.192  0.00  0.00    +0.000 C 
ATOM     10  N   UNL     1       4.492   5.422  18.434  0.00  0.00    +0.000 NA
ATOM     11  C   UNL     1       5.523   5.567  17.486  0.00  0.00    +0.000 A 
ENDROOT
BRANCH   1  14
ATOM     12  C   UNL     1       6.676   3.908  13.029  0.00  0.00    +0.000 C 
ATOM     13  N   UNL     1       5.868   4.142  14.197  0.00  0.00    +0.000 N 
ATOM     14  C   UNL     1       6.444   4.347  15.431  0.00  0.00    +0.000 C 
ATOM     15  O   UNL     1       7.659   4.331  15.588  0.00  0.00    +0.000 OA
ATOM     16  H   UNL     1       4.861   4.144  14.112  0.00  0.00    +0.000 HD
ENDBRANCH   1  14
BRANCH  11  17
ATOM     17  C   UNL     1       6.471   6.728  17.619  0.00  0.00    +0.000 C 
ATOM     18  F   UNL     1       7.297   6.912  16.565  0.00  0.00    +0.000 F 
ATOM     19  F   UNL     1       5.795   7.899  17.768  0.00  0.00    +0.000 F 
ATOM     20  F   UNL     1       7.261   6.596  18.718  0.00  0.00    +0.000 F 
ENDBRANCH  11  17
BRANCH   8  21
ATOM     21  C   UNL     1       2.813   5.777  20.821  0.00  0.00    +0.000 C 
BRANCH  21  22
ATOM     22  N   UNL     1       2.278   6.867  20.037  0.00  0.00    +0.000 N 
ATOM     23  C   UNL     1       1.636   7.949  20.599  0.00  0.00    +0.000 C 
ATOM     24  O   UNL     1       1.456   8.071  21.804  0.00  0.00    +0.000 OA
ATOM     25  H   UNL     1       2.617   6.939  19.084  0.00  0.00    +0.000 HD
BRANCH  23  26
ATOM     26  C   UNL     1       1.229   8.958  19.632  0.00  0.00    +0.000 A 
ATOM     27  C   UNL     1       1.643   9.047  18.309  0.00  0.00    +0.000 A 
ATOM     28  N   UNL     1       0.999  10.107  17.725  0.00  0.00    +0.000 N 
ATOM     29  C   UNL     1       0.195  10.722  18.641  0.00  0.00    +0.000 A 
ATOM     30  N   UNL     1      -0.557  11.807  18.383  0.00  0.00    +0.000 NA
ATOM     31  C   UNL     1      -1.240  12.243  19.468  0.00  0.00    +0.000 A 
ATOM     32  C   UNL     1      -1.209  11.674  20.741  0.00  0.00    +0.000 A 
ATOM     33  C   UNL     1      -1.976  12.260  21.884  0.00  0.00    +0.000 C 
ATOM     34  C   UNL     1      -0.418  10.536  20.937  0.00  0.00    +0.000 A 
ATOM     35  C   UNL     1       0.314  10.036  19.846  0.00  0.00    +0.000 A 
ATOM     36  H   UNL     1       1.091  10.413  16.768  0.00  0.00    +0.000 HD
ENDBRANCH  23  26
ENDBRANCH  21  22
ENDBRANCH   8  21
TORSDOF 5
ENDMDL
MODEL 2
REMARK VINA RESULT:      -8.5      4.769      9.830
REMARK  Name = 
REMARK  7 active torsions:
REMARK  status: ('A' for Active; 'I' for Inactive)
REMARK    1  A    between atoms: C_1  and  N_2
REMARK    2  A    between atoms: C_3  and  C_5
REMARK    3  A    between atoms: C_12  and  C_13
REMARK    4  A    between atoms: C_13  and  N_14
REMARK    5  A    between atoms: C_15  and  C_17
REMARK    6  A    between atoms: C_23  and  C_24
REMARK    7  A    between atoms: C_29  and  C_30
REMARK                            x       y       z     vdW  Elec       q    Type
REMARK                         _______ _______ _______ _____ _____    ______ ____
ROOT
ATOM      1  C   UNL     1      -4.391  11.832  18.116  0.00  0.00    +0.000 A 
ATOM      2  S   UNL     1      -3.772  12.392  19.612  0.00  0.00    +0.000 S 
ATOM      3  C   UNL     1      -2.234  11.678  19.286  0.00  0.00    +0.000 A 
ATOM      4  N   UNL     1      -1.202  11.730  20.166  0.00  0.00    +0.000 N 
ATOM      5  C   UNL     1      -1.324  12.229  21.532  0.00  0.00    +0.000 C 
ATOM      6  C   UNL     1       0.056  11.805  22.043  0.00  0.00    +0.000 C 
ATOM      7  C   UNL     1       0.200  10.330  21.559  0.00  0.00    +0.000 C 
ATOM      8  C   UNL     1       0.093  11.048  20.144  0.00  0.00    +0.000 C 
ATOM      9  C   UNL     1       1.035  12.112  20.858  0.00  0.00    +0.000 C 
ATOM     10  N   UNL     1      -2.174  11.110  18.102  0.00  0.00    +0.000 NA
ATOM     11  C   UNL     1      -3.394  11.185  17.403  0.00  0.00    +0.000 A 
ENDROOT
BRANCH   1  14
ATOM     12  C   UNL     1      -7.436  13.607  16.882  0.00  0.00    +0.000 C 
ATOM     13  N   UNL     1      -6.092  13.275  17.277  0.00  0.00    +0.000 N 
ATOM     14  C   UNL     1      -5.785  12.027  17.774  0.00  0.00    +0.000 C 
ATOM     15  O   UNL     1      -6.637  11.157  17.908  0.00  0.00    +0.000 OA
ATOM     16  H   UNL     1      -5.365  13.971  17.199  0.00  0.00    +0.000 HD
ENDBRANCH   1  14
BRANCH  11  17
ATOM     17  C   UNL     1      -3.474  10.599  16.020  0.00  0.00    +0.000 C 
ATOM     18  F   UNL     1      -3.241   9.269  15.951  0.00  0.00    +0.000 F 
ATOM     19  F   UNL     1      -4.709  10.786  15.479  0.00  0.00    +0.000 F 
ATOM     20  F   UNL     1      -2.589  11.197  15.179  0.00  0.00    +0.000 F 
ENDBRANCH  11  17
BRANCH   8  21
ATOM     21  C   UNL     1       0.578  10.412  18.864  0.00  0.00    +0.000 C 
BRANCH  21  22
ATOM     22  N   UNL     1       1.163   9.132  19.189  0.00  0.00    +0.000 N 
ATOM     23  C   UNL     1       2.037   8.474  18.350  0.00  0.00    +0.000 C 
ATOM     24  O   UNL     1       2.380   8.913  17.260  0.00  0.00    +0.000 OA
ATOM     25  H   UNL     1       1.115   8.854  20.163  0.00  0.00    +0.000 HD
BRANCH  23  26
ATOM     26  C   UNL     1       2.551   7.227  18.900  0.00  0.00    +0.000 A 
ATOM     27  C   UNL     1       2.223   6.669  20.129  0.00  0.00    +0.000 A 
ATOM     28  N   UNL     1       2.884   5.475  20.251  0.00  0.00    +0.000 N 
ATOM     29  C   UNL     1       3.651   5.254  19.144  0.00  0.00    +0.000 A 
ATOM     30  N   UNL     1       4.436   4.177  18.967  0.00  0.00    +0.000 NA
ATOM     31  C   UNL     1       5.119   4.210  17.798  0.00  0.00    +0.000 A 
ATOM     32  C   UNL     1       5.059   5.222  16.841  0.00  0.00    +0.000 A 
ATOM     33  C   UNL     1       5.887   5.177  15.596  0.00  0.00    +0.000 C 
ATOM     34  C   UNL     1       4.210   6.308  17.081  0.00  0.00    +0.000 A 
ATOM     35  C   UNL     1       3.474   6.328  18.278  0.00  0.00    +0.000 A 
ATOM     36  H   UNL     1       2.835   4.838  21.033  0.00  0.00    +0.000 HD
ENDBRANCH  23  26
ENDBRANCH  21  22
ENDBRANCH   8  21
TORSDOF 5
ENDMDL
MODEL 3
REMARK VINA RESULT:      -8.2      4.623      9.833
REMARK  Name = 
REMARK  7 active torsions:
REMARK  status: ('A' for Active; 'I' for Inactive)
REMARK    1  A    between atoms: C_1  and  N_2
REMARK    2  A    between atoms: C_3  and  C_5
REMARK    3  A    between atoms: C_12  and  C_13
REMARK    4  A    between atoms: C_13  and  N_14
REMARK    5  A    between atoms: C_15  and  C_17
REMARK    6  A    between atoms: C_23  and  C_24
REMARK    7  A    between atoms: C_29  and  C_30
REMARK                            x       y       z     vdW  Elec       q    Type
REMARK                         _______ _______ _______ _____ _____    ______ ____
ROOT
ATOM      1  C   UNL     1      -3.985  11.806  18.969  0.00  0.00    +0.000 A 
ATOM      2  S   UNL     1      -3.323  13.087  19.894  0.00  0.00    +0.000 S 
ATOM      3  C   UNL     1      -1.725  12.686  19.377  0.00  0.00    +0.000 A 
ATOM      4  N   UNL     1      -0.625  13.354  19.811  0.00  0.00    +0.000 N 
ATOM      5  C   UNL     1      -0.649  14.352  20.875  0.00  0.00    +0.000 C 
ATOM      6  C   UNL     1       0.863  14.527  21.043  0.00  0.00    +0.000 C 
ATOM      7  C   UNL     1       1.409  13.069  21.094  0.00  0.00    +0.000 C 
ATOM      8  C   UNL     1       0.795  13.054  19.627  0.00  0.00    +0.000 C 
ATOM      9  C   UNL     1       1.433  14.510  19.583  0.00  0.00    +0.000 C 
ATOM     10  N   UNL     1      -1.700  11.692  18.517  0.00  0.00    +0.000 NA
ATOM     11  C   UNL     1      -2.981  11.169  18.258  0.00  0.00    +0.000 A 
ENDROOT
BRANCH   1  14
ATOM     12  C   UNL     1      -7.301  11.088  20.527  0.00  0.00    +0.000 C 
ATOM     13  N   UNL     1      -5.908  11.376  20.309  0.00  0.00    +0.000 N 
ATOM     14  C   UNL     1      -5.399  11.502  19.035  0.00  0.00    +0.000 C 
ATOM     15  O   UNL     1      -6.103  11.367  18.041  0.00  0.00    +0.000 OA
ATOM     16  H   UNL     1      -5.291  11.476  21.102  0.00  0.00    +0.000 HD
ENDBRANCH   1  14
BRANCH  11  17
ATOM     17  C   UNL     1      -3.116  10.040  17.272  0.00  0.00    +0.000 C 
ATOM     18  F   UNL     1      -1.953   9.609  16.736  0.00  0.00    +0.000 F 
ATOM     19  F   UNL     1      -3.684   8.948  17.853  0.00  0.00    +0.000 F 
ATOM     20  F   UNL     1      -3.922  10.386  16.233  0.00  0.00    +0.000 F 
ENDBRANCH  11  17
BRANCH   8  21
ATOM     21  C   UNL     1       1.216  12.059  18.573  0.00  0.00    +0.000 C 
BRANCH  21  22
ATOM     22  N   UNL     1       1.328  10.761  19.196  0.00  0.00    +0.000 N 
ATOM     23  C   UNL     1       1.733   9.635  18.512  0.00  0.00    +0.000 C 
ATOM     24  O   UNL     1       2.019   9.639  17.321  0.00  0.00    +0.000 OA
ATOM     25  H   UNL     1       1.350  10.753  20.210  0.00  0.00    +0.000 HD
BRANCH  23  26
ATOM     26  C   UNL     1       1.832   8.445  19.346  0.00  0.00    +0.000 A 
ATOM     27  C   UNL     1       1.313   8.289  20.625  0.00  0.00    +0.000 A 
ATOM     28  N   UNL     1       1.580   7.012  21.046  0.00  0.00    +0.000 N 
ATOM     29  C   UNL     1       2.281   6.344  20.083  0.00  0.00    +0.000 A 
ATOM     30  N   UNL     1       2.710   5.075  20.201  0.00  0.00    +0.000 NA
ATOM     31  C   UNL     1       3.408   4.654  19.120  0.00  0.00    +0.000 A 
ATOM     32  C   UNL     1       3.685   5.405  17.978  0.00  0.00    +0.000 A 
ATOM     33  C   UNL     1       4.500   4.853  16.852  0.00  0.00    +0.000 C 
ATOM     34  C   UNL     1       3.194   6.714  17.913  0.00  0.00    +0.000 A 
ATOM     35  C   UNL     1       2.461   7.206  19.007  0.00  0.00    +0.000 A 
ATOM     36  H   UNL     1       1.319   6.604  21.932  0.00  0.00    +0.000 HD
ENDBRANCH  23  26
ENDBRANCH  21  22
ENDBRANCH   8  21
TORSDOF 5
ENDMDL
MODEL 4
REMARK VINA RESULT:      -8.0      2.873      8.238
REMARK  Name = 
REMARK  7 active torsions:
REMARK  status: ('A' for Active; 'I' for Inactive)
REMARK    1  A    between atoms: C_1  and  N_2
REMARK    2  A    between atoms: C_3  and  C_5
REMARK    3  A    between atoms: C_12  and  C_13
REMARK    4  A    between atoms: C_13  and  N_14
REMARK    5  A    between atoms: C_15  and  C_17
REMARK    6  A    between atoms: C_23  and  C_24
REMARK    7  A    between atoms: C_29  and  C_30
REMARK                            x       y       z     vdW  Elec       q    Type
REMARK                         _______ _______ _______ _____ _____    ______ ____
ROOT
ATOM      1  C   UNL     1       1.132   9.244  20.744  0.00  0.00    +0.000 A 
ATOM      2  S   UNL     1       1.611   7.929  21.733  0.00  0.00    +0.000 S 
ATOM      3  C   UNL     1       1.697   6.880  20.363  0.00  0.00    +0.000 A 
ATOM      4  N   UNL     1       2.017   5.565  20.466  0.00  0.00    +0.000 N 
ATOM      5  C   UNL     1       2.151   4.860  21.737  0.00  0.00    +0.000 C 
ATOM      6  C   UNL     1       2.268   3.437  21.184  0.00  0.00    +0.000 C 
ATOM      7  C   UNL     1       1.115   3.342  20.139  0.00  0.00    +0.000 C 
ATOM      8  C   UNL     1       1.970   4.501  19.463  0.00  0.00    +0.000 C 
ATOM      9  C   UNL     1       3.179   3.572  19.916  0.00  0.00    +0.000 C 
ATOM     10  N   UNL     1       1.442   7.498  19.230  0.00  0.00    +0.000 NA
ATOM     11  C   UNL     1       1.119   8.856  19.414  0.00  0.00    +0.000 A 
ENDROOT
BRANCH   1  14
ATOM     12  C   UNL     1      -0.876  11.714  22.694  0.00  0.00    +0.000 C 
ATOM     13  N   UNL     1      -0.404  10.521  22.044  0.00  0.00    +0.000 N 
ATOM     14  C   UNL     1       0.776  10.518  21.332  0.00  0.00    +0.000 C 
ATOM     15  O   UNL     1       1.463  11.526  21.217  0.00  0.00    +0.000 OA
ATOM     16  H   UNL     1      -0.951   9.674  22.100  0.00  0.00    +0.000 HD
ENDBRANCH   1  14
BRANCH  11  17
ATOM     17  C   UNL     1       0.826   9.701  18.204  0.00  0.00    +0.000 C 
ATOM     18  F   UNL     1      -0.422  10.218  18.160  0.00  0.00    +0.000 F 
ATOM     19  F   UNL     1       1.671  10.765  18.134  0.00  0.00    +0.000 F 
ATOM     20  F   UNL     1       0.999   8.994  17.055  0.00  0.00    +0.000 F 
ENDBRANCH  11  17
BRANCH   8  21
ATOM     21  C   UNL     1       1.854   4.859  18.002  0.00  0.00    +0.000 C 
BRANCH  21  22
ATOM     22  N   UNL     1       3.166   5.226  17.521  0.00  0.00    +0.000 N 
ATOM     23  C   UNL     1       4.018   4.329  16.915  0.00  0.00    +0.000 C 
ATOM     24  O   UNL     1       3.742   3.149  16.745  0.00  0.00    +0.000 OA
ATOM     25  H   UNL     1       3.337   6.219  17.408  0.00  0.00    +0.000 HD
BRANCH  23  26
ATOM     26  C   UNL     1       5.266   4.924  16.455  0.00  0.00    +0.000 A 
ATOM     27  C   UNL     1       6.069   5.809  17.163  0.00  0.00    +0.000 A 
ATOM     28  N   UNL     1       7.171   6.097  16.401  0.00  0.00    +0.000 N 
ATOM     29  C   UNL     1       7.092   5.441  15.206  0.00  0.00    +0.000 A 
ATOM     30  N   UNL     1       8.011   5.532  14.229  0.00  0.00    +0.000 NA
ATOM     31  C   UNL     1       7.685   4.809  13.131  0.00  0.00    +0.000 A 
ATOM     32  C   UNL     1       6.537   4.035  12.970  0.00  0.00    +0.000 A 
ATOM     33  C   UNL     1       6.254   3.302  11.697  0.00  0.00    +0.000 C 
ATOM     34  C   UNL     1       5.628   3.971  14.033  0.00  0.00    +0.000 A 
ATOM     35  C   UNL     1       5.914   4.701  15.199  0.00  0.00    +0.000 A 
ATOM     36  H   UNL     1       7.936   6.704  16.655  0.00  0.00    +0.000 HD
ENDBRANCH  23  26
ENDBRANCH  21  22
ENDBRANCH   8  21
TORSDOF 5
ENDMDL
MODEL 5
REMARK VINA RESULT:      -7.9      4.535      9.758
REMARK  Name = 
REMARK  7 active torsions:
REMARK  status: ('A' for Active; 'I' for Inactive)
REMARK    1  A    between atoms: C_1  and  N_2
REMARK    2  A    between atoms: C_3  and  C_5
REMARK    3  A    between atoms: C_12  and  C_13
REMARK    4  A    between atoms: C_13  and  N_14
REMARK    5  A    between atoms: C_15  and  C_17
REMARK    6  A    between atoms: C_23  and  C_24
REMARK    7  A    between atoms: C_29  and  C_30
REMARK                            x       y       z     vdW  Elec       q    Type
REMARK                         _______ _______ _______ _____ _____    ______ ____
ROOT
ATOM      1  C   UNL     1      -3.516  12.238  19.002  0.00  0.00    +0.000 A 
ATOM      2  S   UNL     1      -2.706  13.442  19.913  0.00  0.00    +0.000 S 
ATOM      3  C   UNL     1      -1.169  12.881  19.361  0.00  0.00    +0.000 A 
ATOM      4  N   UNL     1       0.002  13.431  19.771  0.00  0.00    +0.000 N 
ATOM      5  C   UNL     1       0.103  14.424  20.836  0.00  0.00    +0.000 C 
ATOM      6  C   UNL     1       1.629  14.443  20.970  0.00  0.00    +0.000 C 
ATOM      7  C   UNL     1       2.024  12.936  21.009  0.00  0.00    +0.000 C 
ATOM      8  C   UNL     1       1.380  12.989  19.556  0.00  0.00    +0.000 C 
ATOM      9  C   UNL     1       2.163  14.372  19.499  0.00  0.00    +0.000 C 
ATOM     10  N   UNL     1      -1.265  11.892  18.500  0.00  0.00    +0.000 NA
ATOM     11  C   UNL     1      -2.598  11.503  18.268  0.00  0.00    +0.000 A 
ENDROOT
BRANCH   1  14
ATOM     12  C   UNL     1      -7.090  12.346  17.926  0.00  0.00    +0.000 C 
ATOM     13  N   UNL     1      -5.656  12.460  17.978  0.00  0.00    +0.000 N 
ATOM     14  C   UNL     1      -4.951  12.080  19.099  0.00  0.00    +0.000 C 
ATOM     15  O   UNL     1      -5.512  11.640  20.095  0.00  0.00    +0.000 OA
ATOM     16  H   UNL     1      -5.159  12.837  17.183  0.00  0.00    +0.000 HD
ENDBRANCH   1  14
BRANCH  11  17
ATOM     17  C   UNL     1      -2.870  10.397  17.286  0.00  0.00    +0.000 C 
ATOM     18  F   UNL     1      -3.492  10.784  16.149  0.00  0.00    +0.000 F 
ATOM     19  F   UNL     1      -1.713   9.799  16.889  0.00  0.00    +0.000 F 
ATOM     20  F   UNL     1      -3.638   9.422  17.840  0.00  0.00    +0.000 F 
ENDBRANCH  11  17
BRANCH   8  21
ATOM     21  C   UNL     1       1.674  11.959  18.492  0.00  0.00    +0.000 C 
BRANCH  21  22
ATOM     22  N   UNL     1       1.710  10.658  19.120  0.00  0.00    +0.000 N 
ATOM     23  C   UNL     1       1.897   9.491  18.412  0.00  0.00    +0.000 C 
ATOM     24  O   UNL     1       2.036   9.457  17.196  0.00  0.00    +0.000 OA
ATOM     25  H   UNL     1       1.853  10.652  20.124  0.00  0.00    +0.000 HD
BRANCH  23  26
ATOM     26  C   UNL     1       1.958   8.300  19.249  0.00  0.00    +0.000 A 
ATOM     27  C   UNL     1       1.412   8.155  20.518  0.00  0.00    +0.000 A 
ATOM     28  N   UNL     1       1.648   6.874  20.946  0.00  0.00    +0.000 N 
ATOM     29  C   UNL     1       2.354   6.192  19.997  0.00  0.00    +0.000 A 
ATOM     30  N   UNL     1       2.758   4.916  20.124  0.00  0.00    +0.000 NA
ATOM     31  C   UNL     1       3.468   4.480  19.057  0.00  0.00    +0.000 A 
ATOM     32  C   UNL     1       3.780   5.224  17.920  0.00  0.00    +0.000 A 
ATOM     33  C   UNL     1       4.606   4.656  16.809  0.00  0.00    +0.000 C 
ATOM     34  C   UNL     1       3.314   6.543  17.844  0.00  0.00    +0.000 A 
ATOM     35  C   UNL     1       2.570   7.049  18.923  0.00  0.00    +0.000 A 
ATOM     36  H   UNL     1       1.362   6.472  21.826  0.00  0.00    +0.000 HD
ENDBRANCH  23  26
ENDBRANCH  21  22
ENDBRANCH   8  21
TORSDOF 5
ENDMDL
MODEL 6
REMARK VINA RESULT:      -7.9      4.978     10.341
REMARK  Name = 
REMARK  7 active torsions:
REMARK  status: ('A' for Active; 'I' for Inactive)
REMARK    1  A    between atoms: C_1  and  N_2
REMARK    2  A    between atoms: C_3  and  C_5
REMARK    3  A    between atoms: C_12  and  C_13
REMARK    4  A    between atoms: C_13  and  N_14
REMARK    5  A    between atoms: C_15  and  C_17
REMARK    6  A    between atoms: C_23  and  C_24
REMARK    7  A    between atoms: C_29  and  C_30
REMARK                            x       y       z     vdW  Elec       q    Type
REMARK                         _______ _______ _______ _____ _____    ______ ____
ROOT
ATOM      1  C   UNL     1      -4.309  12.652  19.626  0.00  0.00    +0.000 A 
ATOM      2  S   UNL     1      -3.018  13.454  20.416  0.00  0.00    +0.000 S 
ATOM      3  C   UNL     1      -1.864  12.393  19.691  0.00  0.00    +0.000 A 
ATOM      4  N   UNL     1      -0.534  12.472  19.948  0.00  0.00    +0.000 N 
ATOM      5  C   UNL     1       0.044  13.328  20.979  0.00  0.00    +0.000 C 
ATOM      6  C   UNL     1       1.477  12.792  20.928  0.00  0.00    +0.000 C 
ATOM      7  C   UNL     1       1.302  11.244  20.940  0.00  0.00    +0.000 C 
ATOM      8  C   UNL     1       0.555  11.569  19.574  0.00  0.00    +0.000 C 
ATOM      9  C   UNL     1       1.773  12.578  19.403  0.00  0.00    +0.000 C 
ATOM     10  N   UNL     1      -2.412  11.533  18.862  0.00  0.00    +0.000 NA
ATOM     11  C   UNL     1      -3.813  11.658  18.798  0.00  0.00    +0.000 A 
ENDROOT
BRANCH   1  14
ATOM     12  C   UNL     1      -7.479  14.612  19.392  0.00  0.00    +0.000 C 
ATOM     13  N   UNL     1      -6.130  14.138  19.229  0.00  0.00    +0.000 N 
ATOM     14  C   UNL     1      -5.683  13.019  19.898  0.00  0.00    +0.000 C 
ATOM     15  O   UNL     1      -6.407  12.391  20.661  0.00  0.00    +0.000 OA
ATOM     16  H   UNL     1      -5.496  14.639  18.623  0.00  0.00    +0.000 HD
ENDBRANCH   1  14
BRANCH  11  17
ATOM     17  C   UNL     1      -4.580  10.754  17.872  0.00  0.00    +0.000 C 
ATOM     18  F   UNL     1      -5.632  10.120  18.436  0.00  0.00    +0.000 F 
ATOM     19  F   UNL     1      -5.089  11.450  16.818  0.00  0.00    +0.000 F 
ATOM     20  F   UNL     1      -3.777   9.791  17.345  0.00  0.00    +0.000 F 
ENDBRANCH  11  17
BRANCH   8  21
ATOM     21  C   UNL     1       0.329  10.535  18.498  0.00  0.00    +0.000 C 
BRANCH  21  22
ATOM     22  N   UNL     1       0.956   9.302  18.916  0.00  0.00    +0.000 N 
ATOM     23  C   UNL     1       1.954   8.687  18.193  0.00  0.00    +0.000 C 
ATOM     24  O   UNL     1       2.384   9.127  17.134  0.00  0.00    +0.000 OA
ATOM     25  H   UNL     1       0.820   9.040  19.887  0.00  0.00    +0.000 HD
BRANCH  23  26
ATOM     26  C   UNL     1       2.484   7.487  18.826  0.00  0.00    +0.000 A 
ATOM     27  C   UNL     1       2.127   6.985  20.071  0.00  0.00    +0.000 A 
ATOM     28  N   UNL     1       2.817   5.820  20.280  0.00  0.00    +0.000 N 
ATOM     29  C   UNL     1       3.630   5.564  19.213  0.00  0.00    +0.000 A 
ATOM     30  N   UNL     1       4.450   4.503  19.122  0.00  0.00    +0.000 NA
ATOM     31  C   UNL     1       5.174   4.495  17.977  0.00  0.00    +0.000 A 
ATOM     32  C   UNL     1       5.120   5.453  16.966  0.00  0.00    +0.000 A 
ATOM     33  C   UNL     1       5.993   5.368  15.754  0.00  0.00    +0.000 C 
ATOM     34  C   UNL     1       4.231   6.524  17.117  0.00  0.00    +0.000 A 
ATOM     35  C   UNL     1       3.453   6.585  18.285  0.00  0.00    +0.000 A 
ATOM     36  H   UNL     1       2.759   5.224  21.093  0.00  0.00    +0.000 HD
ENDBRANCH  23  26
ENDBRANCH  21  22
ENDBRANCH   8  21
TORSDOF 5
ENDMDL
MODEL 7
REMARK VINA RESULT:      -7.8      7.273     10.203
REMARK  Name = 
REMARK  7 active torsions:
REMARK  status: ('A' for Active; 'I' for Inactive)
REMARK    1  A    between atoms: C_1  and  N_2
REMARK    2  A    between atoms: C_3  and  C_5
REMARK    3  A    between atoms: C_12  and  C_13
REMARK    4  A    between atoms: C_13  and  N_14
REMARK    5  A    between atoms: C_15  and  C_17
REMARK    6  A    between atoms: C_23  and  C_24
REMARK    7  A    between atoms: C_29  and  C_30
REMARK                            x       y       z     vdW  Elec       q    Type
REMARK                         _______ _______ _______ _____ _____    ______ ____
ROOT
ATOM      1  C   UNL     1      -3.394  14.017  21.645  0.00  0.00    +0.000 A 
ATOM      2  S   UNL     1      -4.442  13.450  20.413  0.00  0.00    +0.000 S 
ATOM      3  C   UNL     1      -3.218  12.395  19.805  0.00  0.00    +0.000 A 
ATOM      4  N   UNL     1      -3.403  11.611  18.713  0.00  0.00    +0.000 N 
ATOM      5  C   UNL     1      -4.571  11.697  17.841  0.00  0.00    +0.000 C 
ATOM      6  C   UNL     1      -4.075  10.775  16.723  0.00  0.00    +0.000 C 
ATOM      7  C   UNL     1      -2.622  11.264  16.447  0.00  0.00    +0.000 C 
ATOM      8  C   UNL     1      -2.447  10.800  17.958  0.00  0.00    +0.000 C 
ATOM      9  C   UNL     1      -3.359   9.595  17.464  0.00  0.00    +0.000 C 
ATOM     10  N   UNL     1      -2.116  12.424  20.522  0.00  0.00    +0.000 NA
ATOM     11  C   UNL     1      -2.186  13.341  21.587  0.00  0.00    +0.000 A 
ENDROOT
BRANCH   1  14
ATOM     12  C   UNL     1      -5.552  15.858  24.073  0.00  0.00    +0.000 C 
ATOM     13  N   UNL     1      -5.022  14.887  23.153  0.00  0.00    +0.000 N 
ATOM     14  C   UNL     1      -3.808  15.084  22.533  0.00  0.00    +0.000 C 
ATOM     15  O   UNL     1      -3.137  16.090  22.730  0.00  0.00    +0.000 OA
ATOM     16  H   UNL     1      -5.553  14.052  22.950  0.00  0.00    +0.000 HD
ENDBRANCH   1  14
BRANCH  11  17
ATOM     17  C   UNL     1      -1.007  13.468  22.513  0.00  0.00    +0.000 C 
ATOM     18  F   UNL     1      -1.314  13.485  23.829  0.00  0.00    +0.000 F 
ATOM     19  F   UNL     1      -0.140  12.432  22.348  0.00  0.00    +0.000 F 
ATOM     20  F   UNL     1      -0.302  14.604  22.260  0.00  0.00    +0.000 F 
ENDBRANCH  11  17
BRANCH   8  21
ATOM     21  C   UNL     1      -1.104  10.476  18.566  0.00  0.00    +0.000 C 
BRANCH  21  22
ATOM     22  N   UNL     1      -0.233  11.612  18.370  0.00  0.00    +0.000 N 
ATOM     23  C   UNL     1       0.911  11.814  19.110  0.00  0.00    +0.000 C 
ATOM     24  O   UNL     1       1.278  11.058  20.001  0.00  0.00    +0.000 OA
ATOM     25  H   UNL     1      -0.349  12.117  17.498  0.00  0.00    +0.000 HD
BRANCH  23  26
ATOM     26  C   UNL     1       1.671  12.990  18.708  0.00  0.00    +0.000 A 
ATOM     27  C   UNL     1       2.980  13.008  18.245  0.00  0.00    +0.000 A 
ATOM     28  N   UNL     1       3.310  14.300  17.931  0.00  0.00    +0.000 N 
ATOM     29  C   UNL     1       2.256  15.126  18.200  0.00  0.00    +0.000 A 
ATOM     30  N   UNL     1       2.270  16.458  18.018  0.00  0.00    +0.000 NA
ATOM     31  C   UNL     1       1.112  17.052  18.390  0.00  0.00    +0.000 A 
ATOM     32  C   UNL     1      -0.009  16.409  18.913  0.00  0.00    +0.000 A 
ATOM     33  C   UNL     1      -1.229  17.167  19.329  0.00  0.00    +0.000 C 
ATOM     34  C   UNL     1       0.037  15.017  19.062  0.00  0.00    +0.000 A 
ATOM     35  C   UNL     1       1.214  14.346  18.691  0.00  0.00    +0.000 A 
ATOM     36  H   UNL     1       4.193  14.623  17.562  0.00  0.00    +0.000 HD
ENDBRANCH  23  26
ENDBRANCH  21  22
ENDBRANCH   8  21
TORSDOF 5
ENDMDL
MODEL 8
REMARK VINA RESULT:      -7.8      4.415      9.425
REMARK  Name = 
REMARK  7 active torsions:
REMARK  status: ('A' for Active; 'I' for Inactive)
REMARK    1  A    between atoms: C_1  and  N_2
REMARK    2  A    between atoms: C_3  and  C_5
REMARK    3  A    between atoms: C_12  and  C_13
REMARK    4  A    between atoms: C_13  and  N_14
REMARK    5  A    between atoms: C_15  and  C_17
REMARK    6  A    between atoms: C_23  and  C_24
REMARK    7  A    between atoms: C_29  and  C_30
REMARK                            x       y       z     vdW  Elec       q    Type
REMARK                         _______ _______ _______ _____ _____    ______ ____
ROOT
ATOM      1  C   UNL     1      -1.178  14.309  20.959  0.00  0.00    +0.000 A 
ATOM      2  S   UNL     1      -1.201  13.193  22.259  0.00  0.00    +0.000 S 
ATOM      3  C   UNL     1      -0.357  12.018  21.316  0.00  0.00    +0.000 A 
ATOM      4  N   UNL     1      -0.057  10.780  21.785  0.00  0.00    +0.000 N 
ATOM      5  C   UNL     1      -0.557  10.248  23.049  0.00  0.00    +0.000 C 
ATOM      6  C   UNL     1      -0.085   8.802  22.877  0.00  0.00    +0.000 C 
ATOM      7  C   UNL     1      -0.525   8.430  21.429  0.00  0.00    +0.000 C 
ATOM      8  C   UNL     1       0.484   9.612  21.089  0.00  0.00    +0.000 C 
ATOM      9  C   UNL     1       1.340   8.916  22.235  0.00  0.00    +0.000 C 
ATOM     10  N   UNL     1      -0.027  12.462  20.123  0.00  0.00    +0.000 NA
ATOM     11  C   UNL     1      -0.480  13.774  19.889  0.00  0.00    +0.000 A 
ENDROOT
BRANCH   1  14
ATOM     12  C   UNL     1      -3.918  16.810  20.534  0.00  0.00    +0.000 C 
ATOM     13  N   UNL     1      -3.116  15.616  20.493  0.00  0.00    +0.000 N 
ATOM     14  C   UNL     1      -1.863  15.580  21.066  0.00  0.00    +0.000 C 
ATOM     15  O   UNL     1      -1.380  16.558  21.623  0.00  0.00    +0.000 OA
ATOM     16  H   UNL     1      -3.472  14.794  20.026  0.00  0.00    +0.000 HD
ENDBRANCH   1  14
BRANCH  11  17
ATOM     17  C   UNL     1      -0.157  14.428  18.573  0.00  0.00    +0.000 C 
ATOM     18  F   UNL     1      -0.719  15.643  18.387  0.00  0.00    +0.000 F 
ATOM     19  F   UNL     1       1.184  14.615  18.435  0.00  0.00    +0.000 F 
ATOM     20  F   UNL     1      -0.548  13.651  17.527  0.00  0.00    +0.000 F 
ENDBRANCH  11  17
BRANCH   8  21
ATOM     21  C   UNL     1       1.118   9.783  19.730  0.00  0.00    +0.000 C 
BRANCH  21  22
ATOM     22  N   UNL     1       1.946   8.628  19.469  0.00  0.00    +0.000 N 
ATOM     23  C   UNL     1       2.298   8.232  18.197  0.00  0.00    +0.000 C 
ATOM     24  O   UNL     1       1.932   8.817  17.186  0.00  0.00    +0.000 OA
ATOM     25  H   UNL     1       2.473   8.270  20.258  0.00  0.00    +0.000 HD
BRANCH  23  26
ATOM     26  C   UNL     1       3.185   7.077  18.167  0.00  0.00    +0.000 A 
ATOM     27  C   UNL     1       4.368   6.964  17.447  0.00  0.00    +0.000 A 
ATOM     28  N   UNL     1       4.926   5.743  17.723  0.00  0.00    +0.000 N 
ATOM     29  C   UNL     1       4.124   5.051  18.584  0.00  0.00    +0.000 A 
ATOM     30  N   UNL     1       4.385   3.810  19.033  0.00  0.00    +0.000 NA
ATOM     31  C   UNL     1       3.419   3.334  19.852  0.00  0.00    +0.000 A 
ATOM     32  C   UNL     1       2.256   4.005  20.228  0.00  0.00    +0.000 A 
ATOM     33  C   UNL     1       1.231   3.370  21.113  0.00  0.00    +0.000 C 
ATOM     34  C   UNL     1       2.053   5.301  19.737  0.00  0.00    +0.000 A 
ATOM     35  C   UNL     1       3.024   5.849  18.882  0.00  0.00    +0.000 A 
ATOM     36  H   UNL     1       5.793   5.381  17.353  0.00  0.00    +0.000 HD
ENDBRANCH  23  26
ENDBRANCH  21  22
ENDBRANCH   8  21
TORSDOF 5
ENDMDL
MODEL 9
REMARK VINA RESULT:      -7.7      1.369      1.905
REMARK  Name = 
REMARK  7 active torsions:
REMARK  status: ('A' for Active; 'I' for Inactive)
REMARK    1  A    between atoms: C_1  and  N_2
REMARK    2  A    between atoms: C_3  and  C_5
REMARK    3  A    between atoms: C_12  and  C_13
REMARK    4  A    between atoms: C_13  and  N_14
REMARK    5  A    between atoms: C_15  and  C_17
REMARK    6  A    between atoms: C_23  and  C_24
REMARK    7  A    between atoms: C_29  and  C_30
REMARK                            x       y       z     vdW  Elec       q    Type
REMARK                         _______ _______ _______ _____ _____    ______ ____
ROOT
ATOM      1  C   UNL     1       5.504   4.464  16.179  0.00  0.00    +0.000 A 
ATOM      2  S   UNL     1       4.014   3.618  16.205  0.00  0.00    +0.000 S 
ATOM      3  C   UNL     1       3.708   4.130  17.825  0.00  0.00    +0.000 A 
ATOM      4  N   UNL     1       2.606   3.747  18.519  0.00  0.00    +0.000 N 
ATOM      5  C   UNL     1       1.661   2.739  18.048  0.00  0.00    +0.000 C 
ATOM      6  C   UNL     1       0.837   2.598  19.331  0.00  0.00    +0.000 C 
ATOM      7  C   UNL     1       1.908   2.473  20.456  0.00  0.00    +0.000 C 
ATOM      8  C   UNL     1       2.267   3.930  19.930  0.00  0.00    +0.000 C 
ATOM      9  C   UNL     1       0.683   4.061  19.872  0.00  0.00    +0.000 C 
ATOM     10  N   UNL     1       4.637   4.936  18.291  0.00  0.00    +0.000 NA
ATOM     11  C   UNL     1       5.679   5.151  17.369  0.00  0.00    +0.000 A 
ENDROOT
BRANCH   1  14
ATOM     12  C   UNL     1       6.567   3.718  12.678  0.00  0.00    +0.000 C 
ATOM     13  N   UNL     1       5.810   3.860  13.894  0.00  0.00    +0.000 N 
ATOM     14  C   UNL     1       6.389   4.365  15.037  0.00  0.00    +0.000 C 
ATOM     15  O   UNL     1       7.566   4.704  15.070  0.00  0.00    +0.000 OA
ATOM     16  H   UNL     1       4.842   3.575  13.913  0.00  0.00    +0.000 HD
ENDBRANCH   1  14
BRANCH  11  17
ATOM     17  C   UNL     1       6.806   6.072  17.752  0.00  0.00    +0.000 C 
ATOM     18  F   UNL     1       7.013   7.102  16.902  0.00  0.00    +0.000 F 
ATOM     19  F   UNL     1       6.586   6.635  18.971  0.00  0.00    +0.000 F 
ATOM     20  F   UNL     1       7.983   5.398  17.846  0.00  0.00    +0.000 F 
ENDBRANCH  11  17
BRANCH   8  21
ATOM     21  C   UNL     1       3.036   4.933  20.756  0.00  0.00    +0.000 C 
BRANCH  21  22
ATOM     22  N   UNL     1       2.157   6.041  21.055  0.00  0.00    +0.000 N 
ATOM     23  C   UNL     1       2.055   7.153  20.248  0.00  0.00    +0.000 C 
ATOM     24  O   UNL     1       2.704   7.300  19.221  0.00  0.00    +0.000 OA
ATOM     25  H   UNL     1       1.429   5.860  21.737  0.00  0.00    +0.000 HD
BRANCH  23  26
ATOM     26  C   UNL     1       1.067   8.121  20.706  0.00  0.00    +0.000 A 
ATOM     27  C   UNL     1       0.071   7.901  21.648  0.00  0.00    +0.000 A 
ATOM     28  N   UNL     1      -0.617   9.072  21.832  0.00  0.00    +0.000 N 
ATOM     29  C   UNL     1      -0.107  10.041  21.016  0.00  0.00    +0.000 A 
ATOM     30  N   UNL     1      -0.578  11.299  20.947  0.00  0.00    +0.000 NA
ATOM     31  C   UNL     1       0.080  12.057  20.038  0.00  0.00    +0.000 A 
ATOM     32  C   UNL     1       1.137  11.638  19.231  0.00  0.00    +0.000 A 
ATOM     33  C   UNL     1       1.771  12.549  18.229  0.00  0.00    +0.000 C 
ATOM     34  C   UNL     1       1.588  10.319  19.365  0.00  0.00    +0.000 A 
ATOM     35  C   UNL     1       0.944   9.485  20.294  0.00  0.00    +0.000 A 
ATOM     36  H   UNL     1      -1.391   9.222  22.462  0.00  0.00    +0.000 HD
ENDBRANCH  23  26
ENDBRANCH  21  22
ENDBRANCH   8  21
TORSDOF 5
ENDMDL
