MODEL 1
REMARK VINA RESULT:      -8.3      0.000      0.000
REMARK  Name = 
REMARK  4 active torsions:
REMARK  status: ('A' for Active; 'I' for Inactive)
REMARK    1  A    between atoms: C_1  and  O_2
REMARK    2  A    between atoms: O_2  and  C_3
REMARK    3  A    between atoms: C_8  and  C_9
REMARK    4  A    between atoms: N_11  and  C_12
REMARK                            x       y       z     vdW  Elec       q    Type
REMARK                         _______ _______ _______ _____ _____    ______ ____
ROOT
ATOM      1  C   UNL     1       2.142   8.133  18.523  0.00  0.00    +0.000 C 
ATOM      2  O   UNL     1       2.313   8.735  17.469  0.00  0.00    +0.000 OA
ATOM      3  N   UNL     1       2.586   6.850  18.803  0.00  0.00    +0.000 N 
ATOM      4  H   UNL     1       2.232   6.424  19.644  0.00  0.00    +0.000 HD
ENDROOT
BRANCH   1  10
ATOM      5  C   UNL     1      -1.254  11.495  22.229  0.00  0.00    +0.000 A 
ATOM      6  C   UNL     1      -0.910  10.550  23.194  0.00  0.00    +0.000 A 
ATOM      7  C   UNL     1      -0.085   9.467  22.874  0.00  0.00    +0.000 A 
ATOM      8  C   UNL     1       0.392   9.332  21.562  0.00  0.00    +0.000 A 
ATOM      9  C   UNL     1       1.244   8.390  20.934  0.00  0.00    +0.000 A 
ATOM     10  C   UNL     1       1.380   8.737  19.602  0.00  0.00    +0.000 A 
ATOM     11  N   UNL     1       0.619   9.881  19.420  0.00  0.00    +0.000 N 
ATOM     12  C   UNL     1       0.018  10.265  20.598  0.00  0.00    +0.000 A 
ATOM     13  C   UNL     1      -0.818  11.352  20.902  0.00  0.00    +0.000 A 
ATOM     14  H   UNL     1       0.537  10.363  18.535  0.00  0.00    +0.000 HD
BRANCH   5  16
ATOM     15  C   UNL     1      -3.091  12.373  23.425  0.00  0.00    +0.000 C 
ATOM     16  O   UNL     1      -2.047  12.587  22.477  0.00  0.00    +0.000 OA
ENDBRANCH   5  16
ENDBRANCH   1  10
BRANCH   3  17
ATOM     17  C   UNL     1       3.364   6.011  17.978  0.00  0.00    +0.000 A 
ATOM     18  C   UNL     1       2.963   4.720  17.604  0.00  0.00    +0.000 A 
ATOM     19  C   UNL     1       3.790   3.904  16.826  0.00  0.00    +0.000 A 
ATOM     20  C   UNL     1       5.016   4.400  16.423  0.00  0.00    +0.000 A 
ATOM     21  C   UNL     1       5.418   5.691  16.767  0.00  0.00    +0.000 A 
ATOM     22  C   UNL     1       4.598   6.511  17.532  0.00  0.00    +0.000 A 
ATOM     23  C   UNL     1       6.811   5.957  16.283  0.00  0.00    +0.000 C 
ATOM     24  C   UNL     1       6.975   4.855  15.225  0.00  0.00    +0.000 C 
ATOM     25  C   UNL     1       6.091   3.683  15.669  0.00  0.00    +0.000 C 
ENDBRANCH   3  17
TORSDOF 3
ENDMDL
MODEL 2
REMARK VINA RESULT:      -7.9      2.166      9.070
REMARK  Name = 
REMARK  4 active torsions:
REMARK  status: ('A' for Active; 'I' for Inactive)
REMARK    1  A    between atoms: C_1  and  O_2
REMARK    2  A    between atoms: O_2  and  C_3
REMARK    3  A    between atoms: C_8  and  C_9
REMARK    4  A    between atoms: N_11  and  C_12
REMARK                            x       y       z     vdW  Elec       q    Type
REMARK                         _______ _______ _______ _____ _____    ______ ____
ROOT
ATOM      1  C   UNL     1       1.949   6.657  20.027  0.00  0.00    +0.000 C 
ATOM      2  O   UNL     1       1.371   5.945  20.841  0.00  0.00    +0.000 OA
ATOM      3  N   UNL     1       1.828   8.034  19.927  0.00  0.00    +0.000 N 
ATOM      4  H   UNL     1       2.232   8.463  19.111  0.00  0.00    +0.000 HD
ENDROOT
BRANCH   1  10
ATOM      5  C   UNL     1       5.753   5.333  15.517  0.00  0.00    +0.000 A 
ATOM      6  C   UNL     1       5.466   4.006  15.835  0.00  0.00    +0.000 A 
ATOM      7  C   UNL     1       4.585   3.694  16.874  0.00  0.00    +0.000 A 
ATOM      8  C   UNL     1       3.991   4.732  17.607  0.00  0.00    +0.000 A 
ATOM      9  C   UNL     1       3.060   4.755  18.674  0.00  0.00    +0.000 A 
ATOM     10  C   UNL     1       2.819   6.071  19.022  0.00  0.00    +0.000 A 
ATOM     11  N   UNL     1       3.595   6.844  18.174  0.00  0.00    +0.000 N 
ATOM     12  C   UNL     1       4.308   6.053  17.301  0.00  0.00    +0.000 A 
ATOM     13  C   UNL     1       5.199   6.383  16.266  0.00  0.00    +0.000 A 
ATOM     14  H   UNL     1       3.615   7.855  18.200  0.00  0.00    +0.000 HD
BRANCH   5  16
ATOM     15  C   UNL     1       7.062   4.646  13.675  0.00  0.00    +0.000 C 
ATOM     16  O   UNL     1       6.597   5.710  14.503  0.00  0.00    +0.000 OA
ENDBRANCH   5  16
ENDBRANCH   1  10
BRANCH   3  17
ATOM     17  C   UNL     1       1.081   8.893  20.760  0.00  0.00    +0.000 A 
ATOM     18  C   UNL     1       1.068   8.783  22.158  0.00  0.00    +0.000 A 
ATOM     19  C   UNL     1       0.273   9.625  22.941  0.00  0.00    +0.000 A 
ATOM     20  C   UNL     1      -0.499  10.581  22.308  0.00  0.00    +0.000 A 
ATOM     21  C   UNL     1      -0.478  10.719  20.920  0.00  0.00    +0.000 A 
ATOM     22  C   UNL     1       0.317   9.893  20.136  0.00  0.00    +0.000 A 
ATOM     23  C   UNL     1      -1.457  11.763  20.478  0.00  0.00    +0.000 C 
ATOM     24  C   UNL     1      -1.692  12.528  21.790  0.00  0.00    +0.000 C 
ATOM     25  C   UNL     1      -1.482  11.523  22.929  0.00  0.00    +0.000 C 
ENDBRANCH   3  17
TORSDOF 3
ENDMDL
MODEL 3
REMARK VINA RESULT:      -7.8      2.110      9.172
REMARK  Name = 
REMARK  4 active torsions:
REMARK  status: ('A' for Active; 'I' for Inactive)
REMARK    1  A    between atoms: C_1  and  O_2
REMARK    2  A    between atoms: O_2  and  C_3
REMARK    3  A    between atoms: C_8  and  C_9
REMARK    4  A    between atoms: N_11  and  C_12
REMARK                            x       y       z     vdW  Elec       q    Type
REMARK                         _______ _______ _______ _____ _____    ______ ____
ROOT
ATOM      1  C   UNL     1       2.419   6.632  19.170  0.00  0.00    +0.000 C 
ATOM      2  O   UNL     1       1.896   5.989  20.074  0.00  0.00    +0.000 OA
ATOM      3  N   UNL     1       2.171   7.965  18.878  0.00  0.00    +0.000 N 
ATOM      4  H   UNL     1       2.547   8.313  18.012  0.00  0.00    +0.000 HD
ENDROOT
BRANCH   1  10
ATOM      5  C   UNL     1       6.733   5.084  15.227  0.00  0.00    +0.000 A 
ATOM      6  C   UNL     1       6.193   3.803  15.334  0.00  0.00    +0.000 A 
ATOM      7  C   UNL     1       5.100   3.555  16.170  0.00  0.00    +0.000 A 
ATOM      8  C   UNL     1       4.549   4.610  16.911  0.00  0.00    +0.000 A 
ATOM      9  C   UNL     1       3.454   4.697  17.805  0.00  0.00    +0.000 A 
ATOM     10  C   UNL     1       3.357   5.998  18.262  0.00  0.00    +0.000 A 
ATOM     11  N   UNL     1       4.384   6.700  17.651  0.00  0.00    +0.000 N 
ATOM     12  C   UNL     1       5.114   5.879  16.820  0.00  0.00    +0.000 A 
ATOM     13  C   UNL     1       6.219   6.142  15.992  0.00  0.00    +0.000 A 
ATOM     14  H   UNL     1       4.553   7.686  17.798  0.00  0.00    +0.000 HD
BRANCH   5  16
ATOM     15  C   UNL     1       7.630   5.061  13.042  0.00  0.00    +0.000 C 
ATOM     16  O   UNL     1       7.795   5.400  14.417  0.00  0.00    +0.000 OA
ENDBRANCH   5  16
ENDBRANCH   1  10
BRANCH   3  17
ATOM     17  C   UNL     1       1.333   8.857  19.580  0.00  0.00    +0.000 A 
ATOM     18  C   UNL     1       0.714   9.961  18.976  0.00  0.00    +0.000 A 
ATOM     19  C   UNL     1      -0.067  10.848  19.723  0.00  0.00    +0.000 A 
ATOM     20  C   UNL     1      -0.227  10.610  21.075  0.00  0.00    +0.000 A 
ATOM     21  C   UNL     1       0.362   9.502  21.685  0.00  0.00    +0.000 A 
ATOM     22  C   UNL     1       1.132   8.611  20.948  0.00  0.00    +0.000 A 
ATOM     23  C   UNL     1       0.110   9.515  23.162  0.00  0.00    +0.000 C 
ATOM     24  C   UNL     1      -1.077  10.488  23.253  0.00  0.00    +0.000 C 
ATOM     25  C   UNL     1      -0.938  11.463  22.077  0.00  0.00    +0.000 C 
ENDBRANCH   3  17
TORSDOF 3
ENDMDL
MODEL 4
REMARK VINA RESULT:      -7.8      5.652      8.222
REMARK  Name = 
REMARK  4 active torsions:
REMARK  status: ('A' for Active; 'I' for Inactive)
REMARK    1  A    between atoms: C_1  and  O_2
REMARK    2  A    between atoms: O_2  and  C_3
REMARK    3  A    between atoms: C_8  and  C_9
REMARK    4  A    between atoms: N_11  and  C_12
REMARK                            x       y       z     vdW  Elec       q    Type
REMARK                         _______ _______ _______ _____ _____    ______ ____
ROOT
ATOM      1  C   UNL     1       7.728   7.560  18.254  0.00  0.00    +0.000 C 
ATOM      2  O   UNL     1       8.274   6.624  18.829  0.00  0.00    +0.000 OA
ATOM      3  N   UNL     1       6.571   7.480  17.496  0.00  0.00    +0.000 N 
ATOM      4  H   UNL     1       6.332   8.293  16.952  0.00  0.00    +0.000 HD
ENDROOT
BRANCH   1  10
ATOM      5  C   UNL     1      10.653  12.723  19.419  0.00  0.00    +0.000 A 
ATOM      6  C   UNL     1       9.992  13.203  18.289  0.00  0.00    +0.000 A 
ATOM      7  C   UNL     1       9.124  12.381  17.564  0.00  0.00    +0.000 A 
ATOM      8  C   UNL     1       8.925  11.056  17.980  0.00  0.00    +0.000 A 
ATOM      9  C   UNL     1       8.115  10.001  17.495  0.00  0.00    +0.000 A 
ATOM     10  C   UNL     1       8.312   8.889  18.294  0.00  0.00    +0.000 A 
ATOM     11  N   UNL     1       9.234   9.264  19.258  0.00  0.00    +0.000 N 
ATOM     12  C   UNL     1       9.613  10.578  19.092  0.00  0.00    +0.000 A 
ATOM     13  C   UNL     1      10.496  11.389  19.825  0.00  0.00    +0.000 A 
ATOM     14  H   UNL     1       9.565   8.646  19.986  0.00  0.00    +0.000 HD
BRANCH   5  16
ATOM     15  C   UNL     1      12.314  14.402  19.455  0.00  0.00    +0.000 C 
ATOM     16  O   UNL     1      11.507  13.478  20.183  0.00  0.00    +0.000 OA
ENDBRANCH   5  16
ENDBRANCH   1  10
BRANCH   3  17
ATOM     17  C   UNL     1       5.761   6.345  17.281  0.00  0.00    +0.000 A 
ATOM     18  C   UNL     1       6.148   5.272  16.466  0.00  0.00    +0.000 A 
ATOM     19  C   UNL     1       5.291   4.191  16.241  0.00  0.00    +0.000 A 
ATOM     20  C   UNL     1       4.049   4.195  16.849  0.00  0.00    +0.000 A 
ATOM     21  C   UNL     1       3.660   5.244  17.683  0.00  0.00    +0.000 A 
ATOM     22  C   UNL     1       4.509   6.317  17.918  0.00  0.00    +0.000 A 
ATOM     23  C   UNL     1       2.249   5.052  18.148  0.00  0.00    +0.000 C 
ATOM     24  C   UNL     1       2.043   3.554  17.871  0.00  0.00    +0.000 C 
ATOM     25  C   UNL     1       2.945   3.198  16.684  0.00  0.00    +0.000 C 
ENDBRANCH   3  17
TORSDOF 3
ENDMDL
MODEL 5
REMARK VINA RESULT:      -7.6      1.751      9.047
REMARK  Name = 
REMARK  4 active torsions:
REMARK  status: ('A' for Active; 'I' for Inactive)
REMARK    1  A    between atoms: C_1  and  O_2
REMARK    2  A    between atoms: O_2  and  C_3
REMARK    3  A    between atoms: C_8  and  C_9
REMARK    4  A    between atoms: N_11  and  C_12
REMARK                            x       y       z     vdW  Elec       q    Type
REMARK                         _______ _______ _______ _____ _____    ______ ____
ROOT
ATOM      1  C   UNL     1       1.644   8.486  18.852  0.00  0.00    +0.000 C 
ATOM      2  O   UNL     1       1.116   9.301  18.104  0.00  0.00    +0.000 OA
ATOM      3  N   UNL     1       1.561   8.485  20.236  0.00  0.00    +0.000 N 
ATOM      4  H   UNL     1       2.177   7.855  20.723  0.00  0.00    +0.000 HD
ENDROOT
BRANCH   1  10
ATOM      5  C   UNL     1       5.678   4.945  16.066  0.00  0.00    +0.000 A 
ATOM      6  C   UNL     1       4.957   3.896  16.633  0.00  0.00    +0.000 A 
ATOM      7  C   UNL     1       3.841   4.146  17.438  0.00  0.00    +0.000 A 
ATOM      8  C   UNL     1       3.451   5.471  17.679  0.00  0.00    +0.000 A 
ATOM      9  C   UNL     1       2.383   6.049  18.407  0.00  0.00    +0.000 A 
ATOM     10  C   UNL     1       2.478   7.425  18.315  0.00  0.00    +0.000 A 
ATOM     11  N   UNL     1       3.595   7.685  17.537  0.00  0.00    +0.000 N 
ATOM     12  C   UNL     1       4.196   6.513  17.132  0.00  0.00    +0.000 A 
ATOM     13  C   UNL     1       5.325   6.278  16.330  0.00  0.00    +0.000 A 
ATOM     14  H   UNL     1       3.906   8.616  17.299  0.00  0.00    +0.000 HD
BRANCH   5  16
ATOM     15  C   UNL     1       6.497   4.201  13.980  0.00  0.00    +0.000 C 
ATOM     16  O   UNL     1       6.773   4.772  15.258  0.00  0.00    +0.000 OA
ENDBRANCH   5  16
ENDBRANCH   1  10
BRANCH   3  17
ATOM     17  C   UNL     1       0.819   9.363  21.053  0.00  0.00    +0.000 A 
ATOM     18  C   UNL     1       0.060   8.931  22.150  0.00  0.00    +0.000 A 
ATOM     19  C   UNL     1      -0.702   9.832  22.901  0.00  0.00    +0.000 A 
ATOM     20  C   UNL     1      -0.686  11.168  22.544  0.00  0.00    +0.000 A 
ATOM     21  C   UNL     1       0.084  11.616  21.470  0.00  0.00    +0.000 A 
ATOM     22  C   UNL     1       0.850  10.729  20.725  0.00  0.00    +0.000 A 
ATOM     23  C   UNL     1      -0.135  13.080  21.239  0.00  0.00    +0.000 C 
ATOM     24  C   UNL     1      -0.744  13.507  22.584  0.00  0.00    +0.000 C 
ATOM     25  C   UNL     1      -1.482  12.285  23.141  0.00  0.00    +0.000 C 
ENDBRANCH   3  17
TORSDOF 3
ENDMDL
MODEL 6
REMARK VINA RESULT:      -7.5      1.063      1.119
REMARK  Name = 
REMARK  4 active torsions:
REMARK  status: ('A' for Active; 'I' for Inactive)
REMARK    1  A    between atoms: C_1  and  O_2
REMARK    2  A    between atoms: O_2  and  C_3
REMARK    3  A    between atoms: C_8  and  C_9
REMARK    4  A    between atoms: N_11  and  C_12
REMARK                            x       y       z     vdW  Elec       q    Type
REMARK                         _______ _______ _______ _____ _____    ______ ____
ROOT
ATOM      1  C   UNL     1       1.809   8.727  18.528  0.00  0.00    +0.000 C 
ATOM      2  O   UNL     1       1.956   9.192  17.403  0.00  0.00    +0.000 OA
ATOM      3  N   UNL     1       2.218   7.470  18.944  0.00  0.00    +0.000 N 
ATOM      4  H   UNL     1       1.885   7.163  19.843  0.00  0.00    +0.000 HD
ENDROOT
BRANCH   1  10
ATOM      5  C   UNL     1      -0.716  12.828  22.185  0.00  0.00    +0.000 A 
ATOM      6  C   UNL     1      -1.058  11.728  22.971  0.00  0.00    +0.000 A 
ATOM      7  C   UNL     1      -0.706  10.433  22.582  0.00  0.00    +0.000 A 
ATOM      8  C   UNL     1      -0.006  10.243  21.381  0.00  0.00    +0.000 A 
ATOM      9  C   UNL     1       0.509   9.094  20.732  0.00  0.00    +0.000 A 
ATOM     10  C   UNL     1       1.116   9.487  19.553  0.00  0.00    +0.000 A 
ATOM     11  N   UNL     1       0.974  10.864  19.486  0.00  0.00    +0.000 N 
ATOM     12  C   UNL     1       0.304  11.345  20.589  0.00  0.00    +0.000 A 
ATOM     13  C   UNL     1      -0.051  12.652  20.962  0.00  0.00    +0.000 A 
ATOM     14  H   UNL     1       1.332  11.426  18.725  0.00  0.00    +0.000 HD
BRANCH   5  16
ATOM     15  C   UNL     1      -2.296  14.579  22.071  0.00  0.00    +0.000 C 
ATOM     16  O   UNL     1      -1.018  14.126  22.513  0.00  0.00    +0.000 OA
ENDBRANCH   5  16
ENDBRANCH   1  10
BRANCH   3  17
ATOM     17  C   UNL     1       2.929   6.507  18.197  0.00  0.00    +0.000 A 
ATOM     18  C   UNL     1       2.488   5.186  18.035  0.00  0.00    +0.000 A 
ATOM     19  C   UNL     1       3.252   4.252  17.329  0.00  0.00    +0.000 A 
ATOM     20  C   UNL     1       4.454   4.660  16.782  0.00  0.00    +0.000 A 
ATOM     21  C   UNL     1       4.894   5.978  16.913  0.00  0.00    +0.000 A 
ATOM     22  C   UNL     1       4.136   6.914  17.605  0.00  0.00    +0.000 A 
ATOM     23  C   UNL     1       6.254   6.143  16.308  0.00  0.00    +0.000 C 
ATOM     24  C   UNL     1       6.334   4.900  15.408  0.00  0.00    +0.000 C 
ATOM     25  C   UNL     1       5.468   3.822  16.069  0.00  0.00    +0.000 C 
ENDBRANCH   3  17
TORSDOF 3
ENDMDL
MODEL 7
REMARK VINA RESULT:      -7.5      6.459      7.760
REMARK  Name = 
REMARK  4 active torsions:
REMARK  status: ('A' for Active; 'I' for Inactive)
REMARK    1  A    between atoms: C_1  and  O_2
REMARK    2  A    between atoms: O_2  and  C_3
REMARK    3  A    between atoms: C_8  and  C_9
REMARK    4  A    between atoms: N_11  and  C_12
REMARK                            x       y       z     vdW  Elec       q    Type
REMARK                         _______ _______ _______ _____ _____    ______ ____
ROOT
ATOM      1  C   UNL     1       7.352   7.225  17.373  0.00  0.00    +0.000 C 
ATOM      2  O   UNL     1       7.751   6.716  16.331  0.00  0.00    +0.000 OA
ATOM      3  N   UNL     1       6.287   6.773  18.137  0.00  0.00    +0.000 N 
ATOM      4  H   UNL     1       5.972   7.382  18.874  0.00  0.00    +0.000 HD
ENDROOT
BRANCH   1  10
ATOM      5  C   UNL     1       9.502  12.750  18.559  0.00  0.00    +0.000 A 
ATOM      6  C   UNL     1      10.111  12.139  19.654  0.00  0.00    +0.000 A 
ATOM      7  C   UNL     1       9.944  10.772  19.895  0.00  0.00    +0.000 A 
ATOM      8  C   UNL     1       9.148  10.013  19.025  0.00  0.00    +0.000 A 
ATOM      9  C   UNL     1       8.807   8.640  18.974  0.00  0.00    +0.000 A 
ATOM     10  C   UNL     1       7.974   8.430  17.890  0.00  0.00    +0.000 A 
ATOM     11  N   UNL     1       7.810   9.666  17.284  0.00  0.00    +0.000 N 
ATOM     12  C   UNL     1       8.520  10.640  17.951  0.00  0.00    +0.000 A 
ATOM     13  C   UNL     1       8.670  12.014  17.701  0.00  0.00    +0.000 A 
ATOM     14  H   UNL     1       7.248   9.812  16.457  0.00  0.00    +0.000 HD
BRANCH   5  16
ATOM     15  C   UNL     1      10.872  14.445  17.647  0.00  0.00    +0.000 C 
ATOM     16  O   UNL     1       9.634  14.082  18.256  0.00  0.00    +0.000 OA
ENDBRANCH   5  16
ENDBRANCH   1  10
BRANCH   3  17
ATOM     17  C   UNL     1       5.497   5.626  17.916  0.00  0.00    +0.000 A 
ATOM     18  C   UNL     1       4.791   5.400  16.726  0.00  0.00    +0.000 A 
ATOM     19  C   UNL     1       3.979   4.272  16.571  0.00  0.00    +0.000 A 
ATOM     20  C   UNL     1       3.890   3.374  17.617  0.00  0.00    +0.000 A 
ATOM     21  C   UNL     1       4.606   3.572  18.799  0.00  0.00    +0.000 A 
ATOM     22  C   UNL     1       5.422   4.685  18.957  0.00  0.00    +0.000 A 
ATOM     23  C   UNL     1       4.276   2.509  19.801  0.00  0.00    +0.000 C 
ATOM     24  C   UNL     1       3.661   1.428  18.898  0.00  0.00    +0.000 C 
ATOM     25  C   UNL     1       3.024   2.157  17.709  0.00  0.00    +0.000 C 
ENDBRANCH   3  17
TORSDOF 3
ENDMDL
MODEL 8
REMARK VINA RESULT:      -7.5      1.179      1.581
REMARK  Name = 
REMARK  4 active torsions:
REMARK  status: ('A' for Active; 'I' for Inactive)
REMARK    1  A    between atoms: C_1  and  O_2
REMARK    2  A    between atoms: O_2  and  C_3
REMARK    3  A    between atoms: C_8  and  C_9
REMARK    4  A    between atoms: N_11  and  C_12
REMARK                            x       y       z     vdW  Elec       q    Type
REMARK                         _______ _______ _______ _____ _____    ______ ____
ROOT
ATOM      1  C   UNL     1       2.117   7.146  19.873  0.00  0.00    +0.000 C 
ATOM      2  O   UNL     1       2.320   6.221  20.652  0.00  0.00    +0.000 OA
ATOM      3  N   UNL     1       2.596   7.231  18.575  0.00  0.00    +0.000 N 
ATOM      4  H   UNL     1       2.487   8.118  18.113  0.00  0.00    +0.000 HD
ENDROOT
BRANCH   1  10
ATOM      5  C   UNL     1      -1.267  11.354  22.594  0.00  0.00    +0.000 A 
ATOM      6  C   UNL     1      -1.126  12.058  21.399  0.00  0.00    +0.000 A 
ATOM      7  C   UNL     1      -0.387  11.525  20.338  0.00  0.00    +0.000 A 
ATOM      8  C   UNL     1       0.223  10.271  20.487  0.00  0.00    +0.000 A 
ATOM      9  C   UNL     1       0.996   9.461  19.620  0.00  0.00    +0.000 A 
ATOM     10  C   UNL     1       1.351   8.306  20.292  0.00  0.00    +0.000 A 
ATOM     11  N   UNL     1       0.797   8.410  21.558  0.00  0.00    +0.000 N 
ATOM     12  C   UNL     1       0.100   9.590  21.695  0.00  0.00    +0.000 A 
ATOM     13  C   UNL     1      -0.630  10.117  22.774  0.00  0.00    +0.000 A 
ATOM     14  H   UNL     1       0.892   7.698  22.270  0.00  0.00    +0.000 HD
BRANCH   5  16
ATOM     15  C   UNL     1      -3.239  12.413  23.347  0.00  0.00    +0.000 C 
ATOM     16  O   UNL     1      -1.987  11.811  23.669  0.00  0.00    +0.000 OA
ENDBRANCH   5  16
ENDBRANCH   1  10
BRANCH   3  17
ATOM     17  C   UNL     1       3.348   6.266  17.872  0.00  0.00    +0.000 A 
ATOM     18  C   UNL     1       2.910   4.949  17.675  0.00  0.00    +0.000 A 
ATOM     19  C   UNL     1       3.713   4.012  17.016  0.00  0.00    +0.000 A 
ATOM     20  C   UNL     1       4.951   4.415  16.551  0.00  0.00    +0.000 A 
ATOM     21  C   UNL     1       5.389   5.729  16.717  0.00  0.00    +0.000 A 
ATOM     22  C   UNL     1       4.595   6.667  17.363  0.00  0.00    +0.000 A 
ATOM     23  C   UNL     1       6.788   5.888  16.203  0.00  0.00    +0.000 C 
ATOM     24  C   UNL     1       6.918   4.648  15.304  0.00  0.00    +0.000 C 
ATOM     25  C   UNL     1       6.003   3.573  15.902  0.00  0.00    +0.000 C 
ENDBRANCH   3  17
TORSDOF 3
ENDMDL
MODEL 9
REMARK VINA RESULT:      -7.5      1.401      1.524
REMARK  Name = 
REMARK  4 active torsions:
REMARK  status: ('A' for Active; 'I' for Inactive)
REMARK    1  A    between atoms: C_1  and  O_2
REMARK    2  A    between atoms: O_2  and  C_3
REMARK    3  A    between atoms: C_8  and  C_9
REMARK    4  A    between atoms: N_11  and  C_12
REMARK                            x       y       z     vdW  Elec       q    Type
REMARK                         _______ _______ _______ _____ _____    ______ ____
ROOT
ATOM      1  C   UNL     1       1.892   6.924  20.183  0.00  0.00    +0.000 C 
ATOM      2  O   UNL     1       1.936   5.865  20.800  0.00  0.00    +0.000 OA
ATOM      3  N   UNL     1       2.485   7.169  18.954  0.00  0.00    +0.000 N 
ATOM      4  H   UNL     1       2.505   8.128  18.647  0.00  0.00    +0.000 HD
ENDROOT
BRANCH   1  10
ATOM      5  C   UNL     1      -0.443  12.310  21.632  0.00  0.00    +0.000 A 
ATOM      6  C   UNL     1      -0.944  11.649  22.752  0.00  0.00    +0.000 A 
ATOM      7  C   UNL     1      -0.699  10.286  22.948  0.00  0.00    +0.000 A 
ATOM      8  C   UNL     1       0.055   9.581  22.000  0.00  0.00    +0.000 A 
ATOM      9  C   UNL     1       0.494   8.236  21.916  0.00  0.00    +0.000 A 
ATOM     10  C   UNL     1       1.214   8.078  20.746  0.00  0.00    +0.000 A 
ATOM     11  N   UNL     1       1.215   9.315  20.122  0.00  0.00    +0.000 N 
ATOM     12  C   UNL     1       0.526  10.244  20.869  0.00  0.00    +0.000 A 
ATOM     13  C   UNL     1       0.279  11.610  20.653  0.00  0.00    +0.000 A 
ATOM     14  H   UNL     1       1.676   9.496  19.241  0.00  0.00    +0.000 HD
BRANCH   5  16
ATOM     15  C   UNL     1      -0.278  14.518  22.456  0.00  0.00    +0.000 C 
ATOM     16  O   UNL     1      -0.635  13.646  21.385  0.00  0.00    +0.000 OA
ENDBRANCH   5  16
ENDBRANCH   1  10
BRANCH   3  17
ATOM     17  C   UNL     1       3.193   6.256  18.145  0.00  0.00    +0.000 A 
ATOM     18  C   UNL     1       2.727   4.965  17.859  0.00  0.00    +0.000 A 
ATOM     19  C   UNL     1       3.488   4.076  17.093  0.00  0.00    +0.000 A 
ATOM     20  C   UNL     1       4.712   4.500  16.612  0.00  0.00    +0.000 A 
ATOM     21  C   UNL     1       5.178   5.790  16.867  0.00  0.00    +0.000 A 
ATOM     22  C   UNL     1       4.424   6.682  17.619  0.00  0.00    +0.000 A 
ATOM     23  C   UNL     1       6.557   5.973  16.310  0.00  0.00    +0.000 C 
ATOM     24  C   UNL     1       6.632   4.810  15.309  0.00  0.00    +0.000 C 
ATOM     25  C   UNL     1       5.724   3.701  15.854  0.00  0.00    +0.000 C 
ENDBRANCH   3  17
TORSDOF 3
ENDMDL
