MODEL 1
REMARK VINA RESULT:      -7.0      0.000      0.000
REMARK  Name = 
REMARK  4 active torsions:
REMARK  status: ('A' for Active; 'I' for Inactive)
REMARK    1  A    between atoms: C_2  and  C_7
REMARK    2  A    between atoms: N_3  and  C_4
REMARK    3  A    between atoms: N_12  and  C_13
REMARK    4  A    between atoms: C_13  and  C_14
REMARK                            x       y       z     vdW  Elec       q    Type
REMARK                         _______ _______ _______ _____ _____    ______ ____
ROOT
ATOM      1  C   UNL     1       7.224   6.330  18.387  0.00  0.00    +0.000 C 
ATOM      2  C   UNL     1       7.405   4.831  18.078  0.00  0.00    +0.000 C 
ATOM      3  C   UNL     1       6.006   4.232  18.132  0.00  0.00    +0.000 C 
ATOM      4  C   UNL     1       5.318   4.125  16.767  0.00  0.00    +0.000 C 
ATOM      5  C   UNL     1       3.823   3.806  16.910  0.00  0.00    +0.000 C 
ATOM      6  N   UNL     1       3.098   4.818  17.691  0.00  0.00    +0.000 NA
ATOM      7  C   UNL     1       3.755   5.086  18.993  0.00  0.00    +0.000 C 
ATOM      8  C   UNL     1       5.291   5.218  19.026  0.00  0.00    +0.000 C 
ATOM      9  O   UNL     1       5.816   6.509  18.659  0.00  0.00    +0.000 OA
ENDROOT
BRANCH   1  11
ATOM     10  O   UNL     1       7.863   6.570  16.076  0.00  0.00    +0.000 OA
ATOM     11  C   UNL     1       7.683   7.127  17.177  0.00  0.00    +0.000 C 
ATOM     12  N   UNL     1       7.920   8.471  17.183  0.00  0.00    +0.000 N 
ATOM     13  H   UNL     1       8.188   8.835  16.274  0.00  0.00    +0.000 HD
BRANCH  12  14
ATOM     14  C   UNL     1       8.006   9.406  18.247  0.00  0.00    +0.000 C 
ATOM     15  C   UNL     1       9.257   9.685  19.024  0.00  0.00    +0.000 C 
ATOM     16  C   UNL     1       8.833  10.647  17.958  0.00  0.00    +0.000 C 
ENDBRANCH  12  14
ENDBRANCH   1  11
BRANCH   6  17
ATOM     17  C   UNL     1       1.698   4.406  17.962  0.00  0.00    +0.000 C 
BRANCH  17  18
ATOM     18  C   UNL     1       1.527   3.615  19.219  0.00  0.00    +0.000 A 
ATOM     19  C   UNL     1       1.091   4.069  20.497  0.00  0.00    +0.000 A 
ATOM     20  C   UNL     1       1.175   2.992  21.348  0.00  0.00    +0.000 A 
ATOM     21  O   UNL     1       1.633   1.900  20.687  0.00  0.00    +0.000 OA
ATOM     22  C   UNL     1       1.845   2.281  19.402  0.00  0.00    +0.000 A 
ENDBRANCH  17  18
ENDBRANCH   6  17
TORSDOF 4
ENDMDL
MODEL 2
REMARK VINA RESULT:      -6.9      3.341      7.081
REMARK  Name = 
REMARK  4 active torsions:
REMARK  status: ('A' for Active; 'I' for Inactive)
REMARK    1  A    between atoms: C_2  and  C_7
REMARK    2  A    between atoms: N_3  and  C_4
REMARK    3  A    between atoms: N_12  and  C_13
REMARK    4  A    between atoms: C_13  and  C_14
REMARK                            x       y       z     vdW  Elec       q    Type
REMARK                         _______ _______ _______ _____ _____    ______ ____
ROOT
ATOM      1  C   UNL     1       3.992   4.292  18.937  0.00  0.00    +0.000 C 
ATOM      2  C   UNL     1       4.647   5.686  18.910  0.00  0.00    +0.000 C 
ATOM      3  C   UNL     1       5.515   5.705  17.659  0.00  0.00    +0.000 C 
ATOM      4  C   UNL     1       4.836   6.328  16.435  0.00  0.00    +0.000 C 
ATOM      5  C   UNL     1       5.625   6.050  15.147  0.00  0.00    +0.000 C 
ATOM      6  N   UNL     1       5.787   4.614  14.879  0.00  0.00    +0.000 NA
ATOM      7  C   UNL     1       6.330   3.890  16.053  0.00  0.00    +0.000 C 
ATOM      8  C   UNL     1       5.769   4.230  17.449  0.00  0.00    +0.000 C 
ATOM      9  O   UNL     1       4.533   3.580  17.802  0.00  0.00    +0.000 OA
ENDROOT
BRANCH   1  11
ATOM     10  O   UNL     1       1.993   5.431  18.218  0.00  0.00    +0.000 OA
ATOM     11  C   UNL     1       2.485   4.468  18.841  0.00  0.00    +0.000 C 
ATOM     12  N   UNL     1       1.571   3.620  19.396  0.00  0.00    +0.000 N 
ATOM     13  H   UNL     1       0.610   3.882  19.199  0.00  0.00    +0.000 HD
BRANCH  12  14
ATOM     14  C   UNL     1       1.720   2.545  20.310  0.00  0.00    +0.000 C 
ATOM     15  C   UNL     1       2.756   2.496  21.392  0.00  0.00    +0.000 C 
ATOM     16  C   UNL     1       1.347   2.857  21.749  0.00  0.00    +0.000 C 
ENDBRANCH  12  14
ENDBRANCH   1  11
BRANCH   6  17
ATOM     17  C   UNL     1       6.693   4.367  13.730  0.00  0.00    +0.000 C 
BRANCH  17  18
ATOM     18  C   UNL     1       6.082   3.554  12.635  0.00  0.00    +0.000 A 
ATOM     19  C   UNL     1       4.721   3.514  12.218  0.00  0.00    +0.000 A 
ATOM     20  C   UNL     1       4.637   2.559  11.232  0.00  0.00    +0.000 A 
ATOM     21  O   UNL     1       5.854   2.002  11.008  0.00  0.00    +0.000 OA
ATOM     22  C   UNL     1       6.722   2.605  11.857  0.00  0.00    +0.000 A 
ENDBRANCH  17  18
ENDBRANCH   6  17
TORSDOF 4
ENDMDL
MODEL 3
REMARK VINA RESULT:      -6.9      2.911      4.706
REMARK  Name = 
REMARK  4 active torsions:
REMARK  status: ('A' for Active; 'I' for Inactive)
REMARK    1  A    between atoms: C_2  and  C_7
REMARK    2  A    between atoms: N_3  and  C_4
REMARK    3  A    between atoms: N_12  and  C_13
REMARK    4  A    between atoms: C_13  and  C_14
REMARK                            x       y       z     vdW  Elec       q    Type
REMARK                         _______ _______ _______ _____ _____    ______ ____
ROOT
ATOM      1  C   UNL     1       5.368   5.300  14.989  0.00  0.00    +0.000 C 
ATOM      2  C   UNL     1       5.655   6.446  15.978  0.00  0.00    +0.000 C 
ATOM      3  C   UNL     1       5.233   5.921  17.344  0.00  0.00    +0.000 C 
ATOM      4  C   UNL     1       6.378   5.322  18.167  0.00  0.00    +0.000 C 
ATOM      5  C   UNL     1       5.856   4.546  19.384  0.00  0.00    +0.000 C 
ATOM      6  N   UNL     1       4.958   3.443  19.012  0.00  0.00    +0.000 NA
ATOM      7  C   UNL     1       3.872   3.896  18.110  0.00  0.00    +0.000 C 
ATOM      8  C   UNL     1       4.227   4.860  16.960  0.00  0.00    +0.000 C 
ATOM      9  O   UNL     1       4.762   4.247  15.771  0.00  0.00    +0.000 OA
ENDROOT
BRANCH   1  11
ATOM     10  O   UNL     1       7.738   5.493  14.593  0.00  0.00    +0.000 OA
ATOM     11  C   UNL     1       6.684   4.867  14.362  0.00  0.00    +0.000 C 
ATOM     12  N   UNL     1       6.827   3.793  13.533  0.00  0.00    +0.000 N 
ATOM     13  H   UNL     1       7.787   3.639  13.239  0.00  0.00    +0.000 HD
BRANCH  12  14
ATOM     14  C   UNL     1       5.870   2.961  12.899  0.00  0.00    +0.000 C 
ATOM     15  C   UNL     1       5.028   3.381  11.732  0.00  0.00    +0.000 C 
ATOM     16  C   UNL     1       6.225   2.515  11.491  0.00  0.00    +0.000 C 
ENDBRANCH  12  14
ENDBRANCH   1  11
BRANCH   6  17
ATOM     17  C   UNL     1       4.332   2.817  20.203  0.00  0.00    +0.000 C 
BRANCH  17  18
ATOM     18  C   UNL     1       2.893   3.173  20.395  0.00  0.00    +0.000 A 
ATOM     19  C   UNL     1       1.740   2.409  20.056  0.00  0.00    +0.000 A 
ATOM     20  C   UNL     1       0.648   3.190  20.350  0.00  0.00    +0.000 A 
ATOM     21  O   UNL     1       1.042   4.389  20.848  0.00  0.00    +0.000 OA
ATOM     22  C   UNL     1       2.399   4.374  20.872  0.00  0.00    +0.000 A 
ENDBRANCH  17  18
ENDBRANCH   6  17
TORSDOF 4
ENDMDL
MODEL 4
REMARK VINA RESULT:      -6.8      3.254      6.547
REMARK  Name = 
REMARK  4 active torsions:
REMARK  status: ('A' for Active; 'I' for Inactive)
REMARK    1  A    between atoms: C_2  and  C_7
REMARK    2  A    between atoms: N_3  and  C_4
REMARK    3  A    between atoms: N_12  and  C_13
REMARK    4  A    between atoms: C_13  and  C_14
REMARK                            x       y       z     vdW  Elec       q    Type
REMARK                         _______ _______ _______ _____ _____    ______ ____
ROOT
ATOM      1  C   UNL     1       2.163   6.060  19.123  0.00  0.00    +0.000 C 
ATOM      2  C   UNL     1       3.310   5.596  20.042  0.00  0.00    +0.000 C 
ATOM      3  C   UNL     1       4.210   4.734  19.167  0.00  0.00    +0.000 C 
ATOM      4  C   UNL     1       5.399   5.486  18.560  0.00  0.00    +0.000 C 
ATOM      5  C   UNL     1       6.090   4.665  17.462  0.00  0.00    +0.000 C 
ATOM      6  N   UNL     1       5.182   4.313  16.361  0.00  0.00    +0.000 NA
ATOM      7  C   UNL     1       3.934   3.681  16.853  0.00  0.00    +0.000 C 
ATOM      8  C   UNL     1       3.246   4.286  18.093  0.00  0.00    +0.000 C 
ATOM      9  O   UNL     1       2.400   5.426  17.847  0.00  0.00    +0.000 OA
ENDROOT
BRANCH   1  11
ATOM     10  O   UNL     1       2.736   8.142  18.052  0.00  0.00    +0.000 OA
ATOM     11  C   UNL     1       2.208   7.577  19.031  0.00  0.00    +0.000 C 
ATOM     12  N   UNL     1       1.688   8.423  19.966  0.00  0.00    +0.000 N 
ATOM     13  H   UNL     1       1.782   9.403  19.717  0.00  0.00    +0.000 HD
BRANCH  12  14
ATOM     14  C   UNL     1       1.184   8.186  21.271  0.00  0.00    +0.000 C 
ATOM     15  C   UNL     1       0.980   9.254  22.303  0.00  0.00    +0.000 C 
ATOM     16  C   UNL     1      -0.204   8.740  21.544  0.00  0.00    +0.000 C 
ENDBRANCH  12  14
ENDBRANCH   1  11
BRANCH   6  17
ATOM     17  C   UNL     1       5.818   3.379  15.399  0.00  0.00    +0.000 C 
BRANCH  17  18
ATOM     18  C   UNL     1       6.446   4.051  14.221  0.00  0.00    +0.000 A 
ATOM     19  C   UNL     1       6.378   3.674  12.849  0.00  0.00    +0.000 A 
ATOM     20  C   UNL     1       7.181   4.551  12.158  0.00  0.00    +0.000 A 
ATOM     21  O   UNL     1       7.744   5.448  13.007  0.00  0.00    +0.000 OA
ATOM     22  C   UNL     1       7.298   5.141  14.251  0.00  0.00    +0.000 A 
ENDBRANCH  17  18
ENDBRANCH   6  17
TORSDOF 4
ENDMDL
MODEL 5
REMARK VINA RESULT:      -6.8      3.397      7.110
REMARK  Name = 
REMARK  4 active torsions:
REMARK  status: ('A' for Active; 'I' for Inactive)
REMARK    1  A    between atoms: C_2  and  C_7
REMARK    2  A    between atoms: N_3  and  C_4
REMARK    3  A    between atoms: N_12  and  C_13
REMARK    4  A    between atoms: C_13  and  C_14
REMARK                            x       y       z     vdW  Elec       q    Type
REMARK                         _______ _______ _______ _____ _____    ______ ____
ROOT
ATOM      1  C   UNL     1       3.855   4.055  18.810  0.00  0.00    +0.000 C 
ATOM      2  C   UNL     1       4.575   5.413  18.927  0.00  0.00    +0.000 C 
ATOM      3  C   UNL     1       5.416   5.539  17.663  0.00  0.00    +0.000 C 
ATOM      4  C   UNL     1       4.740   6.330  16.538  0.00  0.00    +0.000 C 
ATOM      5  C   UNL     1       5.486   6.170  15.206  0.00  0.00    +0.000 C 
ATOM      6  N   UNL     1       5.574   4.769  14.769  0.00  0.00    +0.000 NA
ATOM      7  C   UNL     1       6.108   3.889  15.836  0.00  0.00    +0.000 C 
ATOM      8  C   UNL     1       5.594   4.089  17.277  0.00  0.00    +0.000 C 
ATOM      9  O   UNL     1       4.337   3.458  17.586  0.00  0.00    +0.000 OA
ENDROOT
BRANCH   1  11
ATOM     10  O   UNL     1       1.803   4.729  17.740  0.00  0.00    +0.000 OA
ATOM     11  C   UNL     1       2.356   4.309  18.776  0.00  0.00    +0.000 C 
ATOM     12  N   UNL     1       1.515   4.100  19.829  0.00  0.00    +0.000 N 
ATOM     13  H   UNL     1       0.542   4.294  19.610  0.00  0.00    +0.000 HD
BRANCH  12  14
ATOM     14  C   UNL     1       1.770   3.813  21.195  0.00  0.00    +0.000 C 
ATOM     15  C   UNL     1       1.223   2.622  21.922  0.00  0.00    +0.000 C 
ATOM     16  C   UNL     1       2.644   2.597  21.452  0.00  0.00    +0.000 C 
ENDBRANCH  12  14
ENDBRANCH   1  11
BRANCH   6  17
ATOM     17  C   UNL     1       6.442   4.618  13.575  0.00  0.00    +0.000 C 
BRANCH  17  18
ATOM     18  C   UNL     1       5.984   3.566  12.617  0.00  0.00    +0.000 A 
ATOM     19  C   UNL     1       6.761   2.566  11.965  0.00  0.00    +0.000 A 
ATOM     20  C   UNL     1       5.909   1.890  11.123  0.00  0.00    +0.000 A 
ATOM     21  O   UNL     1       4.655   2.403  11.206  0.00  0.00    +0.000 OA
ATOM     22  C   UNL     1       4.706   3.414  12.109  0.00  0.00    +0.000 A 
ENDBRANCH  17  18
ENDBRANCH   6  17
TORSDOF 4
ENDMDL
MODEL 6
REMARK VINA RESULT:      -6.7      1.441      2.079
REMARK  Name = 
REMARK  4 active torsions:
REMARK  status: ('A' for Active; 'I' for Inactive)
REMARK    1  A    between atoms: C_2  and  C_7
REMARK    2  A    between atoms: N_3  and  C_4
REMARK    3  A    between atoms: N_12  and  C_13
REMARK    4  A    between atoms: C_13  and  C_14
REMARK                            x       y       z     vdW  Elec       q    Type
REMARK                         _______ _______ _______ _____ _____    ______ ____
ROOT
ATOM      1  C   UNL     1       6.926   4.309  16.632  0.00  0.00    +0.000 C 
ATOM      2  C   UNL     1       5.675   3.731  15.944  0.00  0.00    +0.000 C 
ATOM      3  C   UNL     1       4.541   3.905  16.945  0.00  0.00    +0.000 C 
ATOM      4  C   UNL     1       3.707   5.173  16.733  0.00  0.00    +0.000 C 
ATOM      5  C   UNL     1       2.787   5.453  17.930  0.00  0.00    +0.000 C 
ATOM      6  N   UNL     1       3.528   5.618  19.189  0.00  0.00    +0.000 NA
ATOM      7  C   UNL     1       4.462   4.492  19.433  0.00  0.00    +0.000 C 
ATOM      8  C   UNL     1       5.300   3.966  18.250  0.00  0.00    +0.000 C 
ATOM      9  O   UNL     1       6.500   4.706  17.955  0.00  0.00    +0.000 OA
ENDROOT
BRANCH   1  11
ATOM     10  O   UNL     1       7.841   5.321  14.645  0.00  0.00    +0.000 OA
ATOM     11  C   UNL     1       7.425   5.486  15.810  0.00  0.00    +0.000 C 
ATOM     12  N   UNL     1       7.452   6.777  16.248  0.00  0.00    +0.000 N 
ATOM     13  H   UNL     1       7.787   7.432  15.548  0.00  0.00    +0.000 HD
BRANCH  12  14
ATOM     14  C   UNL     1       7.245   7.338  17.535  0.00  0.00    +0.000 C 
ATOM     15  C   UNL     1       8.288   7.391  18.610  0.00  0.00    +0.000 C 
ATOM     16  C   UNL     1       8.000   8.626  17.814  0.00  0.00    +0.000 C 
ENDBRANCH  12  14
ENDBRANCH   1  11
BRANCH   6  17
ATOM     17  C   UNL     1       2.617   5.717  20.357  0.00  0.00    +0.000 C 
BRANCH  17  18
ATOM     18  C   UNL     1       2.050   4.407  20.801  0.00  0.00    +0.000 A 
ATOM     19  C   UNL     1       0.966   3.676  20.236  0.00  0.00    +0.000 A 
ATOM     20  C   UNL     1       0.769   2.578  21.040  0.00  0.00    +0.000 A 
ATOM     21  O   UNL     1       1.657   2.576  22.066  0.00  0.00    +0.000 OA
ATOM     22  C   UNL     1       2.427   3.683  21.918  0.00  0.00    +0.000 A 
ENDBRANCH  17  18
ENDBRANCH   6  17
TORSDOF 4
ENDMDL
MODEL 7
REMARK VINA RESULT:      -6.6      2.690      4.320
REMARK  Name = 
REMARK  4 active torsions:
REMARK  status: ('A' for Active; 'I' for Inactive)
REMARK    1  A    between atoms: C_2  and  C_7
REMARK    2  A    between atoms: N_3  and  C_4
REMARK    3  A    between atoms: N_12  and  C_13
REMARK    4  A    between atoms: C_13  and  C_14
REMARK                            x       y       z     vdW  Elec       q    Type
REMARK                         _______ _______ _______ _____ _____    ______ ____
ROOT
ATOM      1  C   UNL     1       6.289   5.779  15.498  0.00  0.00    +0.000 C 
ATOM      2  C   UNL     1       6.943   6.493  16.696  0.00  0.00    +0.000 C 
ATOM      3  C   UNL     1       5.856   6.590  17.757  0.00  0.00    +0.000 C 
ATOM      4  C   UNL     1       5.890   5.461  18.793  0.00  0.00    +0.000 C 
ATOM      5  C   UNL     1       4.613   5.434  19.644  0.00  0.00    +0.000 C 
ATOM      6  N   UNL     1       3.396   5.256  18.838  0.00  0.00    +0.000 NA
ATOM      7  C   UNL     1       3.324   6.231  17.724  0.00  0.00    +0.000 C 
ATOM      8  C   UNL     1       4.605   6.515  16.913  0.00  0.00    +0.000 C 
ATOM      9  O   UNL     1       4.909   5.567  15.871  0.00  0.00    +0.000 OA
ENDROOT
BRANCH   1  11
ATOM     10  O   UNL     1       7.847   4.039  16.092  0.00  0.00    +0.000 OA
ATOM     11  C   UNL     1       7.028   4.472  15.257  0.00  0.00    +0.000 C 
ATOM     12  N   UNL     1       6.861   3.684  14.156  0.00  0.00    +0.000 N 
ATOM     13  H   UNL     1       7.415   2.833  14.186  0.00  0.00    +0.000 HD
BRANCH  12  14
ATOM     14  C   UNL     1       6.181   3.909  12.932  0.00  0.00    +0.000 C 
ATOM     15  C   UNL     1       6.844   3.909  11.588  0.00  0.00    +0.000 C 
ATOM     16  C   UNL     1       6.070   2.702  12.016  0.00  0.00    +0.000 C 
ENDBRANCH  12  14
ENDBRANCH   1  11
BRANCH   6  17
ATOM     17  C   UNL     1       2.166   5.404  19.655  0.00  0.00    +0.000 C 
BRANCH  17  18
ATOM     18  C   UNL     1       1.887   4.242  20.553  0.00  0.00    +0.000 A 
ATOM     19  C   UNL     1       0.982   3.161  20.344  0.00  0.00    +0.000 A 
ATOM     20  C   UNL     1       1.018   2.390  21.482  0.00  0.00    +0.000 A 
ATOM     21  O   UNL     1       1.883   2.917  22.384  0.00  0.00    +0.000 OA
ATOM     22  C   UNL     1       2.404   4.035  21.819  0.00  0.00    +0.000 A 
ENDBRANCH  17  18
ENDBRANCH   6  17
TORSDOF 4
ENDMDL
MODEL 8
REMARK VINA RESULT:      -6.6      3.397      5.022
REMARK  Name = 
REMARK  4 active torsions:
REMARK  status: ('A' for Active; 'I' for Inactive)
REMARK    1  A    between atoms: C_2  and  C_7
REMARK    2  A    between atoms: N_3  and  C_4
REMARK    3  A    between atoms: N_12  and  C_13
REMARK    4  A    between atoms: C_13  and  C_14
REMARK                            x       y       z     vdW  Elec       q    Type
REMARK                         _______ _______ _______ _____ _____    ______ ____
ROOT
ATOM      1  C   UNL     1       5.835   4.934  16.530  0.00  0.00    +0.000 C 
ATOM      2  C   UNL     1       4.892   3.716  16.523  0.00  0.00    +0.000 C 
ATOM      3  C   UNL     1       3.935   3.934  17.688  0.00  0.00    +0.000 C 
ATOM      4  C   UNL     1       2.607   4.590  17.294  0.00  0.00    +0.000 C 
ATOM      5  C   UNL     1       1.819   5.058  18.525  0.00  0.00    +0.000 C 
ATOM      6  N   UNL     1       2.564   6.028  19.341  0.00  0.00    +0.000 NA
ATOM      7  C   UNL     1       3.921   5.537  19.681  0.00  0.00    +0.000 C 
ATOM      8  C   UNL     1       4.748   4.846  18.577  0.00  0.00    +0.000 C 
ATOM      9  O   UNL     1       5.449   5.725  17.677  0.00  0.00    +0.000 OA
ENDROOT
BRANCH   1  11
ATOM     10  O   UNL     1       5.198   6.849  15.213  0.00  0.00    +0.000 OA
ATOM     11  C   UNL     1       5.653   5.688  15.223  0.00  0.00    +0.000 C 
ATOM     12  N   UNL     1       5.969   5.188  13.994  0.00  0.00    +0.000 N 
ATOM     13  H   UNL     1       5.811   5.848  13.239  0.00  0.00    +0.000 HD
BRANCH  12  14
ATOM     14  C   UNL     1       6.329   3.881  13.574  0.00  0.00    +0.000 C 
ATOM     15  C   UNL     1       5.667   3.145  12.449  0.00  0.00    +0.000 C 
ATOM     16  C   UNL     1       6.995   3.793  12.212  0.00  0.00    +0.000 C 
ENDBRANCH  12  14
ENDBRANCH   1  11
BRANCH   6  17
ATOM     17  C   UNL     1       1.859   6.336  20.610  0.00  0.00    +0.000 C 
BRANCH  17  18
ATOM     18  C   UNL     1       1.477   7.773  20.762  0.00  0.00    +0.000 A 
ATOM     19  C   UNL     1       1.009   8.445  21.928  0.00  0.00    +0.000 A 
ATOM     20  C   UNL     1       0.715   9.734  21.550  0.00  0.00    +0.000 A 
ATOM     21  O   UNL     1       0.969   9.910  20.229  0.00  0.00    +0.000 OA
ATOM     22  C   UNL     1       1.428   8.724  19.758  0.00  0.00    +0.000 A 
ENDBRANCH  17  18
ENDBRANCH   6  17
TORSDOF 4
ENDMDL
MODEL 9
REMARK VINA RESULT:      -6.5      4.079      5.712
REMARK  Name = 
REMARK  4 active torsions:
REMARK  status: ('A' for Active; 'I' for Inactive)
REMARK    1  A    between atoms: C_2  and  C_7
REMARK    2  A    between atoms: N_3  and  C_4
REMARK    3  A    between atoms: N_12  and  C_13
REMARK    4  A    between atoms: C_13  and  C_14
REMARK                            x       y       z     vdW  Elec       q    Type
REMARK                         _______ _______ _______ _____ _____    ______ ____
ROOT
ATOM      1  C   UNL     1       4.175   4.258  18.896  0.00  0.00    +0.000 C 
ATOM      2  C   UNL     1       3.387   4.752  17.667  0.00  0.00    +0.000 C 
ATOM      3  C   UNL     1       2.395   5.776  18.203  0.00  0.00    +0.000 C 
ATOM      4  C   UNL     1       2.878   7.227  18.106  0.00  0.00    +0.000 C 
ATOM      5  C   UNL     1       1.990   8.176  18.923  0.00  0.00    +0.000 C 
ATOM      6  N   UNL     1       1.942   7.821  20.349  0.00  0.00    +0.000 NA
ATOM      7  C   UNL     1       1.598   6.394  20.553  0.00  0.00    +0.000 C 
ATOM      8  C   UNL     1       2.266   5.341  19.645  0.00  0.00    +0.000 C 
ATOM      9  O   UNL     1       3.589   4.928  20.035  0.00  0.00    +0.000 OA
ENDROOT
BRANCH   1  11
ATOM     10  O   UNL     1       6.314   5.072  19.650  0.00  0.00    +0.000 OA
ATOM     11  C   UNL     1       5.639   4.620  18.704  0.00  0.00    +0.000 C 
ATOM     12  N   UNL     1       6.321   4.478  17.531  0.00  0.00    +0.000 N 
ATOM     13  H   UNL     1       7.300   4.740  17.602  0.00  0.00    +0.000 HD
BRANCH  12  14
ATOM     14  C   UNL     1       5.879   4.180  16.216  0.00  0.00    +0.000 C 
ATOM     15  C   UNL     1       5.655   5.209  15.149  0.00  0.00    +0.000 C 
ATOM     16  C   UNL     1       6.909   4.391  15.119  0.00  0.00    +0.000 C 
ENDBRANCH  12  14
ENDBRANCH   1  11
BRANCH   6  17
ATOM     17  C   UNL     1       0.949   8.641  21.088  0.00  0.00    +0.000 C 
BRANCH  17  18
ATOM     18  C   UNL     1       0.513   9.872  20.361  0.00  0.00    +0.000 A 
ATOM     19  C   UNL     1       1.118  11.162  20.365  0.00  0.00    +0.000 A 
ATOM     20  C   UNL     1       0.308  11.980  19.613  0.00  0.00    +0.000 A 
ATOM     21  O   UNL     1      -0.759  11.288  19.142  0.00  0.00    +0.000 OA
ATOM     22  C   UNL     1      -0.631  10.016  19.597  0.00  0.00    +0.000 A 
ENDBRANCH  17  18
ENDBRANCH   6  17
TORSDOF 4
ENDMDL
