MODEL 1
REMARK VINA RESULT:      -6.3      0.000      0.000
REMARK  Name = 
REMARK  5 active torsions:
REMARK  status: ('A' for Active; 'I' for Inactive)
REMARK    1  A    between atoms: C_1  and  N_2
REMARK    2  A    between atoms: N_2  and  C_3
REMARK    3  A    between atoms: N_2  and  S_4
REMARK    4  A    between atoms: S_4  and  C_7
REMARK    5  A    between atoms: C_10  and  N_11
REMARK                            x       y       z     vdW  Elec       q    Type
REMARK                         _______ _______ _______ _____ _____    ______ ____
ROOT
ATOM      1  C   UNL     1       4.618   4.972  17.155  0.00  0.00    +0.000 A 
ATOM      2  C   UNL     1       4.173   5.894  18.104  0.00  0.00    +0.000 A 
ATOM      3  C   UNL     1       3.327   5.470  19.128  0.00  0.00    +0.000 A 
ATOM      4  C   UNL     1       2.909   4.137  19.195  0.00  0.00    +0.000 A 
ATOM      5  C   UNL     1       3.366   3.219  18.241  0.00  0.00    +0.000 A 
ATOM      6  C   UNL     1       4.204   3.641  17.204  0.00  0.00    +0.000 A 
ENDROOT
BRANCH   4   7
ATOM      7  N   UNL     1       2.045   3.664  20.192  0.00  0.00    +0.000 N 
ATOM      8  C   UNL     1       2.396   2.950  21.300  0.00  0.00    +0.000 C 
ATOM      9  O   UNL     1       1.574   2.566  22.122  0.00  0.00    +0.000 OA
ATOM     10  H   UNL     1       1.066   3.922  20.160  0.00  0.00    +0.000 HD
ENDBRANCH   4   7
BRANCH   1  11
ATOM     11  S   UNL     1       5.725   5.513  15.866  0.00  0.00    +0.000 S 
ATOM     12  O   UNL     1       5.263   6.805  15.412  0.00  0.00    +0.000 OA
ATOM     13  O   UNL     1       5.884   4.405  14.948  0.00  0.00    +0.000 OA
BRANCH  11  15
ATOM     14  C   UNL     1       7.411   7.046  17.325  0.00  0.00    +0.000 C 
ATOM     15  N   UNL     1       7.191   5.725  16.711  0.00  0.00    +0.000 NA
ATOM     16  C   UNL     1       7.615   4.604  17.569  0.00  0.00    +0.000 C 
ENDBRANCH  11  15
ENDBRANCH   1  11
TORSDOF 3
ENDMDL
MODEL 2
REMARK VINA RESULT:      -6.3      0.079      1.253
REMARK  Name = 
REMARK  5 active torsions:
REMARK  status: ('A' for Active; 'I' for Inactive)
REMARK    1  A    between atoms: C_1  and  N_2
REMARK    2  A    between atoms: N_2  and  C_3
REMARK    3  A    between atoms: N_2  and  S_4
REMARK    4  A    between atoms: S_4  and  C_7
REMARK    5  A    between atoms: C_10  and  N_11
REMARK                            x       y       z     vdW  Elec       q    Type
REMARK                         _______ _______ _______ _____ _____    ______ ____
ROOT
ATOM      1  C   UNL     1       4.612   4.951  17.146  0.00  0.00    +0.000 A 
ATOM      2  C   UNL     1       4.204   3.616  17.133  0.00  0.00    +0.000 A 
ATOM      3  C   UNL     1       3.336   3.155  18.123  0.00  0.00    +0.000 A 
ATOM      4  C   UNL     1       2.892   4.015  19.133  0.00  0.00    +0.000 A 
ATOM      5  C   UNL     1       3.304   5.354  19.133  0.00  0.00    +0.000 A 
ATOM      6  C   UNL     1       4.184   5.819  18.151  0.00  0.00    +0.000 A 
ENDROOT
BRANCH   4   7
ATOM      7  N   UNL     1       2.035   3.596  20.159  0.00  0.00    +0.000 N 
ATOM      8  C   UNL     1       2.395   2.953  21.307  0.00  0.00    +0.000 C 
ATOM      9  O   UNL     1       1.578   2.613  22.153  0.00  0.00    +0.000 OA
ATOM     10  H   UNL     1       1.053   3.843  20.115  0.00  0.00    +0.000 HD
ENDBRANCH   4   7
BRANCH   1  11
ATOM     11  S   UNL     1       5.697   5.544  15.861  0.00  0.00    +0.000 S 
ATOM     12  O   UNL     1       5.221   6.847  15.458  0.00  0.00    +0.000 OA
ATOM     13  O   UNL     1       5.852   4.469  14.904  0.00  0.00    +0.000 OA
BRANCH  11  15
ATOM     14  C   UNL     1       7.397   7.042  17.340  0.00  0.00    +0.000 C 
ATOM     15  N   UNL     1       7.173   5.737  16.694  0.00  0.00    +0.000 NA
ATOM     16  C   UNL     1       7.610   4.595  17.516  0.00  0.00    +0.000 C 
ENDBRANCH  11  15
ENDBRANCH   1  11
TORSDOF 3
ENDMDL
MODEL 3
REMARK VINA RESULT:      -6.3      1.409      1.980
REMARK  Name = 
REMARK  5 active torsions:
REMARK  status: ('A' for Active; 'I' for Inactive)
REMARK    1  A    between atoms: C_1  and  N_2
REMARK    2  A    between atoms: N_2  and  C_3
REMARK    3  A    between atoms: N_2  and  S_4
REMARK    4  A    between atoms: S_4  and  C_7
REMARK    5  A    between atoms: C_10  and  N_11
REMARK                            x       y       z     vdW  Elec       q    Type
REMARK                         _______ _______ _______ _____ _____    ______ ____
ROOT
ATOM      1  C   UNL     1       5.408   4.124  17.438  0.00  0.00    +0.000 A 
ATOM      2  C   UNL     1       4.253   3.565  16.891  0.00  0.00    +0.000 A 
ATOM      3  C   UNL     1       3.229   3.139  17.738  0.00  0.00    +0.000 A 
ATOM      4  C   UNL     1       3.365   3.251  19.125  0.00  0.00    +0.000 A 
ATOM      5  C   UNL     1       4.527   3.819  19.664  0.00  0.00    +0.000 A 
ATOM      6  C   UNL     1       5.562   4.236  18.821  0.00  0.00    +0.000 A 
ENDROOT
BRANCH   4   7
ATOM      7  N   UNL     1       2.375   2.822  20.019  0.00  0.00    +0.000 N 
ATOM      8  C   UNL     1       2.361   3.012  21.369  0.00  0.00    +0.000 C 
ATOM      9  O   UNL     1       1.458   2.595  22.083  0.00  0.00    +0.000 OA
ATOM     10  H   UNL     1       1.535   2.388  19.655  0.00  0.00    +0.000 HD
ENDBRANCH   4   7
BRANCH   1  11
ATOM     11  S   UNL     1       6.700   4.695  16.350  0.00  0.00    +0.000 S 
ATOM     12  O   UNL     1       6.396   4.211  15.024  0.00  0.00    +0.000 OA
ATOM     13  O   UNL     1       7.962   4.393  16.991  0.00  0.00    +0.000 OA
BRANCH  11  15
ATOM     14  C   UNL     1       5.090   6.868  16.249  0.00  0.00    +0.000 C 
ATOM     15  N   UNL     1       6.476   6.386  16.377  0.00  0.00    +0.000 NA
ATOM     16  C   UNL     1       7.263   7.131  17.375  0.00  0.00    +0.000 C 
ENDBRANCH  11  15
ENDBRANCH   1  11
TORSDOF 3
ENDMDL
MODEL 4
REMARK VINA RESULT:      -6.2      2.681      6.039
REMARK  Name = 
REMARK  5 active torsions:
REMARK  status: ('A' for Active; 'I' for Inactive)
REMARK    1  A    between atoms: C_1  and  N_2
REMARK    2  A    between atoms: N_2  and  C_3
REMARK    3  A    between atoms: N_2  and  S_4
REMARK    4  A    between atoms: S_4  and  C_7
REMARK    5  A    between atoms: C_10  and  N_11
REMARK                            x       y       z     vdW  Elec       q    Type
REMARK                         _______ _______ _______ _____ _____    ______ ____
ROOT
ATOM      1  C   UNL     1       3.722   4.846  17.407  0.00  0.00    +0.000 A 
ATOM      2  C   UNL     1       4.372   3.770  16.801  0.00  0.00    +0.000 A 
ATOM      3  C   UNL     1       5.548   3.993  16.086  0.00  0.00    +0.000 A 
ATOM      4  C   UNL     1       6.065   5.287  15.957  0.00  0.00    +0.000 A 
ATOM      5  C   UNL     1       5.406   6.359  16.572  0.00  0.00    +0.000 A 
ATOM      6  C   UNL     1       4.220   6.144  17.280  0.00  0.00    +0.000 A 
ENDROOT
BRANCH   4   7
ATOM      7  N   UNL     1       7.232   5.566  15.234  0.00  0.00    +0.000 N 
ATOM      8  C   UNL     1       7.436   5.348  13.903  0.00  0.00    +0.000 C 
ATOM      9  O   UNL     1       8.494   5.614  13.348  0.00  0.00    +0.000 OA
ATOM     10  H   UNL     1       7.996   6.046  15.696  0.00  0.00    +0.000 HD
ENDBRANCH   4   7
BRANCH   1  11
ATOM     11  S   UNL     1       2.236   4.551  18.346  0.00  0.00    +0.000 S 
ATOM     12  O   UNL     1       1.168   4.310  17.403  0.00  0.00    +0.000 OA
ATOM     13  O   UNL     1       2.141   5.602  19.337  0.00  0.00    +0.000 OA
BRANCH  11  15
ATOM     14  C   UNL     1       2.983   3.193  20.563  0.00  0.00    +0.000 C 
ATOM     15  N   UNL     1       2.596   3.089  19.146  0.00  0.00    +0.000 NA
ATOM     16  C   UNL     1       1.696   1.956  18.867  0.00  0.00    +0.000 C 
ENDBRANCH  11  15
ENDBRANCH   1  11
TORSDOF 3
ENDMDL
MODEL 5
REMARK VINA RESULT:      -6.1      1.848      2.089
REMARK  Name = 
REMARK  5 active torsions:
REMARK  status: ('A' for Active; 'I' for Inactive)
REMARK    1  A    between atoms: C_1  and  N_2
REMARK    2  A    between atoms: N_2  and  C_3
REMARK    3  A    between atoms: N_2  and  S_4
REMARK    4  A    between atoms: S_4  and  C_7
REMARK    5  A    between atoms: C_10  and  N_11
REMARK                            x       y       z     vdW  Elec       q    Type
REMARK                         _______ _______ _______ _____ _____    ______ ____
ROOT
ATOM      1  C   UNL     1       5.394   4.947  17.214  0.00  0.00    +0.000 A 
ATOM      2  C   UNL     1       4.552   5.818  17.907  0.00  0.00    +0.000 A 
ATOM      3  C   UNL     1       3.257   5.411  18.226  0.00  0.00    +0.000 A 
ATOM      4  C   UNL     1       2.795   4.149  17.838  0.00  0.00    +0.000 A 
ATOM      5  C   UNL     1       3.650   3.281  17.146  0.00  0.00    +0.000 A 
ATOM      6  C   UNL     1       4.946   3.688  16.813  0.00  0.00    +0.000 A 
ENDROOT
BRANCH   4   7
ATOM      7  N   UNL     1       1.497   3.700  18.117  0.00  0.00    +0.000 N 
ATOM      8  C   UNL     1       1.154   2.510  18.687  0.00  0.00    +0.000 C 
ATOM      9  O   UNL     1      -0.010   2.189  18.890  0.00  0.00    +0.000 OA
ATOM     10  H   UNL     1       0.714   4.324  17.960  0.00  0.00    +0.000 HD
ENDBRANCH   4   7
BRANCH   1  11
ATOM     11  S   UNL     1       7.060   5.459  16.836  0.00  0.00    +0.000 S 
ATOM     12  O   UNL     1       7.029   6.120  15.552  0.00  0.00    +0.000 OA
ATOM     13  O   UNL     1       7.922   4.322  17.077  0.00  0.00    +0.000 OA
BRANCH  11  15
ATOM     14  C   UNL     1       8.075   6.163  19.243  0.00  0.00    +0.000 C 
ATOM     15  N   UNL     1       7.362   6.627  18.041  0.00  0.00    +0.000 NA
ATOM     16  C   UNL     1       7.812   7.948  17.569  0.00  0.00    +0.000 C 
ENDBRANCH  11  15
ENDBRANCH   1  11
TORSDOF 3
ENDMDL
MODEL 6
REMARK VINA RESULT:      -6.1      1.065      1.801
REMARK  Name = 
REMARK  5 active torsions:
REMARK  status: ('A' for Active; 'I' for Inactive)
REMARK    1  A    between atoms: C_1  and  N_2
REMARK    2  A    between atoms: N_2  and  C_3
REMARK    3  A    between atoms: N_2  and  S_4
REMARK    4  A    between atoms: S_4  and  C_7
REMARK    5  A    between atoms: C_10  and  N_11
REMARK                            x       y       z     vdW  Elec       q    Type
REMARK                         _______ _______ _______ _____ _____    ______ ____
ROOT
ATOM      1  C   UNL     1       4.739   5.457  17.633  0.00  0.00    +0.000 A 
ATOM      2  C   UNL     1       4.061   4.363  17.094  0.00  0.00    +0.000 A 
ATOM      3  C   UNL     1       3.177   3.641  17.895  0.00  0.00    +0.000 A 
ATOM      4  C   UNL     1       2.984   3.995  19.234  0.00  0.00    +0.000 A 
ATOM      5  C   UNL     1       3.666   5.098  19.764  0.00  0.00    +0.000 A 
ATOM      6  C   UNL     1       4.563   5.818  18.970  0.00  0.00    +0.000 A 
ENDROOT
BRANCH   4   7
ATOM      7  N   UNL     1       2.121   3.291  20.085  0.00  0.00    +0.000 N 
ATOM      8  C   UNL     1       2.289   3.085  21.423  0.00  0.00    +0.000 C 
ATOM      9  O   UNL     1       1.488   2.448  22.096  0.00  0.00    +0.000 OA
ATOM     10  H   UNL     1       1.239   2.950  19.723  0.00  0.00    +0.000 HD
ENDBRANCH   4   7
BRANCH   1  11
ATOM     11  S   UNL     1       5.845   6.396  16.596  0.00  0.00    +0.000 S 
ATOM     12  O   UNL     1       6.362   7.486  17.390  0.00  0.00    +0.000 OA
ATOM     13  O   UNL     1       5.157   6.635  15.345  0.00  0.00    +0.000 OA
BRANCH  11  15
ATOM     14  C   UNL     1       7.608   4.544  17.483  0.00  0.00    +0.000 C 
ATOM     15  N   UNL     1       7.106   5.284  16.312  0.00  0.00    +0.000 NA
ATOM     16  C   UNL     1       6.977   4.449  15.105  0.00  0.00    +0.000 C 
ENDBRANCH  11  15
ENDBRANCH   1  11
TORSDOF 3
ENDMDL
MODEL 7
REMARK VINA RESULT:      -6.1      2.421      6.008
REMARK  Name = 
REMARK  5 active torsions:
REMARK  status: ('A' for Active; 'I' for Inactive)
REMARK    1  A    between atoms: C_1  and  N_2
REMARK    2  A    between atoms: N_2  and  C_3
REMARK    3  A    between atoms: N_2  and  S_4
REMARK    4  A    between atoms: S_4  and  C_7
REMARK    5  A    between atoms: C_10  and  N_11
REMARK                            x       y       z     vdW  Elec       q    Type
REMARK                         _______ _______ _______ _____ _____    ______ ____
ROOT
ATOM      1  C   UNL     1       4.734   3.680  18.265  0.00  0.00    +0.000 A 
ATOM      2  C   UNL     1       4.360   3.608  16.922  0.00  0.00    +0.000 A 
ATOM      3  C   UNL     1       5.156   4.221  15.955  0.00  0.00    +0.000 A 
ATOM      4  C   UNL     1       6.308   4.922  16.325  0.00  0.00    +0.000 A 
ATOM      5  C   UNL     1       6.676   4.984  17.675  0.00  0.00    +0.000 A 
ATOM      6  C   UNL     1       5.876   4.382  18.651  0.00  0.00    +0.000 A 
ENDROOT
BRANCH   4   7
ATOM      7  N   UNL     1       7.130   5.570  15.395  0.00  0.00    +0.000 N 
ATOM      8  C   UNL     1       7.473   5.115  14.156  0.00  0.00    +0.000 C 
ATOM      9  O   UNL     1       8.208   5.743  13.404  0.00  0.00    +0.000 OA
ATOM     10  H   UNL     1       7.463   6.506  15.597  0.00  0.00    +0.000 HD
ENDBRANCH   4   7
BRANCH   1  11
ATOM     11  S   UNL     1       3.731   2.867  19.495  0.00  0.00    +0.000 S 
ATOM     12  O   UNL     1       4.626   2.229  20.431  0.00  0.00    +0.000 OA
ATOM     13  O   UNL     1       2.717   2.114  18.788  0.00  0.00    +0.000 OA
BRANCH  11  15
ATOM     14  C   UNL     1       2.315   5.172  19.405  0.00  0.00    +0.000 C 
ATOM     15  N   UNL     1       2.976   4.184  20.274  0.00  0.00    +0.000 NA
ATOM     16  C   UNL     1       2.205   3.866  21.488  0.00  0.00    +0.000 C 
ENDBRANCH  11  15
ENDBRANCH   1  11
TORSDOF 3
ENDMDL
MODEL 8
REMARK VINA RESULT:      -6.1      2.615      6.118
REMARK  Name = 
REMARK  5 active torsions:
REMARK  status: ('A' for Active; 'I' for Inactive)
REMARK    1  A    between atoms: C_1  and  N_2
REMARK    2  A    between atoms: N_2  and  C_3
REMARK    3  A    between atoms: N_2  and  S_4
REMARK    4  A    between atoms: S_4  and  C_7
REMARK    5  A    between atoms: C_10  and  N_11
REMARK                            x       y       z     vdW  Elec       q    Type
REMARK                         _______ _______ _______ _____ _____    ______ ____
ROOT
ATOM      1  C   UNL     1       5.170   4.251  17.969  0.00  0.00    +0.000 A 
ATOM      2  C   UNL     1       6.318   4.986  18.271  0.00  0.00    +0.000 A 
ATOM      3  C   UNL     1       7.162   5.394  17.239  0.00  0.00    +0.000 A 
ATOM      4  C   UNL     1       6.877   5.053  15.913  0.00  0.00    +0.000 A 
ATOM      5  C   UNL     1       5.721   4.318  15.620  0.00  0.00    +0.000 A 
ATOM      6  C   UNL     1       4.876   3.896  16.652  0.00  0.00    +0.000 A 
ENDROOT
BRANCH   4   7
ATOM      7  N   UNL     1       7.703   5.422  14.843  0.00  0.00    +0.000 N 
ATOM      8  C   UNL     1       7.440   5.248  13.516  0.00  0.00    +0.000 C 
ATOM      9  O   UNL     1       8.223   5.593  12.640  0.00  0.00    +0.000 OA
ATOM     10  H   UNL     1       8.555   5.937  15.031  0.00  0.00    +0.000 HD
ENDBRANCH   4   7
BRANCH   1  11
ATOM     11  S   UNL     1       4.077   3.759  19.288  0.00  0.00    +0.000 S 
ATOM     12  O   UNL     1       3.689   4.955  19.999  0.00  0.00    +0.000 OA
ATOM     13  O   UNL     1       4.705   2.647  19.971  0.00  0.00    +0.000 OA
BRANCH  11  15
ATOM     14  C   UNL     1       2.217   1.845  18.837  0.00  0.00    +0.000 C 
ATOM     15  N   UNL     1       2.723   3.169  18.435  0.00  0.00    +0.000 NA
ATOM     16  C   UNL     1       1.653   4.144  18.160  0.00  0.00    +0.000 C 
ENDBRANCH  11  15
ENDBRANCH   1  11
TORSDOF 3
ENDMDL
MODEL 9
REMARK VINA RESULT:      -6.1      2.635      6.217
REMARK  Name = 
REMARK  5 active torsions:
REMARK  status: ('A' for Active; 'I' for Inactive)
REMARK    1  A    between atoms: C_1  and  N_2
REMARK    2  A    between atoms: N_2  and  C_3
REMARK    3  A    between atoms: N_2  and  S_4
REMARK    4  A    between atoms: S_4  and  C_7
REMARK    5  A    between atoms: C_10  and  N_11
REMARK                            x       y       z     vdW  Elec       q    Type
REMARK                         _______ _______ _______ _____ _____    ______ ____
ROOT
ATOM      1  C   UNL     1       5.194   4.307  17.955  0.00  0.00    +0.000 A 
ATOM      2  C   UNL     1       4.866   3.922  16.655  0.00  0.00    +0.000 A 
ATOM      3  C   UNL     1       5.690   4.306  15.597  0.00  0.00    +0.000 A 
ATOM      4  C   UNL     1       6.825   5.089  15.832  0.00  0.00    +0.000 A 
ATOM      5  C   UNL     1       7.146   5.468  17.142  0.00  0.00    +0.000 A 
ATOM      6  C   UNL     1       6.318   5.096  18.205  0.00  0.00    +0.000 A 
ENDROOT
BRANCH   4   7
ATOM      7  N   UNL     1       7.674   5.517  14.803  0.00  0.00    +0.000 N 
ATOM      8  C   UNL     1       7.522   5.274  13.469  0.00  0.00    +0.000 C 
ATOM      9  O   UNL     1       8.318   5.679  12.632  0.00  0.00    +0.000 OA
ATOM     10  H   UNL     1       8.448   6.132  15.024  0.00  0.00    +0.000 HD
ENDBRANCH   4   7
BRANCH   1  11
ATOM     11  S   UNL     1       4.154   3.788  19.307  0.00  0.00    +0.000 S 
ATOM     12  O   UNL     1       3.771   4.972  20.040  0.00  0.00    +0.000 OA
ATOM     13  O   UNL     1       4.824   2.682  19.960  0.00  0.00    +0.000 OA
BRANCH  11  15
ATOM     14  C   UNL     1       2.504   1.744  18.657  0.00  0.00    +0.000 C 
ATOM     15  N   UNL     1       2.781   3.182  18.497  0.00  0.00    +0.000 NA
ATOM     16  C   UNL     1       1.571   4.020  18.552  0.00  0.00    +0.000 C 
ENDBRANCH  11  15
ENDBRANCH   1  11
TORSDOF 3
ENDMDL
