MODEL 1
REMARK VINA RESULT:      -9.6      0.000      0.000
REMARK  Name = 
REMARK  7 active torsions:
REMARK  status: ('A' for Active; 'I' for Inactive)
REMARK    1  A    between atoms: S_2  and  N_4
REMARK    2  A    between atoms: S_2  and  C_23
REMARK    3  A    between atoms: N_4  and  C_5
REMARK    4  A    between atoms: C_5  and  C_6
REMARK    5  A    between atoms: C_6  and  C_7
REMARK    6  A    between atoms: C_6  and  N_16
REMARK    7  A    between atoms: C_26  and  C_27
REMARK                            x       y       z     vdW  Elec       q    Type
REMARK                         _______ _______ _______ _____ _____    ______ ____
ROOT
ATOM      1  C   UNL     1       2.851   6.562  19.402  0.00  0.00    +0.000 C 
ENDROOT
BRANCH   1   2
ATOM      2  C   UNL     1       2.190   7.923  19.131  0.00  0.00    +0.000 A 
ATOM      3  C   UNL     1       2.256   8.629  17.919  0.00  0.00    +0.000 A 
ATOM      4  C   UNL     1       1.589   9.868  17.753  0.00  0.00    +0.000 A 
ATOM      5  C   UNL     1       0.872  10.449  18.799  0.00  0.00    +0.000 A 
ATOM      6  C   UNL     1       0.868   9.786  20.001  0.00  0.00    +0.000 A 
ATOM      7  C   UNL     1       1.504   8.571  20.165  0.00  0.00    +0.000 A 
ATOM      8  O   UNL     1       1.383   8.120  21.451  0.00  0.00    +0.000 OA
ATOM      9  C   UNL     1       0.736   9.249  22.082  0.00  0.00    +0.000 C 
ATOM     10  O   UNL     1       0.272  10.231  21.141  0.00  0.00    +0.000 OA
ENDBRANCH   1   2
BRANCH   1  11
ATOM     11  N   UNL     1       1.989   5.318  19.683  0.00  0.00    +0.000 NA
ATOM     12  C   UNL     1       2.176   4.359  18.557  0.00  0.00    +0.000 C 
ATOM     13  C   UNL     1       1.195   3.188  18.382  0.00  0.00    +0.000 C 
ATOM     14  C   UNL     1       1.406   1.998  19.300  0.00  0.00    +0.000 C 
ATOM     15  C   UNL     1       1.249   2.372  20.761  0.00  0.00    +0.000 C 
ATOM     16  C   UNL     1       2.424   3.212  21.232  0.00  0.00    +0.000 C 
ATOM     17  C   UNL     1       2.309   4.728  21.006  0.00  0.00    +0.000 C 
ENDBRANCH   1  11
BRANCH   1  18
ATOM     18  C   UNL     1       3.958   6.325  18.324  0.00  0.00    +0.000 C 
BRANCH  18  19
ATOM     19  N   UNL     1       4.926   5.261  18.668  0.00  0.00    +0.000 NA
ATOM     20  H   UNL     1       4.906   4.914  19.628  0.00  0.00    +0.000 HD
BRANCH  19  22
ATOM     21  O   UNL     1       6.799   6.873  18.068  0.00  0.00    +0.000 OA
ATOM     22  S   UNL     1       6.496   5.463  18.047  0.00  0.00    +0.000 S 
ATOM     23  O   UNL     1       7.346   4.478  18.666  0.00  0.00    +0.000 OA
BRANCH  22  24
ATOM     24  C   UNL     1       6.263   4.995  16.342  0.00  0.00    +0.000 A 
ATOM     25  C   UNL     1       5.176   4.182  16.014  0.00  0.00    +0.000 A 
ATOM     26  C   UNL     1       5.058   3.676  14.717  0.00  0.00    +0.000 A 
ATOM     27  C   UNL     1       6.026   3.990  13.744  0.00  0.00    +0.000 A 
ATOM     28  C   UNL     1       7.094   4.838  14.082  0.00  0.00    +0.000 A 
ATOM     29  C   UNL     1       7.215   5.345  15.381  0.00  0.00    +0.000 A 
BRANCH  27  30
ATOM     30  C   UNL     1       5.928   3.418  12.348  0.00  0.00    +0.000 C 
ATOM     31  F   UNL     1       4.742   3.688  11.733  0.00  0.00    +0.000 F 
ATOM     32  F   UNL     1       6.898   3.891  11.519  0.00  0.00    +0.000 F 
ATOM     33  F   UNL     1       6.049   2.062  12.337  0.00  0.00    +0.000 F 
ENDBRANCH  27  30
ENDBRANCH  22  24
ENDBRANCH  19  22
ENDBRANCH  18  19
ENDBRANCH   1  18
TORSDOF 7
ENDMDL
MODEL 2
REMARK VINA RESULT:      -9.5      0.264      1.113
REMARK  Name = 
REMARK  7 active torsions:
REMARK  status: ('A' for Active; 'I' for Inactive)
REMARK    1  A    between atoms: S_2  and  N_4
REMARK    2  A    between atoms: S_2  and  C_23
REMARK    3  A    between atoms: N_4  and  C_5
REMARK    4  A    between atoms: C_5  and  C_6
REMARK    5  A    between atoms: C_6  and  C_7
REMARK    6  A    between atoms: C_6  and  N_16
REMARK    7  A    between atoms: C_26  and  C_27
REMARK                            x       y       z     vdW  Elec       q    Type
REMARK                         _______ _______ _______ _____ _____    ______ ____
ROOT
ATOM      1  C   UNL     1       2.958   6.556  19.290  0.00  0.00    +0.000 C 
ENDROOT
BRANCH   1   2
ATOM      2  C   UNL     1       2.316   7.923  19.009  0.00  0.00    +0.000 A 
ATOM      3  C   UNL     1       2.326   8.584  17.769  0.00  0.00    +0.000 A 
ATOM      4  C   UNL     1       1.681   9.833  17.597  0.00  0.00    +0.000 A 
ATOM      5  C   UNL     1       1.044  10.470  18.661  0.00  0.00    +0.000 A 
ATOM      6  C   UNL     1       1.096   9.851  19.885  0.00  0.00    +0.000 A 
ATOM      7  C   UNL     1       1.710   8.626  20.056  0.00  0.00    +0.000 A 
ATOM      8  O   UNL     1       1.656   8.226  21.363  0.00  0.00    +0.000 OA
ATOM      9  C   UNL     1       1.077   9.393  21.989  0.00  0.00    +0.000 C 
ATOM     10  O   UNL     1       0.581  10.353  21.042  0.00  0.00    +0.000 OA
ENDBRANCH   1   2
BRANCH   1  11
ATOM     11  N   UNL     1       2.079   5.311  19.508  0.00  0.00    +0.000 NA
ATOM     12  C   UNL     1       2.259   4.405  18.338  0.00  0.00    +0.000 C 
ATOM     13  C   UNL     1       1.265   3.256  18.103  0.00  0.00    +0.000 C 
ATOM     14  C   UNL     1       1.456   2.021  18.964  0.00  0.00    +0.000 C 
ATOM     15  C   UNL     1       1.297   2.327  20.440  0.00  0.00    +0.000 C 
ATOM     16  C   UNL     1       2.480   3.128  20.956  0.00  0.00    +0.000 C 
ATOM     17  C   UNL     1       2.386   4.654  20.802  0.00  0.00    +0.000 C 
ENDBRANCH   1  11
BRANCH   1  18
ATOM     18  C   UNL     1       4.117   6.332  18.265  0.00  0.00    +0.000 C 
BRANCH  18  19
ATOM     19  N   UNL     1       5.116   5.325  18.685  0.00  0.00    +0.000 NA
ATOM     20  H   UNL     1       5.101   5.043  19.666  0.00  0.00    +0.000 HD
BRANCH  19  22
ATOM     21  O   UNL     1       6.898   6.948  17.874  0.00  0.00    +0.000 OA
ATOM     22  S   UNL     1       6.683   5.534  18.058  0.00  0.00    +0.000 S 
ATOM     23  O   UNL     1       7.579   4.706  18.824  0.00  0.00    +0.000 OA
BRANCH  22  24
ATOM     24  C   UNL     1       6.514   4.807  16.438  0.00  0.00    +0.000 A 
ATOM     25  C   UNL     1       7.331   5.276  15.406  0.00  0.00    +0.000 A 
ATOM     26  C   UNL     1       7.113   4.835  14.098  0.00  0.00    +0.000 A 
ATOM     27  C   UNL     1       6.082   3.917  13.823  0.00  0.00    +0.000 A 
ATOM     28  C   UNL     1       5.293   3.429  14.878  0.00  0.00    +0.000 A 
ATOM     29  C   UNL     1       5.507   3.870  16.189  0.00  0.00    +0.000 A 
BRANCH  27  30
ATOM     30  C   UNL     1       5.815   3.462  12.407  0.00  0.00    +0.000 C 
ATOM     31  F   UNL     1       6.701   3.959  11.500  0.00  0.00    +0.000 F 
ATOM     32  F   UNL     1       5.860   2.108  12.274  0.00  0.00    +0.000 F 
ATOM     33  F   UNL     1       4.583   3.843  11.967  0.00  0.00    +0.000 F 
ENDBRANCH  27  30
ENDBRANCH  22  24
ENDBRANCH  19  22
ENDBRANCH  18  19
ENDBRANCH   1  18
TORSDOF 7
ENDMDL
MODEL 3
REMARK VINA RESULT:      -9.4      1.523      4.455
REMARK  Name = 
REMARK  7 active torsions:
REMARK  status: ('A' for Active; 'I' for Inactive)
REMARK    1  A    between atoms: S_2  and  N_4
REMARK    2  A    between atoms: S_2  and  C_23
REMARK    3  A    between atoms: N_4  and  C_5
REMARK    4  A    between atoms: C_5  and  C_6
REMARK    5  A    between atoms: C_6  and  C_7
REMARK    6  A    between atoms: C_6  and  N_16
REMARK    7  A    between atoms: C_26  and  C_27
REMARK                            x       y       z     vdW  Elec       q    Type
REMARK                         _______ _______ _______ _____ _____    ______ ____
ROOT
ATOM      1  C   UNL     1       3.136   5.859  18.273  0.00  0.00    +0.000 C 
ENDROOT
BRANCH   1   2
ATOM      2  C   UNL     1       2.754   4.377  18.409  0.00  0.00    +0.000 A 
ATOM      3  C   UNL     1       2.569   3.486  17.339  0.00  0.00    +0.000 A 
ATOM      4  C   UNL     1       2.244   2.125  17.564  0.00  0.00    +0.000 A 
ATOM      5  C   UNL     1       2.059   1.630  18.855  0.00  0.00    +0.000 A 
ATOM      6  C   UNL     1       2.174   2.522  19.891  0.00  0.00    +0.000 A 
ATOM      7  C   UNL     1       2.506   3.846  19.680  0.00  0.00    +0.000 A 
ATOM      8  O   UNL     1       2.536   4.541  20.857  0.00  0.00    +0.000 OA
ATOM      9  C   UNL     1       2.050   3.542  21.783  0.00  0.00    +0.000 C 
ATOM     10  O   UNL     1       1.972   2.229  21.205  0.00  0.00    +0.000 OA
ENDBRANCH   1   2
BRANCH   1  11
ATOM     11  N   UNL     1       2.099   6.960  18.559  0.00  0.00    +0.000 NA
ATOM     12  C   UNL     1       2.293   7.428  19.962  0.00  0.00    +0.000 C 
ATOM     13  C   UNL     1       1.202   8.269  20.643  0.00  0.00    +0.000 C 
ATOM     14  C   UNL     1       1.156   9.737  20.265  0.00  0.00    +0.000 C 
ATOM     15  C   UNL     1       0.881   9.936  18.788  0.00  0.00    +0.000 C 
ATOM     16  C   UNL     1       2.090   9.541  17.956  0.00  0.00    +0.000 C 
ATOM     17  C   UNL     1       2.191   8.058  17.566  0.00  0.00    +0.000 C 
ENDBRANCH   1  11
BRANCH   1  18
ATOM     18  C   UNL     1       4.505   6.087  18.991  0.00  0.00    +0.000 C 
BRANCH  18  19
ATOM     19  N   UNL     1       5.475   4.983  18.821  0.00  0.00    +0.000 NA
ATOM     20  H   UNL     1       5.599   4.353  19.615  0.00  0.00    +0.000 HD
BRANCH  19  22
ATOM     21  O   UNL     1       7.056   6.828  18.072  0.00  0.00    +0.000 OA
ATOM     22  S   UNL     1       6.928   5.391  18.040  0.00  0.00    +0.000 S 
ATOM     23  O   UNL     1       7.957   4.510  18.530  0.00  0.00    +0.000 OA
BRANCH  22  24
ATOM     24  C   UNL     1       6.566   4.928  16.356  0.00  0.00    +0.000 A 
ATOM     25  C   UNL     1       5.654   3.894  16.129  0.00  0.00    +0.000 A 
ATOM     26  C   UNL     1       5.469   3.409  14.831  0.00  0.00    +0.000 A 
ATOM     27  C   UNL     1       6.191   3.965  13.758  0.00  0.00    +0.000 A 
ATOM     28  C   UNL     1       7.077   5.028  14.000  0.00  0.00    +0.000 A 
ATOM     29  C   UNL     1       7.266   5.515  15.299  0.00  0.00    +0.000 A 
BRANCH  27  30
ATOM     30  C   UNL     1       6.026   3.424  12.357  0.00  0.00    +0.000 C 
ATOM     31  F   UNL     1       6.987   3.853  11.492  0.00  0.00    +0.000 F 
ATOM     32  F   UNL     1       6.058   2.064  12.312  0.00  0.00    +0.000 F 
ATOM     33  F   UNL     1       4.838   3.791  11.799  0.00  0.00    +0.000 F 
ENDBRANCH  27  30
ENDBRANCH  22  24
ENDBRANCH  19  22
ENDBRANCH  18  19
ENDBRANCH   1  18
TORSDOF 7
ENDMDL
MODEL 4
REMARK VINA RESULT:      -9.3      1.961      4.896
REMARK  Name = 
REMARK  7 active torsions:
REMARK  status: ('A' for Active; 'I' for Inactive)
REMARK    1  A    between atoms: S_2  and  N_4
REMARK    2  A    between atoms: S_2  and  C_23
REMARK    3  A    between atoms: N_4  and  C_5
REMARK    4  A    between atoms: C_5  and  C_6
REMARK    5  A    between atoms: C_6  and  C_7
REMARK    6  A    between atoms: C_6  and  N_16
REMARK    7  A    between atoms: C_26  and  C_27
REMARK                            x       y       z     vdW  Elec       q    Type
REMARK                         _______ _______ _______ _____ _____    ______ ____
ROOT
ATOM      1  C   UNL     1       2.667   6.220  18.835  0.00  0.00    +0.000 C 
ENDROOT
BRANCH   1   2
ATOM      2  C   UNL     1       2.375   4.934  19.623  0.00  0.00    +0.000 A 
ATOM      3  C   UNL     1       2.195   4.859  21.014  0.00  0.00    +0.000 A 
ATOM      4  C   UNL     1       1.901   3.629  21.652  0.00  0.00    +0.000 A 
ATOM      5  C   UNL     1       1.816   2.441  20.926  0.00  0.00    +0.000 A 
ATOM      6  C   UNL     1       2.060   2.511  19.578  0.00  0.00    +0.000 A 
ATOM      7  C   UNL     1       2.332   3.709  18.948  0.00  0.00    +0.000 A 
ATOM      8  O   UNL     1       2.565   3.523  17.613  0.00  0.00    +0.000 OA
ATOM      9  C   UNL     1       2.548   2.080  17.525  0.00  0.00    +0.000 C 
ATOM     10  O   UNL     1       2.077   1.448  18.726  0.00  0.00    +0.000 OA
ENDBRANCH   1   2
BRANCH   1  11
ATOM     11  N   UNL     1       1.702   7.418  18.911  0.00  0.00    +0.000 NA
ATOM     12  C   UNL     1       1.817   8.022  20.269  0.00  0.00    +0.000 C 
ATOM     13  C   UNL     1       0.745   9.008  20.759  0.00  0.00    +0.000 C 
ATOM     14  C   UNL     1       0.849  10.425  20.228  0.00  0.00    +0.000 C 
ATOM     15  C   UNL     1       0.713  10.479  18.719  0.00  0.00    +0.000 C 
ATOM     16  C   UNL     1       1.950   9.910  18.045  0.00  0.00    +0.000 C 
ATOM     17  C   UNL     1       1.963   8.390  17.822  0.00  0.00    +0.000 C 
ENDBRANCH   1  11
BRANCH   1  18
ATOM     18  C   UNL     1       4.165   6.609  19.057  0.00  0.00    +0.000 C 
BRANCH  18  19
ATOM     19  N   UNL     1       5.016   6.471  17.855  0.00  0.00    +0.000 NA
ATOM     20  H   UNL     1       4.537   6.439  16.954  0.00  0.00    +0.000 HD
BRANCH  19  22
ATOM     21  O   UNL     1       7.509   6.128  18.215  0.00  0.00    +0.000 OA
ATOM     22  S   UNL     1       6.304   5.370  17.985  0.00  0.00    +0.000 S 
ATOM     23  O   UNL     1       5.884   4.298  18.852  0.00  0.00    +0.000 OA
BRANCH  22  24
ATOM     24  C   UNL     1       6.388   4.730  16.322  0.00  0.00    +0.000 A 
ATOM     25  C   UNL     1       7.434   5.150  15.497  0.00  0.00    +0.000 A 
ATOM     26  C   UNL     1       7.438   4.786  14.147  0.00  0.00    +0.000 A 
ATOM     27  C   UNL     1       6.397   3.995  13.625  0.00  0.00    +0.000 A 
ATOM     28  C   UNL     1       5.372   3.552  14.477  0.00  0.00    +0.000 A 
ATOM     29  C   UNL     1       5.366   3.916  15.829  0.00  0.00    +0.000 A 
BRANCH  27  30
ATOM     30  C   UNL     1       6.372   3.627  12.159  0.00  0.00    +0.000 C 
ATOM     31  F   UNL     1       6.889   2.393  11.900  0.00  0.00    +0.000 F 
ATOM     32  F   UNL     1       5.114   3.624  11.641  0.00  0.00    +0.000 F 
ATOM     33  F   UNL     1       7.092   4.496  11.397  0.00  0.00    +0.000 F 
ENDBRANCH  27  30
ENDBRANCH  22  24
ENDBRANCH  19  22
ENDBRANCH  18  19
ENDBRANCH   1  18
TORSDOF 7
ENDMDL
MODEL 5
REMARK VINA RESULT:      -9.2      1.476      4.479
REMARK  Name = 
REMARK  7 active torsions:
REMARK  status: ('A' for Active; 'I' for Inactive)
REMARK    1  A    between atoms: S_2  and  N_4
REMARK    2  A    between atoms: S_2  and  C_23
REMARK    3  A    between atoms: N_4  and  C_5
REMARK    4  A    between atoms: C_5  and  C_6
REMARK    5  A    between atoms: C_6  and  C_7
REMARK    6  A    between atoms: C_6  and  N_16
REMARK    7  A    between atoms: C_26  and  C_27
REMARK                            x       y       z     vdW  Elec       q    Type
REMARK                         _______ _______ _______ _____ _____    ______ ____
ROOT
ATOM      1  C   UNL     1       2.900   6.132  18.060  0.00  0.00    +0.000 C 
ENDROOT
BRANCH   1   2
ATOM      2  C   UNL     1       2.690   4.626  18.281  0.00  0.00    +0.000 A 
ATOM      3  C   UNL     1       2.506   3.676  17.263  0.00  0.00    +0.000 A 
ATOM      4  C   UNL     1       2.348   2.300  17.563  0.00  0.00    +0.000 A 
ATOM      5  C   UNL     1       2.331   1.844  18.881  0.00  0.00    +0.000 A 
ATOM      6  C   UNL     1       2.443   2.787  19.872  0.00  0.00    +0.000 A 
ATOM      7  C   UNL     1       2.613   4.128  19.586  0.00  0.00    +0.000 A 
ATOM      8  O   UNL     1       2.674   4.873  20.732  0.00  0.00    +0.000 OA
ATOM      9  C   UNL     1       2.380   3.871  21.732  0.00  0.00    +0.000 C 
ATOM     10  O   UNL     1       2.389   2.533  21.208  0.00  0.00    +0.000 OA
ENDBRANCH   1   2
BRANCH   1  11
ATOM     11  N   UNL     1       1.848   7.145  18.547  0.00  0.00    +0.000 NA
ATOM     12  C   UNL     1       2.181   7.522  19.951  0.00  0.00    +0.000 C 
ATOM     13  C   UNL     1       1.136   8.245  20.816  0.00  0.00    +0.000 C 
ATOM     14  C   UNL     1       0.969   9.731  20.561  0.00  0.00    +0.000 C 
ATOM     15  C   UNL     1       0.512  10.017  19.144  0.00  0.00    +0.000 C 
ATOM     16  C   UNL     1       1.633   9.758  18.152  0.00  0.00    +0.000 C 
ATOM     17  C   UNL     1       1.764   8.315  17.638  0.00  0.00    +0.000 C 
ENDBRANCH   1  11
BRANCH   1  18
ATOM     18  C   UNL     1       4.361   6.497  18.480  0.00  0.00    +0.000 C 
BRANCH  18  19
ATOM     19  N   UNL     1       5.249   5.331  18.673  0.00  0.00    +0.000 NA
ATOM     20  H   UNL     1       5.206   4.865  19.580  0.00  0.00    +0.000 HD
BRANCH  19  22
ATOM     21  O   UNL     1       7.092   6.905  17.903  0.00  0.00    +0.000 OA
ATOM     22  S   UNL     1       6.828   5.495  18.063  0.00  0.00    +0.000 S 
ATOM     23  O   UNL     1       7.689   4.627  18.824  0.00  0.00    +0.000 OA
BRANCH  22  24
ATOM     24  C   UNL     1       6.649   4.800  16.431  0.00  0.00    +0.000 A 
ATOM     25  C   UNL     1       7.379   5.363  15.381  0.00  0.00    +0.000 A 
ATOM     26  C   UNL     1       7.142   4.940  14.070  0.00  0.00    +0.000 A 
ATOM     27  C   UNL     1       6.180   3.946  13.810  0.00  0.00    +0.000 A 
ATOM     28  C   UNL     1       5.481   3.365  14.882  0.00  0.00    +0.000 A 
ATOM     29  C   UNL     1       5.715   3.788  16.195  0.00  0.00    +0.000 A 
BRANCH  27  30
ATOM     30  C   UNL     1       5.890   3.506  12.393  0.00  0.00    +0.000 C 
ATOM     31  F   UNL     1       5.967   2.158  12.217  0.00  0.00    +0.000 F 
ATOM     32  F   UNL     1       4.648   3.871  11.975  0.00  0.00    +0.000 F 
ATOM     33  F   UNL     1       6.763   4.046  11.498  0.00  0.00    +0.000 F 
ENDBRANCH  27  30
ENDBRANCH  22  24
ENDBRANCH  19  22
ENDBRANCH  18  19
ENDBRANCH   1  18
TORSDOF 7
ENDMDL
MODEL 6
REMARK VINA RESULT:      -9.1      1.585      4.137
REMARK  Name = 
REMARK  7 active torsions:
REMARK  status: ('A' for Active; 'I' for Inactive)
REMARK    1  A    between atoms: S_2  and  N_4
REMARK    2  A    between atoms: S_2  and  C_23
REMARK    3  A    between atoms: N_4  and  C_5
REMARK    4  A    between atoms: C_5  and  C_6
REMARK    5  A    between atoms: C_6  and  C_7
REMARK    6  A    between atoms: C_6  and  N_16
REMARK    7  A    between atoms: C_26  and  C_27
REMARK                            x       y       z     vdW  Elec       q    Type
REMARK                         _______ _______ _______ _____ _____    ______ ____
ROOT
ATOM      1  C   UNL     1       3.452   5.989  18.699  0.00  0.00    +0.000 C 
ENDROOT
BRANCH   1   2
ATOM      2  C   UNL     1       2.523   4.765  18.686  0.00  0.00    +0.000 A 
ATOM      3  C   UNL     1       1.794   4.313  17.575  0.00  0.00    +0.000 A 
ATOM      4  C   UNL     1       0.981   3.155  17.650  0.00  0.00    +0.000 A 
ATOM      5  C   UNL     1       0.846   2.443  18.842  0.00  0.00    +0.000 A 
ATOM      6  C   UNL     1       1.508   2.930  19.941  0.00  0.00    +0.000 A 
ATOM      7  C   UNL     1       2.313   4.050  19.871  0.00  0.00    +0.000 A 
ATOM      8  O   UNL     1       2.843   4.355  21.094  0.00  0.00    +0.000 OA
ATOM      9  C   UNL     1       2.165   3.396  21.938  0.00  0.00    +0.000 C 
ATOM     10  O   UNL     1       1.445   2.400  21.194  0.00  0.00    +0.000 OA
ENDBRANCH   1   2
BRANCH   1  11
ATOM     11  N   UNL     1       2.908   7.378  19.080  0.00  0.00    +0.000 NA
ATOM     12  C   UNL     1       2.157   7.919  17.911  0.00  0.00    +0.000 C 
ATOM     13  C   UNL     1       1.793   9.412  17.863  0.00  0.00    +0.000 C 
ATOM     14  C   UNL     1       0.600   9.836  18.700  0.00  0.00    +0.000 C 
ATOM     15  C   UNL     1       0.820   9.575  20.177  0.00  0.00    +0.000 C 
ATOM     16  C   UNL     1       0.769   8.086  20.476  0.00  0.00    +0.000 C 
ATOM     17  C   UNL     1       2.089   7.315  20.315  0.00  0.00    +0.000 C 
ENDBRANCH   1  11
BRANCH   1  18
ATOM     18  C   UNL     1       4.768   5.605  19.453  0.00  0.00    +0.000 C 
BRANCH  18  19
ATOM     19  N   UNL     1       5.594   4.594  18.760  0.00  0.00    +0.000 NA
ATOM     20  H   UNL     1       5.759   3.717  19.256  0.00  0.00    +0.000 HD
BRANCH  19  22
ATOM     21  O   UNL     1       6.946   6.628  18.053  0.00  0.00    +0.000 OA
ATOM     22  S   UNL     1       6.966   5.189  17.951  0.00  0.00    +0.000 S 
ATOM     23  O   UNL     1       8.098   4.398  18.358  0.00  0.00    +0.000 OA
BRANCH  22  24
ATOM     24  C   UNL     1       6.584   4.773  16.259  0.00  0.00    +0.000 A 
ATOM     25  C   UNL     1       5.576   3.838  16.011  0.00  0.00    +0.000 A 
ATOM     26  C   UNL     1       5.363   3.380  14.708  0.00  0.00    +0.000 A 
ATOM     27  C   UNL     1       6.156   3.865  13.650  0.00  0.00    +0.000 A 
ATOM     28  C   UNL     1       7.141   4.831  13.911  0.00  0.00    +0.000 A 
ATOM     29  C   UNL     1       7.357   5.290  15.216  0.00  0.00    +0.000 A 
BRANCH  27  30
ATOM     30  C   UNL     1       5.958   3.350  12.243  0.00  0.00    +0.000 C 
ATOM     31  F   UNL     1       5.646   2.025  12.188  0.00  0.00    +0.000 F 
ATOM     32  F   UNL     1       4.961   3.999  11.582  0.00  0.00    +0.000 F 
ATOM     33  F   UNL     1       7.076   3.498  11.478  0.00  0.00    +0.000 F 
ENDBRANCH  27  30
ENDBRANCH  22  24
ENDBRANCH  19  22
ENDBRANCH  18  19
ENDBRANCH   1  18
TORSDOF 7
ENDMDL
MODEL 7
REMARK VINA RESULT:      -9.0      1.930      4.780
REMARK  Name = 
REMARK  7 active torsions:
REMARK  status: ('A' for Active; 'I' for Inactive)
REMARK    1  A    between atoms: S_2  and  N_4
REMARK    2  A    between atoms: S_2  and  C_23
REMARK    3  A    between atoms: N_4  and  C_5
REMARK    4  A    between atoms: C_5  and  C_6
REMARK    5  A    between atoms: C_6  and  C_7
REMARK    6  A    between atoms: C_6  and  N_16
REMARK    7  A    between atoms: C_26  and  C_27
REMARK                            x       y       z     vdW  Elec       q    Type
REMARK                         _______ _______ _______ _____ _____    ______ ____
ROOT
ATOM      1  C   UNL     1       2.534   6.239  18.496  0.00  0.00    +0.000 C 
ENDROOT
BRANCH   1   2
ATOM      2  C   UNL     1       2.335   5.006  19.391  0.00  0.00    +0.000 A 
ATOM      3  C   UNL     1       2.208   5.032  20.789  0.00  0.00    +0.000 A 
ATOM      4  C   UNL     1       1.999   3.843  21.530  0.00  0.00    +0.000 A 
ATOM      5  C   UNL     1       1.948   2.599  20.901  0.00  0.00    +0.000 A 
ATOM      6  C   UNL     1       2.141   2.575  19.542  0.00  0.00    +0.000 A 
ATOM      7  C   UNL     1       2.330   3.732  18.813  0.00  0.00    +0.000 A 
ATOM      8  O   UNL     1       2.524   3.453  17.488  0.00  0.00    +0.000 OA
ATOM      9  C   UNL     1       2.577   2.009  17.511  0.00  0.00    +0.000 C 
ATOM     10  O   UNL     1       2.181   1.451  18.774  0.00  0.00    +0.000 OA
ENDBRANCH   1   2
BRANCH   1  11
ATOM     11  N   UNL     1       1.657   7.491  18.686  0.00  0.00    +0.000 NA
ATOM     12  C   UNL     1       1.842   7.981  20.082  0.00  0.00    +0.000 C 
ATOM     13  C   UNL     1       0.852   8.998  20.671  0.00  0.00    +0.000 C 
ATOM     14  C   UNL     1       1.043  10.441  20.245  0.00  0.00    +0.000 C 
ATOM     15  C   UNL     1       0.880  10.618  18.748  0.00  0.00    +0.000 C 
ATOM     16  C   UNL     1       2.060  10.019  18.001  0.00  0.00    +0.000 C 
ATOM     17  C   UNL     1       1.962   8.523  17.665  0.00  0.00    +0.000 C 
ENDBRANCH   1  11
BRANCH   1  18
ATOM     18  C   UNL     1       4.063   6.554  18.417  0.00  0.00    +0.000 C 
BRANCH  18  19
ATOM     19  N   UNL     1       4.936   5.365  18.517  0.00  0.00    +0.000 NA
ATOM     20  H   UNL     1       4.869   4.816  19.375  0.00  0.00    +0.000 HD
BRANCH  19  22
ATOM     21  O   UNL     1       6.829   6.981  17.996  0.00  0.00    +0.000 OA
ATOM     22  S   UNL     1       6.530   5.570  17.962  0.00  0.00    +0.000 S 
ATOM     23  O   UNL     1       7.356   4.586  18.613  0.00  0.00    +0.000 OA
BRANCH  22  24
ATOM     24  C   UNL     1       6.368   5.104  16.248  0.00  0.00    +0.000 A 
ATOM     25  C   UNL     1       5.239   4.381  15.855  0.00  0.00    +0.000 A 
ATOM     26  C   UNL     1       5.161   3.872  14.556  0.00  0.00    +0.000 A 
ATOM     27  C   UNL     1       6.213   4.092  13.646  0.00  0.00    +0.000 A 
ATOM     28  C   UNL     1       7.325   4.851  14.047  0.00  0.00    +0.000 A 
ATOM     29  C   UNL     1       7.405   5.362  15.348  0.00  0.00    +0.000 A 
BRANCH  27  30
ATOM     30  C   UNL     1       6.156   3.515  12.250  0.00  0.00    +0.000 C 
ATOM     31  F   UNL     1       6.951   4.170  11.359  0.00  0.00    +0.000 F 
ATOM     32  F   UNL     1       6.539   2.209  12.207  0.00  0.00    +0.000 F 
ATOM     33  F   UNL     1       4.899   3.557  11.726  0.00  0.00    +0.000 F 
ENDBRANCH  27  30
ENDBRANCH  22  24
ENDBRANCH  19  22
ENDBRANCH  18  19
ENDBRANCH   1  18
TORSDOF 7
ENDMDL
MODEL 8
REMARK VINA RESULT:      -9.0      1.995      4.753
REMARK  Name = 
REMARK  7 active torsions:
REMARK  status: ('A' for Active; 'I' for Inactive)
REMARK    1  A    between atoms: S_2  and  N_4
REMARK    2  A    between atoms: S_2  and  C_23
REMARK    3  A    between atoms: N_4  and  C_5
REMARK    4  A    between atoms: C_5  and  C_6
REMARK    5  A    between atoms: C_6  and  C_7
REMARK    6  A    between atoms: C_6  and  N_16
REMARK    7  A    between atoms: C_26  and  C_27
REMARK                            x       y       z     vdW  Elec       q    Type
REMARK                         _______ _______ _______ _____ _____    ______ ____
ROOT
ATOM      1  C   UNL     1       2.595   6.339  18.428  0.00  0.00    +0.000 C 
ENDROOT
BRANCH   1   2
ATOM      2  C   UNL     1       2.421   5.145  19.381  0.00  0.00    +0.000 A 
ATOM      3  C   UNL     1       2.417   5.222  20.783  0.00  0.00    +0.000 A 
ATOM      4  C   UNL     1       2.222   4.068  21.582  0.00  0.00    +0.000 A 
ATOM      5  C   UNL     1       2.063   2.808  21.005  0.00  0.00    +0.000 A 
ATOM      6  C   UNL     1       2.136   2.732  19.636  0.00  0.00    +0.000 A 
ATOM      7  C   UNL     1       2.311   3.855  18.852  0.00  0.00    +0.000 A 
ATOM      8  O   UNL     1       2.378   3.525  17.526  0.00  0.00    +0.000 OA
ATOM      9  C   UNL     1       2.370   2.081  17.597  0.00  0.00    +0.000 C 
ATOM     10  O   UNL     1       2.061   1.583  18.909  0.00  0.00    +0.000 OA
ENDBRANCH   1   2
BRANCH   1  11
ATOM     11  N   UNL     1       2.452   7.780  18.950  0.00  0.00    +0.000 NA
ATOM     12  C   UNL     1       1.849   8.609  17.867  0.00  0.00    +0.000 C 
ATOM     13  C   UNL     1       1.899  10.142  17.963  0.00  0.00    +0.000 C 
ATOM     14  C   UNL     1       0.882  10.787  18.886  0.00  0.00    +0.000 C 
ATOM     15  C   UNL     1       1.056  10.339  20.324  0.00  0.00    +0.000 C 
ATOM     16  C   UNL     1       0.612   8.896  20.498  0.00  0.00    +0.000 C 
ATOM     17  C   UNL     1       1.673   7.822  20.212  0.00  0.00    +0.000 C 
ENDBRANCH   1  11
BRANCH   1  18
ATOM     18  C   UNL     1       3.884   6.108  17.574  0.00  0.00    +0.000 C 
BRANCH  18  19
ATOM     19  N   UNL     1       5.144   6.463  18.263  0.00  0.00    +0.000 NA
ATOM     20  H   UNL     1       5.543   7.378  18.049  0.00  0.00    +0.000 HD
BRANCH  19  22
ATOM     21  O   UNL     1       7.573   5.832  18.669  0.00  0.00    +0.000 OA
ATOM     22  S   UNL     1       6.300   5.221  18.374  0.00  0.00    +0.000 S 
ATOM     23  O   UNL     1       5.741   4.166  19.179  0.00  0.00    +0.000 OA
BRANCH  22  24
ATOM     24  C   UNL     1       6.364   4.649  16.686  0.00  0.00    +0.000 A 
ATOM     25  C   UNL     1       7.153   5.351  15.771  0.00  0.00    +0.000 A 
ATOM     26  C   UNL     1       7.100   5.018  14.415  0.00  0.00    +0.000 A 
ATOM     27  C   UNL     1       6.263   3.975  13.974  0.00  0.00    +0.000 A 
ATOM     28  C   UNL     1       5.504   3.256  14.913  0.00  0.00    +0.000 A 
ATOM     29  C   UNL     1       5.554   3.589  16.272  0.00  0.00    +0.000 A 
BRANCH  27  30
ATOM     30  C   UNL     1       6.171   3.631  12.506  0.00  0.00    +0.000 C 
ATOM     31  F   UNL     1       6.479   2.332  12.232  0.00  0.00    +0.000 F 
ATOM     32  F   UNL     1       4.926   3.838  11.996  0.00  0.00    +0.000 F 
ATOM     33  F   UNL     1       7.019   4.379  11.746  0.00  0.00    +0.000 F 
ENDBRANCH  27  30
ENDBRANCH  22  24
ENDBRANCH  19  22
ENDBRANCH  18  19
ENDBRANCH   1  18
TORSDOF 7
ENDMDL
MODEL 9
REMARK VINA RESULT:      -9.0      4.764      8.199
REMARK  Name = 
REMARK  7 active torsions:
REMARK  status: ('A' for Active; 'I' for Inactive)
REMARK    1  A    between atoms: S_2  and  N_4
REMARK    2  A    between atoms: S_2  and  C_23
REMARK    3  A    between atoms: N_4  and  C_5
REMARK    4  A    between atoms: C_5  and  C_6
REMARK    5  A    between atoms: C_6  and  C_7
REMARK    6  A    between atoms: C_6  and  N_16
REMARK    7  A    between atoms: C_26  and  C_27
REMARK                            x       y       z     vdW  Elec       q    Type
REMARK                         _______ _______ _______ _____ _____    ______ ____
ROOT
ATOM      1  C   UNL     1       3.355   6.283  17.620  0.00  0.00    +0.000 C 
ENDROOT
BRANCH   1   2
ATOM      2  C   UNL     1       4.831   5.889  17.788  0.00  0.00    +0.000 A 
ATOM      3  C   UNL     1       5.556   5.959  18.989  0.00  0.00    +0.000 A 
ATOM      4  C   UNL     1       6.910   5.546  19.055  0.00  0.00    +0.000 A 
ATOM      5  C   UNL     1       7.582   5.090  17.920  0.00  0.00    +0.000 A 
ATOM      6  C   UNL     1       6.887   5.089  16.737  0.00  0.00    +0.000 A 
ATOM      7  C   UNL     1       5.563   5.476  16.670  0.00  0.00    +0.000 A 
ATOM      8  O   UNL     1       5.096   5.415  15.386  0.00  0.00    +0.000 OA
ATOM      9  C   UNL     1       6.306   5.092  14.664  0.00  0.00    +0.000 C 
ATOM     10  O   UNL     1       7.398   4.734  15.526  0.00  0.00    +0.000 OA
ENDBRANCH   1   2
BRANCH   1  11
ATOM     11  N   UNL     1       2.250   5.500  18.353  0.00  0.00    +0.000 NA
ATOM     12  C   UNL     1       2.366   4.064  17.969  0.00  0.00    +0.000 C 
ATOM     13  C   UNL     1       1.206   3.100  18.265  0.00  0.00    +0.000 C 
ATOM     14  C   UNL     1       1.096   2.606  19.696  0.00  0.00    +0.000 C 
ATOM     15  C   UNL     1       0.866   3.742  20.673  0.00  0.00    +0.000 C 
ATOM     16  C   UNL     1       2.125   4.578  20.835  0.00  0.00    +0.000 C 
ATOM     17  C   UNL     1       2.320   5.715  19.819  0.00  0.00    +0.000 C 
ENDBRANCH   1  11
BRANCH   1  18
ATOM     18  C   UNL     1       3.234   7.834  17.781  0.00  0.00    +0.000 C 
BRANCH  18  19
ATOM     19  N   UNL     1       1.844   8.341  17.778  0.00  0.00    +0.000 NA
ATOM     20  H   UNL     1       1.386   8.420  16.869  0.00  0.00    +0.000 HD
BRANCH  19  22
ATOM     21  O   UNL     1       1.429   9.132  20.159  0.00  0.00    +0.000 OA
ATOM     22  S   UNL     1       1.534   9.650  18.816  0.00  0.00    +0.000 S 
ATOM     23  O   UNL     1       2.435  10.718  18.464  0.00  0.00    +0.000 OA
BRANCH  22  24
ATOM     24  C   UNL     1      -0.107  10.125  18.302  0.00  0.00    +0.000 A 
ATOM     25  C   UNL     1      -0.796  11.076  19.059  0.00  0.00    +0.000 A 
ATOM     26  C   UNL     1      -2.135  11.352  18.770  0.00  0.00    +0.000 A 
ATOM     27  C   UNL     1      -2.784  10.680  17.716  0.00  0.00    +0.000 A 
ATOM     28  C   UNL     1      -2.066   9.753  16.942  0.00  0.00    +0.000 A 
ATOM     29  C   UNL     1      -0.725   9.475  17.231  0.00  0.00    +0.000 A 
BRANCH  27  30
ATOM     30  C   UNL     1      -4.242  10.943  17.418  0.00  0.00    +0.000 C 
ATOM     31  F   UNL     1      -5.093  10.167  18.145  0.00  0.00    +0.000 F 
ATOM     32  F   UNL     1      -4.603  12.232  17.666  0.00  0.00    +0.000 F 
ATOM     33  F   UNL     1      -4.552  10.709  16.112  0.00  0.00    +0.000 F 
ENDBRANCH  27  30
ENDBRANCH  22  24
ENDBRANCH  19  22
ENDBRANCH  18  19
ENDBRANCH   1  18
TORSDOF 7
ENDMDL
