MODEL 1
REMARK VINA RESULT:      -8.6      0.000      0.000
REMARK  Name = 
REMARK  3 active torsions:
REMARK  status: ('A' for Active; 'I' for Inactive)
REMARK    1  A    between atoms: O_1  and  C_2
REMARK    2  A    between atoms: C_2  and  C_3
REMARK    3  A    between atoms: C_3  and  C_6
REMARK                            x       y       z     vdW  Elec       q    Type
REMARK                         _______ _______ _______ _____ _____    ______ ____
ROOT
ATOM      1  C   UNL     1       4.058   3.874  18.890  0.00  0.00    +0.000 C 
ATOM      2  C   UNL     1       4.311   3.678  17.365  0.00  0.00    +0.000 C 
ATOM      3  C   UNL     1       4.980   4.913  16.724  0.00  0.00    +0.000 C 
ATOM      4  C   UNL     1       4.137   6.192  16.870  0.00  0.00    +0.000 C 
ATOM      5  C   UNL     1       3.460   6.271  18.199  0.00  0.00    +0.000 A 
ATOM      6  C   UNL     1       3.443   5.224  19.101  0.00  0.00    +0.000 A 
ATOM      7  N   UNL     1       2.788   5.643  20.229  0.00  0.00    +0.000 N 
ATOM      8  C   UNL     1       2.240   6.888  20.009  0.00  0.00    +0.000 A 
ATOM      9  C   UNL     1       1.406   7.662  20.824  0.00  0.00    +0.000 A 
ATOM     10  C   UNL     1       0.998   8.914  20.339  0.00  0.00    +0.000 A 
ATOM     11 CL   UNL     1      -0.061   9.841  21.349  0.00  0.00    +0.000 Cl
ATOM     12  C   UNL     1       1.430   9.375  19.093  0.00  0.00    +0.000 A 
ATOM     13 CL   UNL     1       0.950  10.913  18.460  0.00  0.00    +0.000 Cl
ATOM     14  C   UNL     1       2.270   8.588  18.292  0.00  0.00    +0.000 A 
ATOM     15  C   UNL     1       2.675   7.319  18.752  0.00  0.00    +0.000 A 
ATOM     16  H   UNL     1       2.686   5.113  21.088  0.00  0.00    +0.000 HD
ENDROOT
BRANCH   1  17
ATOM     17  C   UNL     1       3.274   2.698  19.512  0.00  0.00    +0.000 C 
ATOM     18  F   UNL     1       3.845   1.536  19.055  0.00  0.00    +0.000 F 
ATOM     19  F   UNL     1       3.505   2.679  20.867  0.00  0.00    +0.000 F 
BRANCH  17  20
ATOM     20  C   UNL     1       1.763   2.690  19.251  0.00  0.00    +0.000 C 
ATOM     21  F   UNL     1       1.372   3.457  18.212  0.00  0.00    +0.000 F 
ATOM     22  F   UNL     1       1.311   1.433  19.002  0.00  0.00    +0.000 F 
ATOM     23  F   UNL     1       1.077   3.132  20.340  0.00  0.00    +0.000 F 
ENDBRANCH  17  20
ENDBRANCH   1  17
BRANCH   1  24
ATOM     24  O   UNL     1       5.352   3.983  19.517  0.00  0.00    +0.000 OA
ATOM     25  H   UNL     1       5.710   4.864  19.298  0.00  0.00    +0.000 HD
ENDBRANCH   1  24
TORSDOF 3
ENDMDL
MODEL 2
REMARK VINA RESULT:      -8.4      0.641      1.007
REMARK  Name = 
REMARK  3 active torsions:
REMARK  status: ('A' for Active; 'I' for Inactive)
REMARK    1  A    between atoms: O_1  and  C_2
REMARK    2  A    between atoms: C_2  and  C_3
REMARK    3  A    between atoms: C_3  and  C_6
REMARK                            x       y       z     vdW  Elec       q    Type
REMARK                         _______ _______ _______ _____ _____    ______ ____
ROOT
ATOM      1  C   UNL     1       3.661   4.365  18.946  0.00  0.00    +0.000 C 
ATOM      2  C   UNL     1       3.935   4.223  17.420  0.00  0.00    +0.000 C 
ATOM      3  C   UNL     1       4.634   5.469  16.836  0.00  0.00    +0.000 C 
ATOM      4  C   UNL     1       3.811   6.757  17.018  0.00  0.00    +0.000 C 
ATOM      5  C   UNL     1       3.115   6.796  18.340  0.00  0.00    +0.000 A 
ATOM      6  C   UNL     1       3.067   5.717  19.201  0.00  0.00    +0.000 A 
ATOM      7  N   UNL     1       2.402   6.104  20.334  0.00  0.00    +0.000 N 
ATOM      8  C   UNL     1       1.878   7.366  20.153  0.00  0.00    +0.000 A 
ATOM      9  C   UNL     1       1.045   8.123  20.985  0.00  0.00    +0.000 A 
ATOM     10  C   UNL     1       0.666   9.400  20.542  0.00  0.00    +0.000 A 
ATOM     11 CL   UNL     1      -0.392  10.306  21.571  0.00  0.00    +0.000 Cl
ATOM     12  C   UNL     1       1.125   9.900  19.321  0.00  0.00    +0.000 A 
ATOM     13 CL   UNL     1       0.681  11.469  18.740  0.00  0.00    +0.000 Cl
ATOM     14  C   UNL     1       1.964   9.129  18.503  0.00  0.00    +0.000 A 
ATOM     15  C   UNL     1       2.340   7.837  18.920  0.00  0.00    +0.000 A 
ATOM     16  H   UNL     1       2.277   5.544  21.170  0.00  0.00    +0.000 HD
ENDROOT
BRANCH   1  17
ATOM     17  C   UNL     1       2.848   3.180  19.512  0.00  0.00    +0.000 C 
ATOM     18  F   UNL     1       3.467   2.025  19.103  0.00  0.00    +0.000 F 
ATOM     19  F   UNL     1       2.977   3.168  20.880  0.00  0.00    +0.000 F 
BRANCH  17  20
ATOM     20  C   UNL     1       1.362   3.152  19.138  0.00  0.00    +0.000 C 
ATOM     21  F   UNL     1       0.536   3.614  20.100  0.00  0.00    +0.000 F 
ATOM     22  F   UNL     1       1.117   3.889  18.024  0.00  0.00    +0.000 F 
ATOM     23  F   UNL     1       0.954   1.885  18.853  0.00  0.00    +0.000 F 
ENDBRANCH  17  20
ENDBRANCH   1  17
BRANCH   1  24
ATOM     24  O   UNL     1       4.948   4.428  19.596  0.00  0.00    +0.000 OA
ATOM     25  H   UNL     1       4.790   4.611  20.541  0.00  0.00    +0.000 HD
ENDBRANCH   1  24
TORSDOF 3
ENDMDL
MODEL 3
REMARK VINA RESULT:      -8.4      1.159      1.411
REMARK  Name = 
REMARK  3 active torsions:
REMARK  status: ('A' for Active; 'I' for Inactive)
REMARK    1  A    between atoms: O_1  and  C_2
REMARK    2  A    between atoms: C_2  and  C_3
REMARK    3  A    between atoms: C_3  and  C_6
REMARK                            x       y       z     vdW  Elec       q    Type
REMARK                         _______ _______ _______ _____ _____    ______ ____
ROOT
ATOM      1  C   UNL     1       3.429   5.104  19.359  0.00  0.00    +0.000 C 
ATOM      2  C   UNL     1       3.694   4.860  17.844  0.00  0.00    +0.000 C 
ATOM      3  C   UNL     1       4.314   6.095  17.156  0.00  0.00    +0.000 C 
ATOM      4  C   UNL     1       3.420   7.344  17.251  0.00  0.00    +0.000 C 
ATOM      5  C   UNL     1       2.737   7.446  18.576  0.00  0.00    +0.000 A 
ATOM      6  C   UNL     1       2.760   6.436  19.517  0.00  0.00    +0.000 A 
ATOM      7  N   UNL     1       2.086   6.871  20.628  0.00  0.00    +0.000 N 
ATOM      8  C   UNL     1       1.488   8.083  20.359  0.00  0.00    +0.000 A 
ATOM      9  C   UNL     1       0.621   8.854  21.142  0.00  0.00    +0.000 A 
ATOM     10  C   UNL     1       0.165  10.069  20.608  0.00  0.00    +0.000 A 
ATOM     11 CL   UNL     1      -0.933  10.991  21.580  0.00  0.00    +0.000 Cl
ATOM     12  C   UNL     1       0.581  10.499  19.346  0.00  0.00    +0.000 A 
ATOM     13 CL   UNL     1       0.042  11.991  18.653  0.00  0.00    +0.000 Cl
ATOM     14  C   UNL     1       1.455   9.716  18.578  0.00  0.00    +0.000 A 
ATOM     15  C   UNL     1       1.909   8.483  19.086  0.00  0.00    +0.000 A 
ATOM     16  H   UNL     1       2.002   6.371  21.506  0.00  0.00    +0.000 HD
ENDROOT
BRANCH   1  17
ATOM     17  C   UNL     1       2.691   3.922  20.025  0.00  0.00    +0.000 C 
ATOM     18  F   UNL     1       3.470   2.804  19.855  0.00  0.00    +0.000 F 
ATOM     19  F   UNL     1       2.675   4.120  21.385  0.00  0.00    +0.000 F 
BRANCH  17  20
ATOM     20  C   UNL     1       1.264   3.661  19.530  0.00  0.00    +0.000 C 
ATOM     21  F   UNL     1       1.021   4.092  18.274  0.00  0.00    +0.000 F 
ATOM     22  F   UNL     1       0.967   2.336  19.554  0.00  0.00    +0.000 F 
ATOM     23  F   UNL     1       0.350   4.270  20.332  0.00  0.00    +0.000 F 
ENDBRANCH  17  20
ENDBRANCH   1  17
BRANCH   1  24
ATOM     24  O   UNL     1       4.716   5.290  19.982  0.00  0.00    +0.000 OA
ATOM     25  H   UNL     1       5.384   4.874  19.406  0.00  0.00    +0.000 HD
ENDBRANCH   1  24
TORSDOF 3
ENDMDL
MODEL 4
REMARK VINA RESULT:      -8.2      1.602      2.471
REMARK  Name = 
REMARK  3 active torsions:
REMARK  status: ('A' for Active; 'I' for Inactive)
REMARK    1  A    between atoms: O_1  and  C_2
REMARK    2  A    between atoms: C_2  and  C_3
REMARK    3  A    between atoms: C_3  and  C_6
REMARK                            x       y       z     vdW  Elec       q    Type
REMARK                         _______ _______ _______ _____ _____    ______ ____
ROOT
ATOM      1  C   UNL     1       2.722   5.576  19.593  0.00  0.00    +0.000 C 
ATOM      2  C   UNL     1       2.825   5.551  18.039  0.00  0.00    +0.000 C 
ATOM      3  C   UNL     1       3.419   6.859  17.474  0.00  0.00    +0.000 C 
ATOM      4  C   UNL     1       2.585   8.100  17.841  0.00  0.00    +0.000 C 
ATOM      5  C   UNL     1       2.043   8.023  19.231  0.00  0.00    +0.000 A 
ATOM      6  C   UNL     1       2.123   6.885  20.010  0.00  0.00    +0.000 A 
ATOM      7  N   UNL     1       1.580   7.168  21.236  0.00  0.00    +0.000 N 
ATOM      8  C   UNL     1       1.004   8.420  21.207  0.00  0.00    +0.000 A 
ATOM      9  C   UNL     1       0.250   9.087  22.179  0.00  0.00    +0.000 A 
ATOM     10  C   UNL     1      -0.213  10.377  21.876  0.00  0.00    +0.000 A 
ATOM     11 CL   UNL     1      -1.172  11.171  23.080  0.00  0.00    +0.000 Cl
ATOM     12  C   UNL     1       0.091  10.977  20.652  0.00  0.00    +0.000 A 
ATOM     13 CL   UNL     1      -0.459  12.566  20.240  0.00  0.00    +0.000 Cl
ATOM     14  C   UNL     1       0.853  10.296  19.692  0.00  0.00    +0.000 A 
ATOM     15  C   UNL     1       1.310   8.992  19.968  0.00  0.00    +0.000 A 
ATOM     16  H   UNL     1       1.566   6.547  22.037  0.00  0.00    +0.000 HD
ENDROOT
BRANCH   1  17
ATOM     17  C   UNL     1       2.012   4.327  20.157  0.00  0.00    +0.000 C 
ATOM     18  F   UNL     1       2.416   4.177  21.460  0.00  0.00    +0.000 F 
ATOM     19  F   UNL     1       0.664   4.586  20.247  0.00  0.00    +0.000 F 
BRANCH  17  20
ATOM     20  C   UNL     1       2.230   3.026  19.376  0.00  0.00    +0.000 C 
ATOM     21  F   UNL     1       3.517   2.772  19.062  0.00  0.00    +0.000 F 
ATOM     22  F   UNL     1       1.777   1.950  20.072  0.00  0.00    +0.000 F 
ATOM     23  F   UNL     1       1.539   3.037  18.204  0.00  0.00    +0.000 F 
ENDBRANCH  17  20
ENDBRANCH   1  17
BRANCH   1  24
ATOM     24  O   UNL     1       4.072   5.640  20.099  0.00  0.00    +0.000 OA
ATOM     25  H   UNL     1       4.098   5.128  20.929  0.00  0.00    +0.000 HD
ENDBRANCH   1  24
TORSDOF 3
ENDMDL
MODEL 5
REMARK VINA RESULT:      -8.1      1.688      2.670
REMARK  Name = 
REMARK  3 active torsions:
REMARK  status: ('A' for Active; 'I' for Inactive)
REMARK    1  A    between atoms: O_1  and  C_2
REMARK    2  A    between atoms: C_2  and  C_3
REMARK    3  A    between atoms: C_3  and  C_6
REMARK                            x       y       z     vdW  Elec       q    Type
REMARK                         _______ _______ _______ _____ _____    ______ ____
ROOT
ATOM      1  C   UNL     1       2.543   5.374  19.561  0.00  0.00    +0.000 C 
ATOM      2  C   UNL     1       2.736   5.415  18.016  0.00  0.00    +0.000 C 
ATOM      3  C   UNL     1       3.451   6.702  17.554  0.00  0.00    +0.000 C 
ATOM      4  C   UNL     1       2.686   7.982  17.936  0.00  0.00    +0.000 C 
ATOM      5  C   UNL     1       2.058   7.878  19.287  0.00  0.00    +0.000 A 
ATOM      6  C   UNL     1       2.011   6.701  20.011  0.00  0.00    +0.000 A 
ATOM      7  N   UNL     1       1.417   6.965  21.217  0.00  0.00    +0.000 N 
ATOM      8  C   UNL     1       0.932   8.255  21.221  0.00  0.00    +0.000 A 
ATOM      9  C   UNL     1       0.169   8.928  22.182  0.00  0.00    +0.000 A 
ATOM     10  C   UNL     1      -0.183  10.261  21.920  0.00  0.00    +0.000 A 
ATOM     11 CL   UNL     1      -1.156  11.063  23.107  0.00  0.00    +0.000 Cl
ATOM     12  C   UNL     1       0.233  10.894  20.747  0.00  0.00    +0.000 A 
ATOM     13 CL   UNL     1      -0.179  12.537  20.388  0.00  0.00    +0.000 Cl
ATOM     14  C   UNL     1       1.002  10.206  19.798  0.00  0.00    +0.000 A 
ATOM     15  C   UNL     1       1.350   8.861  20.032  0.00  0.00    +0.000 A 
ATOM     16  H   UNL     1       1.313   6.309  21.983  0.00  0.00    +0.000 HD
ENDROOT
BRANCH   1  17
ATOM     17  C   UNL     1       1.715   4.154  20.019  0.00  0.00    +0.000 C 
ATOM     18  F   UNL     1       0.418   4.575  20.180  0.00  0.00    +0.000 F 
ATOM     19  F   UNL     1       1.652   3.249  18.986  0.00  0.00    +0.000 F 
BRANCH  17  20
ATOM     20  C   UNL     1       2.210   3.448  21.286  0.00  0.00    +0.000 C 
ATOM     21  F   UNL     1       2.561   4.281  22.288  0.00  0.00    +0.000 F 
ATOM     22  F   UNL     1       1.265   2.610  21.787  0.00  0.00    +0.000 F 
ATOM     23  F   UNL     1       3.300   2.678  21.023  0.00  0.00    +0.000 F 
ENDBRANCH  17  20
ENDBRANCH   1  17
BRANCH   1  24
ATOM     24  O   UNL     1       3.861   5.316  20.144  0.00  0.00    +0.000 OA
ATOM     25  H   UNL     1       4.133   6.231  20.346  0.00  0.00    +0.000 HD
ENDBRANCH   1  24
TORSDOF 3
ENDMDL
MODEL 6
REMARK VINA RESULT:      -8.0      3.009      4.124
REMARK  Name = 
REMARK  3 active torsions:
REMARK  status: ('A' for Active; 'I' for Inactive)
REMARK    1  A    between atoms: O_1  and  C_2
REMARK    2  A    between atoms: C_2  and  C_3
REMARK    3  A    between atoms: C_3  and  C_6
REMARK                            x       y       z     vdW  Elec       q    Type
REMARK                         _______ _______ _______ _____ _____    ______ ____
ROOT
ATOM      1  C   UNL     1       4.615   4.992  17.415  0.00  0.00    +0.000 C 
ATOM      2  C   UNL     1       5.162   4.130  18.592  0.00  0.00    +0.000 C 
ATOM      3  C   UNL     1       4.039   3.672  19.547  0.00  0.00    +0.000 C 
ATOM      4  C   UNL     1       3.277   4.849  20.180  0.00  0.00    +0.000 C 
ATOM      5  C   UNL     1       3.074   5.972  19.216  0.00  0.00    +0.000 A 
ATOM      6  C   UNL     1       3.673   6.016  17.972  0.00  0.00    +0.000 A 
ATOM      7  N   UNL     1       3.239   7.145  17.329  0.00  0.00    +0.000 N 
ATOM      8  C   UNL     1       2.496   7.915  18.198  0.00  0.00    +0.000 A 
ATOM      9  C   UNL     1       1.940   9.188  18.025  0.00  0.00    +0.000 A 
ATOM     10  C   UNL     1       1.216   9.735  19.095  0.00  0.00    +0.000 A 
ATOM     11 CL   UNL     1       0.566  11.324  18.871  0.00  0.00    +0.000 Cl
ATOM     12  C   UNL     1       1.043   9.021  20.283  0.00  0.00    +0.000 A 
ATOM     13 CL   UNL     1       0.156   9.660  21.625  0.00  0.00    +0.000 Cl
ATOM     14  C   UNL     1       1.602   7.744  20.436  0.00  0.00    +0.000 A 
ATOM     15  C   UNL     1       2.350   7.184  19.382  0.00  0.00    +0.000 A 
ATOM     16  H   UNL     1       3.453   7.403  16.372  0.00  0.00    +0.000 HD
ENDROOT
BRANCH   1  17
ATOM     17  C   UNL     1       5.744   5.561  16.529  0.00  0.00    +0.000 C 
ATOM     18  F   UNL     1       5.152   6.166  15.447  0.00  0.00    +0.000 F 
ATOM     19  F   UNL     1       6.357   6.593  17.200  0.00  0.00    +0.000 F 
BRANCH  17  20
ATOM     20  C   UNL     1       6.802   4.554  16.065  0.00  0.00    +0.000 C 
ATOM     21  F   UNL     1       7.750   4.276  16.985  0.00  0.00    +0.000 F 
ATOM     22  F   UNL     1       6.237   3.369  15.714  0.00  0.00    +0.000 F 
ATOM     23  F   UNL     1       7.456   5.005  14.960  0.00  0.00    +0.000 F 
ENDBRANCH  17  20
ENDBRANCH   1  17
BRANCH   1  24
ATOM     24  O   UNL     1       3.764   4.133  16.629  0.00  0.00    +0.000 OA
ATOM     25  H   UNL     1       4.099   4.146  15.714  0.00  0.00    +0.000 HD
ENDBRANCH   1  24
TORSDOF 3
ENDMDL
MODEL 7
REMARK VINA RESULT:      -8.0      1.263      2.020
REMARK  Name = 
REMARK  3 active torsions:
REMARK  status: ('A' for Active; 'I' for Inactive)
REMARK    1  A    between atoms: O_1  and  C_2
REMARK    2  A    between atoms: C_2  and  C_3
REMARK    3  A    between atoms: C_3  and  C_6
REMARK                            x       y       z     vdW  Elec       q    Type
REMARK                         _______ _______ _______ _____ _____    ______ ____
ROOT
ATOM      1  C   UNL     1       2.852   4.580  19.416  0.00  0.00    +0.000 C 
ATOM      2  C   UNL     1       3.111   4.350  17.897  0.00  0.00    +0.000 C 
ATOM      3  C   UNL     1       3.956   5.480  17.273  0.00  0.00    +0.000 C 
ATOM      4  C   UNL     1       3.293   6.863  17.403  0.00  0.00    +0.000 C 
ATOM      5  C   UNL     1       2.603   7.035  18.716  0.00  0.00    +0.000 A 
ATOM      6  C   UNL     1       2.423   6.002  19.616  0.00  0.00    +0.000 A 
ATOM      7  N   UNL     1       1.806   6.508  20.730  0.00  0.00    +0.000 N 
ATOM      8  C   UNL     1       1.438   7.815  20.499  0.00  0.00    +0.000 A 
ATOM      9  C   UNL     1       0.699   8.697  21.296  0.00  0.00    +0.000 A 
ATOM     10  C   UNL     1       0.478   9.993  20.804  0.00  0.00    +0.000 A 
ATOM     11 CL   UNL     1      -0.467  11.057  21.792  0.00  0.00    +0.000 Cl
ATOM     12  C   UNL     1       0.996  10.389  19.569  0.00  0.00    +0.000 A 
ATOM     13 CL   UNL     1       0.746  11.977  18.929  0.00  0.00    +0.000 Cl
ATOM     14  C   UNL     1       1.739   9.493  18.787  0.00  0.00    +0.000 A 
ATOM     15  C   UNL     1       1.956   8.181  19.253  0.00  0.00    +0.000 A 
ATOM     16  H   UNL     1       1.613   5.998  21.584  0.00  0.00    +0.000 HD
ENDROOT
BRANCH   1  17
ATOM     17  C   UNL     1       1.901   3.523  20.018  0.00  0.00    +0.000 C 
ATOM     18  F   UNL     1       0.623   4.014  19.916  0.00  0.00    +0.000 F 
ATOM     19  F   UNL     1       1.903   2.412  19.207  0.00  0.00    +0.000 F 
BRANCH  17  20
ATOM     20  C   UNL     1       2.198   3.101  21.461  0.00  0.00    +0.000 C 
ATOM     21  F   UNL     1       2.485   4.124  22.293  0.00  0.00    +0.000 F 
ATOM     22  F   UNL     1       1.150   2.433  22.008  0.00  0.00    +0.000 F 
ATOM     23  F   UNL     1       3.259   2.251  21.513  0.00  0.00    +0.000 F 
ENDBRANCH  17  20
ENDBRANCH   1  17
BRANCH   1  24
ATOM     24  O   UNL     1       4.135   4.512  20.072  0.00  0.00    +0.000 OA
ATOM     25  H   UNL     1       3.988   4.682  21.021  0.00  0.00    +0.000 HD
ENDBRANCH   1  24
TORSDOF 3
ENDMDL
MODEL 8
REMARK VINA RESULT:      -7.9      4.698      5.878
REMARK  Name = 
REMARK  3 active torsions:
REMARK  status: ('A' for Active; 'I' for Inactive)
REMARK    1  A    between atoms: O_1  and  C_2
REMARK    2  A    between atoms: C_2  and  C_3
REMARK    3  A    between atoms: C_3  and  C_6
REMARK                            x       y       z     vdW  Elec       q    Type
REMARK                         _______ _______ _______ _____ _____    ______ ____
ROOT
ATOM      1  C   UNL     1       6.828   5.001  16.382  0.00  0.00    +0.000 C 
ATOM      2  C   UNL     1       7.418   6.232  17.131  0.00  0.00    +0.000 C 
ATOM      3  C   UNL     1       7.652   5.945  18.629  0.00  0.00    +0.000 C 
ATOM      4  C   UNL     1       6.361   5.555  19.371  0.00  0.00    +0.000 C 
ATOM      5  C   UNL     1       5.473   4.691  18.537  0.00  0.00    +0.000 A 
ATOM      6  C   UNL     1       5.703   4.441  17.198  0.00  0.00    +0.000 A 
ATOM      7  N   UNL     1       4.737   3.577  16.753  0.00  0.00    +0.000 N 
ATOM      8  C   UNL     1       3.793   3.392  17.739  0.00  0.00    +0.000 A 
ATOM      9  C   UNL     1       2.585   2.686  17.709  0.00  0.00    +0.000 A 
ATOM     10  C   UNL     1       1.814   2.660  18.882  0.00  0.00    +0.000 A 
ATOM     11 CL   UNL     1       0.307   1.810  18.812  0.00  0.00    +0.000 Cl
ATOM     12  C   UNL     1       2.253   3.302  20.042  0.00  0.00    +0.000 A 
ATOM     13 CL   UNL     1       1.333   3.292  21.508  0.00  0.00    +0.000 Cl
ATOM     14  C   UNL     1       3.470   4.000  20.055  0.00  0.00    +0.000 A 
ATOM     15  C   UNL     1       4.249   4.055  18.883  0.00  0.00    +0.000 A 
ATOM     16  H   UNL     1       4.694   3.160  15.830  0.00  0.00    +0.000 HD
ENDROOT
BRANCH   1  17
ATOM     17  C   UNL     1       6.472   5.320  14.914  0.00  0.00    +0.000 C 
ATOM     18  F   UNL     1       5.422   6.205  14.929  0.00  0.00    +0.000 F 
ATOM     19  F   UNL     1       7.506   6.030  14.351  0.00  0.00    +0.000 F 
BRANCH  17  20
ATOM     20  C   UNL     1       6.140   4.112  14.030  0.00  0.00    +0.000 C 
ATOM     21  F   UNL     1       6.297   2.917  14.635  0.00  0.00    +0.000 F 
ATOM     22  F   UNL     1       4.858   4.161  13.585  0.00  0.00    +0.000 F 
ATOM     23  F   UNL     1       6.926   4.090  12.919  0.00  0.00    +0.000 F 
ENDBRANCH  17  20
ENDBRANCH   1  17
BRANCH   1  24
ATOM     24  O   UNL     1       7.832   3.966  16.426  0.00  0.00    +0.000 OA
ATOM     25  H   UNL     1       8.201   3.876  15.528  0.00  0.00    +0.000 HD
ENDBRANCH   1  24
TORSDOF 3
ENDMDL
MODEL 9
REMARK VINA RESULT:      -7.8      2.635      3.883
REMARK  Name = 
REMARK  3 active torsions:
REMARK  status: ('A' for Active; 'I' for Inactive)
REMARK    1  A    between atoms: O_1  and  C_2
REMARK    2  A    between atoms: C_2  and  C_3
REMARK    3  A    between atoms: C_3  and  C_6
REMARK                            x       y       z     vdW  Elec       q    Type
REMARK                         _______ _______ _______ _____ _____    ______ ____
ROOT
ATOM      1  C   UNL     1       4.094   4.532  17.928  0.00  0.00    +0.000 C 
ATOM      2  C   UNL     1       4.511   3.623  19.121  0.00  0.00    +0.000 C 
ATOM      3  C   UNL     1       3.323   3.305  20.053  0.00  0.00    +0.000 C 
ATOM      4  C   UNL     1       2.687   4.568  20.662  0.00  0.00    +0.000 C 
ATOM      5  C   UNL     1       2.637   5.698  19.687  0.00  0.00    +0.000 A 
ATOM      6  C   UNL     1       3.264   5.663  18.457  0.00  0.00    +0.000 A 
ATOM      7  N   UNL     1       2.978   6.829  17.797  0.00  0.00    +0.000 N 
ATOM      8  C   UNL     1       2.310   7.686  18.644  0.00  0.00    +0.000 A 
ATOM      9  C   UNL     1       1.908   9.013  18.451  0.00  0.00    +0.000 A 
ATOM     10  C   UNL     1       1.229   9.649  19.501  0.00  0.00    +0.000 A 
ATOM     11 CL   UNL     1       0.771  11.301  19.253  0.00  0.00    +0.000 Cl
ATOM     12  C   UNL     1       0.948   8.970  20.689  0.00  0.00    +0.000 A 
ATOM     13 CL   UNL     1       0.112   9.719  22.006  0.00  0.00    +0.000 Cl
ATOM     14  C   UNL     1       1.353   7.638  20.863  0.00  0.00    +0.000 A 
ATOM     15  C   UNL     1       2.054   6.987  19.829  0.00  0.00    +0.000 A 
ATOM     16  H   UNL     1       3.242   7.052  16.844  0.00  0.00    +0.000 HD
ENDROOT
BRANCH   1  17
ATOM     17  C   UNL     1       5.300   4.960  17.064  0.00  0.00    +0.000 C 
ATOM     18  F   UNL     1       5.910   3.815  16.613  0.00  0.00    +0.000 F 
ATOM     19  F   UNL     1       4.834   5.567  15.922  0.00  0.00    +0.000 F 
BRANCH  17  20
ATOM     20  C   UNL     1       6.322   5.875  17.749  0.00  0.00    +0.000 C 
ATOM     21  F   UNL     1       6.302   5.823  19.097  0.00  0.00    +0.000 F 
ATOM     22  F   UNL     1       7.590   5.578  17.363  0.00  0.00    +0.000 F 
ATOM     23  F   UNL     1       6.117   7.176  17.409  0.00  0.00    +0.000 F 
ENDBRANCH  17  20
ENDBRANCH   1  17
BRANCH   1  24
ATOM     24  O   UNL     1       3.167   3.770  17.128  0.00  0.00    +0.000 OA
ATOM     25  H   UNL     1       2.801   4.371  16.451  0.00  0.00    +0.000 HD
ENDBRANCH   1  24
TORSDOF 3
ENDMDL
