MODEL 1
REMARK VINA RESULT:     -10.6      0.000      0.000
REMARK  Name = 
REMARK  5 active torsions:
REMARK  status: ('A' for Active; 'I' for Inactive)
REMARK    1  A    between atoms: C_1  and  C_2
REMARK    2  A    between atoms: N_5  and  C_6
REMARK    3  A    between atoms: C_14  and  C_15
REMARK    4  A    between atoms: C_14  and  C_16
REMARK    5  A    between atoms: C_19  and  C_20
REMARK                            x       y       z     vdW  Elec       q    Type
REMARK                         _______ _______ _______ _____ _____    ______ ____
ROOT
ATOM      1  C   UNL     1       4.063   2.819  19.603  0.00  0.00    +0.000 C 
ATOM      2  C   UNL     1       3.432   4.186  19.582  0.00  0.00    +0.000 A 
ATOM      3  C   UNL     1       2.426   4.450  20.579  0.00  0.00    +0.000 A 
ATOM      4  C   UNL     1       1.839   5.644  20.652  0.00  0.00    +0.000 A 
ATOM      5  N   UNL     1       2.183   6.685  19.806  0.00  0.00    +0.000 N 
ATOM      6  C   UNL     1       3.159   6.528  18.805  0.00  0.00    +0.000 A 
ATOM      7  O   UNL     1       3.504   7.418  18.015  0.00  0.00    +0.000 OA
ATOM      8  C   UNL     1       3.786   5.159  18.716  0.00  0.00    +0.000 A 
ENDROOT
BRANCH   8   9
ATOM      9  C   UNL     1       4.862   4.956  17.747  0.00  0.00    +0.000 A 
ATOM     10  C   UNL     1       6.100   5.552  18.010  0.00  0.00    +0.000 A 
ATOM     11  C   UNL     1       7.109   5.500  17.059  0.00  0.00    +0.000 A 
ATOM     12  C   UNL     1       6.874   4.951  15.819  0.00  0.00    +0.000 A 
ATOM     13  N   UNL     1       7.796   5.166  14.894  0.00  0.00    +0.000 NA
ATOM     14  C   UNL     1       7.445   4.905  13.639  0.00  0.00    +0.000 A 
ATOM     15  N   UNL     1       8.098   5.724  12.724  0.00  0.00    +0.000 N 
ATOM     16  N   UNL     1       6.347   4.241  13.265  0.00  0.00    +0.000 NA
ATOM     17  C   UNL     1       5.480   3.922  14.242  0.00  0.00    +0.000 A 
ATOM     18  C   UNL     1       5.647   4.341  15.554  0.00  0.00    +0.000 A 
ATOM     19  C   UNL     1       4.647   4.285  16.538  0.00  0.00    +0.000 A 
ATOM     20  H   UNL     1       7.681   6.632  12.943  0.00  0.00    +0.000 HD
ATOM     21  H   UNL     1       9.040   5.805  13.089  0.00  0.00    +0.000 HD
ENDBRANCH   8   9
BRANCH   5  22
ATOM     22  C   UNL     1       1.602   7.966  20.025  0.00  0.00    +0.000 A 
ATOM     23  C   UNL     1       1.086   8.294  21.291  0.00  0.00    +0.000 A 
ATOM     24  C   UNL     1       0.391   9.485  21.490  0.00  0.00    +0.000 A 
ATOM     25  C   UNL     1       0.305  10.369  20.431  0.00  0.00    +0.000 A 
ATOM     26  C   UNL     1       0.923  10.102  19.216  0.00  0.00    +0.000 A 
ATOM     27  C   UNL     1       1.498   8.872  18.958  0.00  0.00    +0.000 A 
ATOM     28  N   UNL     1       0.864  11.185  18.287  0.00  0.00    +0.000 N 
ATOM     29  C   UNL     1       0.611  12.309  19.233  0.00  0.00    +0.000 C 
ATOM     30  C   UNL     1      -0.289  11.754  20.371  0.00  0.00    +0.000 C 
ATOM     31  C   UNL     1      -1.757  11.769  19.908  0.00  0.00    +0.000 C 
ATOM     32  C   UNL     1      -0.145  12.484  21.703  0.00  0.00    +0.000 C 
ATOM     33  H   UNL     1       0.052  11.022  17.689  0.00  0.00    +0.000 HD
ENDBRANCH   5  22
TORSDOF 2
ENDMDL
MODEL 2
REMARK VINA RESULT:     -10.3      0.919      1.515
REMARK  Name = 
REMARK  5 active torsions:
REMARK  status: ('A' for Active; 'I' for Inactive)
REMARK    1  A    between atoms: C_1  and  C_2
REMARK    2  A    between atoms: N_5  and  C_6
REMARK    3  A    between atoms: C_14  and  C_15
REMARK    4  A    between atoms: C_14  and  C_16
REMARK    5  A    between atoms: C_19  and  C_20
REMARK                            x       y       z     vdW  Elec       q    Type
REMARK                         _______ _______ _______ _____ _____    ______ ____
ROOT
ATOM      1  C   UNL     1       4.125   3.013  19.732  0.00  0.00    +0.000 C 
ATOM      2  C   UNL     1       3.457   4.360  19.642  0.00  0.00    +0.000 A 
ATOM      3  C   UNL     1       2.450   4.651  20.630  0.00  0.00    +0.000 A 
ATOM      4  C   UNL     1       1.831   5.831  20.643  0.00  0.00    +0.000 A 
ATOM      5  N   UNL     1       2.143   6.834  19.739  0.00  0.00    +0.000 N 
ATOM      6  C   UNL     1       3.116   6.648  18.741  0.00  0.00    +0.000 A 
ATOM      7  O   UNL     1       3.433   7.502  17.901  0.00  0.00    +0.000 OA
ATOM      8  C   UNL     1       3.781   5.294  18.722  0.00  0.00    +0.000 A 
ENDROOT
BRANCH   8   9
ATOM      9  C   UNL     1       4.856   5.066  17.758  0.00  0.00    +0.000 A 
ATOM     10  C   UNL     1       6.092   5.674  18.003  0.00  0.00    +0.000 A 
ATOM     11  C   UNL     1       7.100   5.599  17.052  0.00  0.00    +0.000 A 
ATOM     12  C   UNL     1       6.866   5.014  15.829  0.00  0.00    +0.000 A 
ATOM     13  N   UNL     1       7.786   5.206  14.896  0.00  0.00    +0.000 NA
ATOM     14  C   UNL     1       7.435   4.908  13.650  0.00  0.00    +0.000 A 
ATOM     15  N   UNL     1       8.084   5.703  12.711  0.00  0.00    +0.000 N 
ATOM     16  N   UNL     1       6.339   4.230  13.296  0.00  0.00    +0.000 NA
ATOM     17  C   UNL     1       5.473   3.936  14.283  0.00  0.00    +0.000 A 
ATOM     18  C   UNL     1       5.640   4.392  15.582  0.00  0.00    +0.000 A 
ATOM     19  C   UNL     1       4.641   4.361  16.568  0.00  0.00    +0.000 A 
ATOM     20  H   UNL     1       7.665   6.615  12.905  0.00  0.00    +0.000 HD
ATOM     21  H   UNL     1       9.026   5.798  13.073  0.00  0.00    +0.000 HD
ENDBRANCH   8   9
BRANCH   5  22
ATOM     22  C   UNL     1       1.529   8.109  19.891  0.00  0.00    +0.000 A 
ATOM     23  C   UNL     1       1.357   8.941  18.770  0.00  0.00    +0.000 A 
ATOM     24  C   UNL     1       0.886  10.244  18.917  0.00  0.00    +0.000 A 
ATOM     25  C   UNL     1       0.510  10.658  20.181  0.00  0.00    +0.000 A 
ATOM     26  C   UNL     1       0.561   9.794  21.269  0.00  0.00    +0.000 A 
ATOM     27  C   UNL     1       1.150   8.548  21.168  0.00  0.00    +0.000 A 
ATOM     28  N   UNL     1      -0.005  10.335  22.463  0.00  0.00    +0.000 N 
ATOM     29  C   UNL     1      -0.866  11.397  21.869  0.00  0.00    +0.000 C 
ATOM     30  C   UNL     1      -0.115  11.955  20.630  0.00  0.00    +0.000 C 
ATOM     31  C   UNL     1       0.916  13.002  21.092  0.00  0.00    +0.000 C 
ATOM     32  C   UNL     1      -1.021  12.543  19.552  0.00  0.00    +0.000 C 
ATOM     33  H   UNL     1       0.761  10.745  22.999  0.00  0.00    +0.000 HD
ENDBRANCH   5  22
TORSDOF 2
ENDMDL
MODEL 3
REMARK VINA RESULT:      -9.3      3.598     10.616
REMARK  Name = 
REMARK  5 active torsions:
REMARK  status: ('A' for Active; 'I' for Inactive)
REMARK    1  A    between atoms: C_1  and  C_2
REMARK    2  A    between atoms: N_5  and  C_6
REMARK    3  A    between atoms: C_14  and  C_15
REMARK    4  A    between atoms: C_14  and  C_16
REMARK    5  A    between atoms: C_19  and  C_20
REMARK                            x       y       z     vdW  Elec       q    Type
REMARK                         _______ _______ _______ _____ _____    ______ ____
ROOT
ATOM      1  C   UNL     1      -0.484  14.846  20.001  0.00  0.00    +0.000 C 
ATOM      2  C   UNL     1      -0.085  13.430  19.677  0.00  0.00    +0.000 A 
ATOM      3  C   UNL     1       1.281  13.219  19.269  0.00  0.00    +0.000 A 
ATOM      4  C   UNL     1       1.726  11.994  18.994  0.00  0.00    +0.000 A 
ATOM      5  N   UNL     1       0.919  10.875  19.115  0.00  0.00    +0.000 N 
ATOM      6  C   UNL     1      -0.427  10.977  19.512  0.00  0.00    +0.000 A 
ATOM      7  O   UNL     1      -1.199  10.015  19.631  0.00  0.00    +0.000 OA
ATOM      8  C   UNL     1      -0.921  12.376  19.785  0.00  0.00    +0.000 A 
ENDROOT
BRANCH   8   9
ATOM      9  C   UNL     1      -2.288  12.540  20.277  0.00  0.00    +0.000 A 
ATOM     10  C   UNL     1      -2.479  12.625  21.660  0.00  0.00    +0.000 A 
ATOM     11  C   UNL     1      -3.765  12.647  22.182  0.00  0.00    +0.000 A 
ATOM     12  C   UNL     1      -4.856  12.489  21.358  0.00  0.00    +0.000 A 
ATOM     13  N   UNL     1      -6.018  12.269  21.953  0.00  0.00    +0.000 NA
ATOM     14  C   UNL     1      -7.002  11.824  21.180  0.00  0.00    +0.000 A 
ATOM     15  N   UNL     1      -7.893  11.008  21.869  0.00  0.00    +0.000 N 
ATOM     16  N   UNL     1      -6.986  11.801  19.843  0.00  0.00    +0.000 NA
ATOM     17  C   UNL     1      -5.828  12.149  19.254  0.00  0.00    +0.000 A 
ATOM     18  C   UNL     1      -4.675  12.419  19.976  0.00  0.00    +0.000 A 
ATOM     19  C   UNL     1      -3.390  12.503  19.416  0.00  0.00    +0.000 A 
ATOM     20  H   UNL     1      -7.304  10.195  22.061  0.00  0.00    +0.000 HD
ATOM     21  H   UNL     1      -7.983  11.450  22.778  0.00  0.00    +0.000 HD
ENDBRANCH   8   9
BRANCH   5  22
ATOM     22  C   UNL     1       1.498   9.588  18.924  0.00  0.00    +0.000 A 
ATOM     23  C   UNL     1       2.091   9.265  17.690  0.00  0.00    +0.000 A 
ATOM     24  C   UNL     1       2.540   7.971  17.434  0.00  0.00    +0.000 A 
ATOM     25  C   UNL     1       2.465   7.045  18.458  0.00  0.00    +0.000 A 
ATOM     26  C   UNL     1       1.994   7.398  19.717  0.00  0.00    +0.000 A 
ATOM     27  C   UNL     1       1.422   8.634  19.949  0.00  0.00    +0.000 A 
ATOM     28  N   UNL     1       2.128   6.365  20.695  0.00  0.00    +0.000 N 
ATOM     29  C   UNL     1       3.191   5.546  20.044  0.00  0.00    +0.000 C 
ATOM     30  C   UNL     1       2.951   5.618  18.512  0.00  0.00    +0.000 C 
ATOM     31  C   UNL     1       1.873   4.591  18.120  0.00  0.00    +0.000 C 
ATOM     32  C   UNL     1       4.205   5.421  17.665  0.00  0.00    +0.000 C 
ATOM     33  H   UNL     1       1.242   5.859  20.718  0.00  0.00    +0.000 HD
ENDBRANCH   5  22
TORSDOF 2
ENDMDL
MODEL 4
REMARK VINA RESULT:      -9.3      3.595     10.486
REMARK  Name = 
REMARK  5 active torsions:
REMARK  status: ('A' for Active; 'I' for Inactive)
REMARK    1  A    between atoms: C_1  and  C_2
REMARK    2  A    between atoms: N_5  and  C_6
REMARK    3  A    between atoms: C_14  and  C_15
REMARK    4  A    between atoms: C_14  and  C_16
REMARK    5  A    between atoms: C_19  and  C_20
REMARK                            x       y       z     vdW  Elec       q    Type
REMARK                         _______ _______ _______ _____ _____    ______ ____
ROOT
ATOM      1  C   UNL     1       0.605  14.550  19.427  0.00  0.00    +0.000 C 
ATOM      2  C   UNL     1       0.792  13.061  19.304  0.00  0.00    +0.000 A 
ATOM      3  C   UNL     1       1.839  12.610  18.422  0.00  0.00    +0.000 A 
ATOM      4  C   UNL     1       2.093  11.310  18.278  0.00  0.00    +0.000 A 
ATOM      5  N   UNL     1       1.395  10.343  18.982  0.00  0.00    +0.000 N 
ATOM      6  C   UNL     1       0.360  10.683  19.871  0.00  0.00    +0.000 A 
ATOM      7  O   UNL     1      -0.304   9.864  20.522  0.00  0.00    +0.000 OA
ATOM      8  C   UNL     1       0.064  12.157  19.994  0.00  0.00    +0.000 A 
ENDROOT
BRANCH   8   9
ATOM      9  C   UNL     1      -0.948  12.579  20.961  0.00  0.00    +0.000 A 
ATOM     10  C   UNL     1      -0.531  12.840  22.270  0.00  0.00    +0.000 A 
ATOM     11  C   UNL     1      -1.471  13.113  23.255  0.00  0.00    +0.000 A 
ATOM     12  C   UNL     1      -2.817  13.035  22.976  0.00  0.00    +0.000 A 
ATOM     13  N   UNL     1      -3.637  13.059  24.016  0.00  0.00    +0.000 NA
ATOM     14  C   UNL     1      -4.892  12.688  23.786  0.00  0.00    +0.000 A 
ATOM     15  N   UNL     1      -5.482  12.096  24.897  0.00  0.00    +0.000 N 
ATOM     16  N   UNL     1      -5.440  12.520  22.579  0.00  0.00    +0.000 NA
ATOM     17  C   UNL     1      -4.610  12.623  21.526  0.00  0.00    +0.000 A 
ATOM     18  C   UNL     1      -3.240  12.790  21.669  0.00  0.00    +0.000 A 
ATOM     19  C   UNL     1      -2.308  12.618  20.634  0.00  0.00    +0.000 A 
ATOM     20  H   UNL     1      -4.946  11.228  24.963  0.00  0.00    +0.000 HD
ATOM     21  H   UNL     1      -5.141  12.641  25.682  0.00  0.00    +0.000 HD
ENDBRANCH   8   9
BRANCH   5  22
ATOM     22  C   UNL     1       1.805   8.984  18.869  0.00  0.00    +0.000 A 
ATOM     23  C   UNL     1       2.265   8.493  17.634  0.00  0.00    +0.000 A 
ATOM     24  C   UNL     1       2.540   7.138  17.465  0.00  0.00    +0.000 A 
ATOM     25  C   UNL     1       2.433   6.313  18.569  0.00  0.00    +0.000 A 
ATOM     26  C   UNL     1       2.100   6.820  19.820  0.00  0.00    +0.000 A 
ATOM     27  C   UNL     1       1.694   8.132  19.977  0.00  0.00    +0.000 A 
ATOM     28  N   UNL     1       2.183   5.861  20.874  0.00  0.00    +0.000 N 
ATOM     29  C   UNL     1       3.094   4.868  20.233  0.00  0.00    +0.000 C 
ATOM     30  C   UNL     1       2.752   4.846  18.719  0.00  0.00    +0.000 C 
ATOM     31  C   UNL     1       1.536   3.930  18.487  0.00  0.00    +0.000 C 
ATOM     32  C   UNL     1       3.909   4.430  17.815  0.00  0.00    +0.000 C 
ATOM     33  H   UNL     1       1.248   5.470  20.998  0.00  0.00    +0.000 HD
ENDBRANCH   5  22
TORSDOF 2
ENDMDL
MODEL 5
REMARK VINA RESULT:      -9.1      3.729     11.013
REMARK  Name = 
REMARK  5 active torsions:
REMARK  status: ('A' for Active; 'I' for Inactive)
REMARK    1  A    between atoms: C_1  and  C_2
REMARK    2  A    between atoms: N_5  and  C_6
REMARK    3  A    between atoms: C_14  and  C_15
REMARK    4  A    between atoms: C_14  and  C_16
REMARK    5  A    between atoms: C_19  and  C_20
REMARK                            x       y       z     vdW  Elec       q    Type
REMARK                         _______ _______ _______ _____ _____    ______ ____
ROOT
ATOM      1  C   UNL     1      -0.369  14.629  20.926  0.00  0.00    +0.000 C 
ATOM      2  C   UNL     1       0.016  13.263  20.422  0.00  0.00    +0.000 A 
ATOM      3  C   UNL     1       1.361  13.109  19.929  0.00  0.00    +0.000 A 
ATOM      4  C   UNL     1       1.794  11.927  19.493  0.00  0.00    +0.000 A 
ATOM      5  N   UNL     1       0.995  10.796  19.522  0.00  0.00    +0.000 N 
ATOM      6  C   UNL     1      -0.329  10.843  19.992  0.00  0.00    +0.000 A 
ATOM      7  O   UNL     1      -1.094   9.868  20.035  0.00  0.00    +0.000 OA
ATOM      8  C   UNL     1      -0.812  12.197  20.448  0.00  0.00    +0.000 A 
ENDROOT
BRANCH   8   9
ATOM      9  C   UNL     1      -2.154  12.294  21.019  0.00  0.00    +0.000 A 
ATOM     10  C   UNL     1      -3.193  12.709  20.179  0.00  0.00    +0.000 A 
ATOM     11  C   UNL     1      -4.456  12.946  20.705  0.00  0.00    +0.000 A 
ATOM     12  C   UNL     1      -4.673  12.869  22.061  0.00  0.00    +0.000 A 
ATOM     13  N   UNL     1      -5.825  13.350  22.503  0.00  0.00    +0.000 NA
ATOM     14  C   UNL     1      -5.917  13.554  23.812  0.00  0.00    +0.000 A 
ATOM     15  N   UNL     1      -6.766  14.609  24.128  0.00  0.00    +0.000 N 
ATOM     16  N   UNL     1      -5.051  13.107  24.727  0.00  0.00    +0.000 NA
ATOM     17  C   UNL     1      -3.942  12.508  24.258  0.00  0.00    +0.000 A 
ATOM     18  C   UNL     1      -3.646  12.441  22.904  0.00  0.00    +0.000 A 
ATOM     19  C   UNL     1      -2.390  12.092  22.383  0.00  0.00    +0.000 A 
ATOM     20  H   UNL     1      -6.234  15.403  23.763  0.00  0.00    +0.000 HD
ATOM     21  H   UNL     1      -7.532  14.519  23.469  0.00  0.00    +0.000 HD
ENDBRANCH   8   9
BRANCH   5  22
ATOM     22  C   UNL     1       1.567   9.544  19.156  0.00  0.00    +0.000 A 
ATOM     23  C   UNL     1       2.037   9.346  17.846  0.00  0.00    +0.000 A 
ATOM     24  C   UNL     1       2.472   8.091  17.428  0.00  0.00    +0.000 A 
ATOM     25  C   UNL     1       2.510   7.074  18.364  0.00  0.00    +0.000 A 
ATOM     26  C   UNL     1       2.164   7.301  19.691  0.00  0.00    +0.000 A 
ATOM     27  C   UNL     1       1.604   8.499  20.091  0.00  0.00    +0.000 A 
ATOM     28  N   UNL     1       2.405   6.186  20.550  0.00  0.00    +0.000 N 
ATOM     29  C   UNL     1       3.407   5.451  19.725  0.00  0.00    +0.000 C 
ATOM     30  C   UNL     1       3.015   5.658  18.237  0.00  0.00    +0.000 C 
ATOM     31  C   UNL     1       1.914   4.650  17.859  0.00  0.00    +0.000 C 
ATOM     32  C   UNL     1       4.179   5.564  17.256  0.00  0.00    +0.000 C 
ATOM     33  H   UNL     1       1.532   5.662  20.613  0.00  0.00    +0.000 HD
ENDBRANCH   5  22
TORSDOF 2
ENDMDL
MODEL 6
REMARK VINA RESULT:      -8.7      3.748      7.053
REMARK  Name = 
REMARK  5 active torsions:
REMARK  status: ('A' for Active; 'I' for Inactive)
REMARK    1  A    between atoms: C_1  and  C_2
REMARK    2  A    between atoms: N_5  and  C_6
REMARK    3  A    between atoms: C_14  and  C_15
REMARK    4  A    between atoms: C_14  and  C_16
REMARK    5  A    between atoms: C_19  and  C_20
REMARK                            x       y       z     vdW  Elec       q    Type
REMARK                         _______ _______ _______ _____ _____    ______ ____
ROOT
ATOM      1  C   UNL     1       2.639  12.329  18.195  0.00  0.00    +0.000 C 
ATOM      2  C   UNL     1       1.201  12.218  18.631  0.00  0.00    +0.000 A 
ATOM      3  C   UNL     1       0.422  13.429  18.609  0.00  0.00    +0.000 A 
ATOM      4  C   UNL     1      -0.867  13.415  18.948  0.00  0.00    +0.000 A 
ATOM      5  N   UNL     1      -1.519  12.246  19.304  0.00  0.00    +0.000 N 
ATOM      6  C   UNL     1      -0.846  11.012  19.349  0.00  0.00    +0.000 A 
ATOM      7  O   UNL     1      -1.373   9.936  19.666  0.00  0.00    +0.000 OA
ATOM      8  C   UNL     1       0.619  11.055  18.995  0.00  0.00    +0.000 A 
ENDROOT
BRANCH   8   9
ATOM      9  C   UNL     1       1.355   9.793  18.948  0.00  0.00    +0.000 A 
ATOM     10  C   UNL     1       1.913   9.407  17.724  0.00  0.00    +0.000 A 
ATOM     11  C   UNL     1       2.504   8.158  17.596  0.00  0.00    +0.000 A 
ATOM     12  C   UNL     1       2.462   7.255  18.634  0.00  0.00    +0.000 A 
ATOM     13  N   UNL     1       2.818   6.012  18.349  0.00  0.00    +0.000 NA
ATOM     14  C   UNL     1       2.500   5.086  19.247  0.00  0.00    +0.000 A 
ATOM     15  N   UNL     1       2.264   3.844  18.669  0.00  0.00    +0.000 N 
ATOM     16  N   UNL     1       2.068   5.329  20.489  0.00  0.00    +0.000 NA
ATOM     17  C   UNL     1       1.830   6.616  20.797  0.00  0.00    +0.000 A 
ATOM     18  C   UNL     1       1.921   7.637  19.862  0.00  0.00    +0.000 A 
ATOM     19  C   UNL     1       1.414   8.933  20.050  0.00  0.00    +0.000 A 
ATOM     20  H   UNL     1       1.403   4.031  18.150  0.00  0.00    +0.000 HD
ATOM     21  H   UNL     1       2.965   3.770  17.940  0.00  0.00    +0.000 HD
ENDBRANCH   8   9
BRANCH   5  22
ATOM     22  C   UNL     1      -2.923  12.288  19.534  0.00  0.00    +0.000 A 
ATOM     23  C   UNL     1      -3.418  12.788  20.752  0.00  0.00    +0.000 A 
ATOM     24  C   UNL     1      -4.776  12.712  21.053  0.00  0.00    +0.000 A 
ATOM     25  C   UNL     1      -5.628  12.214  20.085  0.00  0.00    +0.000 A 
ATOM     26  C   UNL     1      -5.155  11.836  18.834  0.00  0.00    +0.000 A 
ATOM     27  C   UNL     1      -3.801  11.778  18.566  0.00  0.00    +0.000 A 
ATOM     28  N   UNL     1      -6.185  11.491  17.907  0.00  0.00    +0.000 N 
ATOM     29  C   UNL     1      -7.337  12.191  18.546  0.00  0.00    +0.000 C 
ATOM     30  C   UNL     1      -7.132  12.100  20.083  0.00  0.00    +0.000 C 
ATOM     31  C   UNL     1      -7.640  10.735  20.581  0.00  0.00    +0.000 C 
ATOM     32  C   UNL     1      -7.780  13.230  20.876  0.00  0.00    +0.000 C 
ATOM     33  H   UNL     1      -6.303  10.478  17.954  0.00  0.00    +0.000 HD
ENDBRANCH   5  22
TORSDOF 2
ENDMDL
MODEL 7
REMARK VINA RESULT:      -8.6      3.159     10.285
REMARK  Name = 
REMARK  5 active torsions:
REMARK  status: ('A' for Active; 'I' for Inactive)
REMARK    1  A    between atoms: C_1  and  C_2
REMARK    2  A    between atoms: N_5  and  C_6
REMARK    3  A    between atoms: C_14  and  C_15
REMARK    4  A    between atoms: C_14  and  C_16
REMARK    5  A    between atoms: C_19  and  C_20
REMARK                            x       y       z     vdW  Elec       q    Type
REMARK                         _______ _______ _______ _____ _____    ______ ____
ROOT
ATOM      1  C   UNL     1       0.747  13.746  18.946  0.00  0.00    +0.000 C 
ATOM      2  C   UNL     1       0.899  12.251  19.045  0.00  0.00    +0.000 A 
ATOM      3  C   UNL     1       1.896  11.644  18.200  0.00  0.00    +0.000 A 
ATOM      4  C   UNL     1       2.118  10.331  18.247  0.00  0.00    +0.000 A 
ATOM      5  N   UNL     1       1.433   9.501  19.120  0.00  0.00    +0.000 N 
ATOM      6  C   UNL     1       0.446  10.000  19.988  0.00  0.00    +0.000 A 
ATOM      7  O   UNL     1      -0.205   9.308  20.784  0.00  0.00    +0.000 OA
ATOM      8  C   UNL     1       0.185  11.483  19.895  0.00  0.00    +0.000 A 
ENDROOT
BRANCH   8   9
ATOM      9  C   UNL     1      -0.775  12.074  20.826  0.00  0.00    +0.000 A 
ATOM     10  C   UNL     1      -0.337  12.354  22.125  0.00  0.00    +0.000 A 
ATOM     11  C   UNL     1      -1.242  12.789  23.082  0.00  0.00    +0.000 A 
ATOM     12  C   UNL     1      -2.586  12.857  22.793  0.00  0.00    +0.000 A 
ATOM     13  N   UNL     1      -3.402  13.035  23.820  0.00  0.00    +0.000 NA
ATOM     14  C   UNL     1      -4.692  12.804  23.597  0.00  0.00    +0.000 A 
ATOM     15  N   UNL     1      -5.354  12.347  24.731  0.00  0.00    +0.000 N 
ATOM     16  N   UNL     1      -5.250  12.637  22.394  0.00  0.00    +0.000 NA
ATOM     17  C   UNL     1      -4.408  12.583  21.346  0.00  0.00    +0.000 A 
ATOM     18  C   UNL     1      -3.029  12.594  21.496  0.00  0.00    +0.000 A 
ATOM     19  C   UNL     1      -2.119  12.256  20.482  0.00  0.00    +0.000 A 
ATOM     20  H   UNL     1      -4.926  11.426  24.849  0.00  0.00    +0.000 HD
ATOM     21  H   UNL     1      -4.954  12.889  25.489  0.00  0.00    +0.000 HD
ENDBRANCH   8   9
BRANCH   5  22
ATOM     22  C   UNL     1       1.811   8.131  19.200  0.00  0.00    +0.000 A 
ATOM     23  C   UNL     1       1.548   7.401  20.373  0.00  0.00    +0.000 A 
ATOM     24  C   UNL     1       2.030   6.102  20.526  0.00  0.00    +0.000 A 
ATOM     25  C   UNL     1       2.693   5.528  19.458  0.00  0.00    +0.000 A 
ATOM     26  C   UNL     1       2.844   6.204  18.253  0.00  0.00    +0.000 A 
ATOM     27  C   UNL     1       2.494   7.535  18.129  0.00  0.00    +0.000 A 
ATOM     28  N   UNL     1       3.415   5.411  17.212  0.00  0.00    +0.000 N 
ATOM     29  C   UNL     1       3.116   4.051  17.746  0.00  0.00    +0.000 C 
ATOM     30  C   UNL     1       3.236   4.130  19.292  0.00  0.00    +0.000 C 
ATOM     31  C   UNL     1       4.717   3.999  19.693  0.00  0.00    +0.000 C 
ATOM     32  C   UNL     1       2.390   3.108  20.045  0.00  0.00    +0.000 C 
ATOM     33  H   UNL     1       4.420   5.591  17.216  0.00  0.00    +0.000 HD
ENDBRANCH   5  22
TORSDOF 2
ENDMDL
MODEL 8
REMARK VINA RESULT:      -8.6      3.330     10.416
REMARK  Name = 
REMARK  5 active torsions:
REMARK  status: ('A' for Active; 'I' for Inactive)
REMARK    1  A    between atoms: C_1  and  C_2
REMARK    2  A    between atoms: N_5  and  C_6
REMARK    3  A    between atoms: C_14  and  C_15
REMARK    4  A    between atoms: C_14  and  C_16
REMARK    5  A    between atoms: C_19  and  C_20
REMARK                            x       y       z     vdW  Elec       q    Type
REMARK                         _______ _______ _______ _____ _____    ______ ____
ROOT
ATOM      1  C   UNL     1      -0.128  14.422  19.099  0.00  0.00    +0.000 C 
ATOM      2  C   UNL     1       0.222  12.958  19.070  0.00  0.00    +0.000 A 
ATOM      3  C   UNL     1       1.532  12.614  18.579  0.00  0.00    +0.000 A 
ATOM      4  C   UNL     1       1.934  11.344  18.548  0.00  0.00    +0.000 A 
ATOM      5  N   UNL     1       1.137  10.310  19.010  0.00  0.00    +0.000 N 
ATOM      6  C   UNL     1      -0.154  10.545  19.514  0.00  0.00    +0.000 A 
ATOM      7  O   UNL     1      -0.916   9.662  19.934  0.00  0.00    +0.000 OA
ATOM      8  C   UNL     1      -0.605  11.984  19.508  0.00  0.00    +0.000 A 
ENDROOT
BRANCH   8   9
ATOM      9  C   UNL     1      -1.907  12.302  20.092  0.00  0.00    +0.000 A 
ATOM     10  C   UNL     1      -1.987  12.427  21.483  0.00  0.00    +0.000 A 
ATOM     11  C   UNL     1      -3.221  12.594  22.094  0.00  0.00    +0.000 A 
ATOM     12  C   UNL     1      -4.380  12.544  21.352  0.00  0.00    +0.000 A 
ATOM     13  N   UNL     1      -5.513  12.458  22.033  0.00  0.00    +0.000 NA
ATOM     14  C   UNL     1      -6.592  12.111  21.341  0.00  0.00    +0.000 A 
ATOM     15  N   UNL     1      -7.512  11.406  22.109  0.00  0.00    +0.000 N 
ATOM     16  N   UNL     1      -6.676  12.068  20.007  0.00  0.00    +0.000 NA
ATOM     17  C   UNL     1      -5.534  12.281  19.330  0.00  0.00    +0.000 A 
ATOM     18  C   UNL     1      -4.308  12.435  19.962  0.00  0.00    +0.000 A 
ATOM     19  C   UNL     1      -3.066  12.373  19.311  0.00  0.00    +0.000 A 
ATOM     20  H   UNL     1      -7.001  10.536  22.276  0.00  0.00    +0.000 HD
ATOM     21  H   UNL     1      -7.489  11.867  23.012  0.00  0.00    +0.000 HD
ENDBRANCH   8   9
BRANCH   5  22
ATOM     22  C   UNL     1       1.682   8.995  19.061  0.00  0.00    +0.000 A 
ATOM     23  C   UNL     1       1.496   8.205  20.209  0.00  0.00    +0.000 A 
ATOM     24  C   UNL     1       2.134   6.973  20.336  0.00  0.00    +0.000 A 
ATOM     25  C   UNL     1       2.879   6.516  19.264  0.00  0.00    +0.000 A 
ATOM     26  C   UNL     1       2.959   7.240  18.080  0.00  0.00    +0.000 A 
ATOM     27  C   UNL     1       2.448   8.520  17.986  0.00  0.00    +0.000 A 
ATOM     28  N   UNL     1       3.639   6.554  17.028  0.00  0.00    +0.000 N 
ATOM     29  C   UNL     1       3.505   5.152  17.521  0.00  0.00    +0.000 C 
ATOM     30  C   UNL     1       3.593   5.202  19.070  0.00  0.00    +0.000 C 
ATOM     31  C   UNL     1       5.073   5.244  19.492  0.00  0.00    +0.000 C 
ATOM     32  C   UNL     1       2.871   4.062  19.782  0.00  0.00    +0.000 C 
ATOM     33  H   UNL     1       4.613   6.857  17.054  0.00  0.00    +0.000 HD
ENDBRANCH   5  22
TORSDOF 2
ENDMDL
MODEL 9
REMARK VINA RESULT:      -8.4      3.321      6.607
REMARK  Name = 
REMARK  5 active torsions:
REMARK  status: ('A' for Active; 'I' for Inactive)
REMARK    1  A    between atoms: C_1  and  C_2
REMARK    2  A    between atoms: N_5  and  C_6
REMARK    3  A    between atoms: C_14  and  C_15
REMARK    4  A    between atoms: C_14  and  C_16
REMARK    5  A    between atoms: C_19  and  C_20
REMARK                            x       y       z     vdW  Elec       q    Type
REMARK                         _______ _______ _______ _____ _____    ______ ____
ROOT
ATOM      1  C   UNL     1       2.699  11.756  18.164  0.00  0.00    +0.000 C 
ATOM      2  C   UNL     1       1.243  11.767  18.552  0.00  0.00    +0.000 A 
ATOM      3  C   UNL     1       0.555  13.029  18.446  0.00  0.00    +0.000 A 
ATOM      4  C   UNL     1      -0.742  13.121  18.739  0.00  0.00    +0.000 A 
ATOM      5  N   UNL     1      -1.488  12.020  19.123  0.00  0.00    +0.000 N 
ATOM      6  C   UNL     1      -0.908  10.745  19.249  0.00  0.00    +0.000 A 
ATOM      7  O   UNL     1      -1.521   9.725  19.596  0.00  0.00    +0.000 OA
ATOM      8  C   UNL     1       0.567  10.668  18.947  0.00  0.00    +0.000 A 
ENDROOT
BRANCH   8   9
ATOM      9  C   UNL     1       1.211   9.355  18.984  0.00  0.00    +0.000 A 
ATOM     10  C   UNL     1       1.237   8.675  20.206  0.00  0.00    +0.000 A 
ATOM     11  C   UNL     1       1.951   7.491  20.325  0.00  0.00    +0.000 A 
ATOM     12  C   UNL     1       2.714   7.028  19.277  0.00  0.00    +0.000 A 
ATOM     13  N   UNL     1       3.555   6.042  19.550  0.00  0.00    +0.000 NA
ATOM     14  C   UNL     1       4.491   5.796  18.641  0.00  0.00    +0.000 A 
ATOM     15  N   UNL     1       5.663   5.303  19.205  0.00  0.00    +0.000 N 
ATOM     16  N   UNL     1       4.514   6.292  17.400  0.00  0.00    +0.000 NA
ATOM     17  C   UNL     1       3.571   7.204  17.104  0.00  0.00    +0.000 A 
ATOM     18  C   UNL     1       2.682   7.692  18.050  0.00  0.00    +0.000 A 
ATOM     19  C   UNL     1       1.882   8.832  17.873  0.00  0.00    +0.000 A 
ATOM     20  H   UNL     1       5.990   6.122  19.722  0.00  0.00    +0.000 HD
ATOM     21  H   UNL     1       5.344   4.677  19.936  0.00  0.00    +0.000 HD
ENDBRANCH   8   9
BRANCH   5  22
ATOM     22  C   UNL     1      -2.893  12.172  19.300  0.00  0.00    +0.000 A 
ATOM     23  C   UNL     1      -3.388  12.812  20.451  0.00  0.00    +0.000 A 
ATOM     24  C   UNL     1      -4.756  12.851  20.711  0.00  0.00    +0.000 A 
ATOM     25  C   UNL     1      -5.611  12.321  19.762  0.00  0.00    +0.000 A 
ATOM     26  C   UNL     1      -5.129  11.801  18.567  0.00  0.00    +0.000 A 
ATOM     27  C   UNL     1      -3.774  11.632  18.352  0.00  0.00    +0.000 A 
ATOM     28  N   UNL     1      -6.153  11.438  17.640  0.00  0.00    +0.000 N 
ATOM     29  C   UNL     1      -7.273  12.265  18.173  0.00  0.00    +0.000 C 
ATOM     30  C   UNL     1      -7.118  12.303  19.718  0.00  0.00    +0.000 C 
ATOM     31  C   UNL     1      -7.731  11.024  20.319  0.00  0.00    +0.000 C 
ATOM     32  C   UNL     1      -7.713  13.540  20.384  0.00  0.00    +0.000 C 
ATOM     33  H   UNL     1      -6.339  10.444  17.773  0.00  0.00    +0.000 HD
ENDBRANCH   5  22
TORSDOF 2
ENDMDL
