MODEL 1
REMARK VINA RESULT:      -8.0      0.000      0.000
REMARK  Name = 
REMARK  8 active torsions:
REMARK  status: ('A' for Active; 'I' for Inactive)
REMARK    1  A    between atoms: C_1  and  N_2
REMARK    2  A    between atoms: N_2  and  C_3
REMARK    3  A    between atoms: C_6  and  O_7
REMARK    4  A    between atoms: O_7  and  C_8
REMARK    5  A    between atoms: C_8  and  C_10
REMARK    6  A    between atoms: C_10  and  O_11
REMARK    7  A    between atoms: C_10  and  C_12
REMARK    8  A    between atoms: C_10  and  C_18
REMARK                            x       y       z     vdW  Elec       q    Type
REMARK                         _______ _______ _______ _____ _____    ______ ____
ROOT
ATOM      1  C   UNL     1       3.127   4.593  18.117  0.00  0.00    +0.000 C 
ENDROOT
BRANCH   1   2
ATOM      2  C   UNL     1       4.217   4.745  17.041  0.00  0.00    +0.000 A 
ATOM      3  C   UNL     1       4.536   6.019  16.522  0.00  0.00    +0.000 A 
ATOM      4  C   UNL     1       5.526   6.166  15.548  0.00  0.00    +0.000 A 
ATOM      5  C   UNL     1       6.220   5.051  15.078  0.00  0.00    +0.000 A 
ATOM      6  C   UNL     1       5.926   3.784  15.581  0.00  0.00    +0.000 A 
ATOM      7  C   UNL     1       4.936   3.628  16.553  0.00  0.00    +0.000 A 
ENDBRANCH   1   2
BRANCH   1   8
ATOM      8  C   UNL     1       3.206   3.126  18.708  0.00  0.00    +0.000 C 
ATOM      9  C   UNL     1       3.571   3.016  20.213  0.00  0.00    +0.000 C 
ATOM     10  C   UNL     1       2.427   3.466  21.137  0.00  0.00    +0.000 C 
ATOM     11  C   UNL     1       1.142   2.669  20.843  0.00  0.00    +0.000 C 
ATOM     12  C   UNL     1       0.738   2.762  19.363  0.00  0.00    +0.000 C 
ATOM     13  C   UNL     1       1.906   2.299  18.470  0.00  0.00    +0.000 C 
ENDBRANCH   1   8
BRANCH   1  14
ATOM     14  C   UNL     1       3.356   5.653  19.191  0.00  0.00    +0.000 C 
ATOM     15  O   UNL     1       4.464   5.759  19.700  0.00  0.00    +0.000 OA
BRANCH  14  16
ATOM     16  O   UNL     1       2.327   6.436  19.627  0.00  0.00    +0.000 OA
BRANCH  16  22
ATOM     17  C   UNL     1       1.064  11.875  18.881  0.00  0.00    +0.000 C 
ATOM     18  N   UNL     1       0.898  10.401  18.892  0.00  0.00    +0.000 N 
ATOM     19  C   UNL     1      -0.472  10.105  18.397  0.00  0.00    +0.000 C 
ATOM     20  C   UNL     1       1.937   9.805  17.998  0.00  0.00    +0.000 C 
ATOM     21  C   UNL     1       1.992   8.264  18.070  0.00  0.00    +0.000 C 
ATOM     22  C   UNL     1       2.222   7.821  19.521  0.00  0.00    +0.000 C 
ATOM     23  C   UNL     1       1.114   8.394  20.427  0.00  0.00    +0.000 C 
ATOM     24  C   UNL     1       1.082   9.929  20.298  0.00  0.00    +0.000 C 
ENDBRANCH  16  22
ENDBRANCH  14  16
ENDBRANCH   1  14
BRANCH   1  25
ATOM     25  O   UNL     1       1.849   4.800  17.561  0.00  0.00    +0.000 OA
ATOM     26  H   UNL     1       1.672   5.774  17.496  0.00  0.00    +0.000 HD
ENDBRANCH   1  25
TORSDOF 6
ENDMDL
MODEL 2
REMARK VINA RESULT:      -7.8      1.321      1.656
REMARK  Name = 
REMARK  8 active torsions:
REMARK  status: ('A' for Active; 'I' for Inactive)
REMARK    1  A    between atoms: C_1  and  N_2
REMARK    2  A    between atoms: N_2  and  C_3
REMARK    3  A    between atoms: C_6  and  O_7
REMARK    4  A    between atoms: O_7  and  C_8
REMARK    5  A    between atoms: C_8  and  C_10
REMARK    6  A    between atoms: C_10  and  O_11
REMARK    7  A    between atoms: C_10  and  C_12
REMARK    8  A    between atoms: C_10  and  C_18
REMARK                            x       y       z     vdW  Elec       q    Type
REMARK                         _______ _______ _______ _____ _____    ______ ____
ROOT
ATOM      1  C   UNL     1       3.380   5.143  18.221  0.00  0.00    +0.000 C 
ENDROOT
BRANCH   1   2
ATOM      2  C   UNL     1       4.710   4.826  17.513  0.00  0.00    +0.000 A 
ATOM      3  C   UNL     1       4.714   4.279  16.211  0.00  0.00    +0.000 A 
ATOM      4  C   UNL     1       5.917   3.992  15.561  0.00  0.00    +0.000 A 
ATOM      5  C   UNL     1       7.135   4.249  16.191  0.00  0.00    +0.000 A 
ATOM      6  C   UNL     1       7.155   4.796  17.474  0.00  0.00    +0.000 A 
ATOM      7  C   UNL     1       5.957   5.084  18.131  0.00  0.00    +0.000 A 
ENDBRANCH   1   2
BRANCH   1   8
ATOM      8  C   UNL     1       3.474   4.636  19.718  0.00  0.00    +0.000 C 
ATOM      9  C   UNL     1       2.286   5.015  20.642  0.00  0.00    +0.000 C 
ATOM     10  C   UNL     1       1.005   4.227  20.318  0.00  0.00    +0.000 C 
ATOM     11  C   UNL     1       1.267   2.711  20.385  0.00  0.00    +0.000 C 
ATOM     12  C   UNL     1       2.430   2.290  19.473  0.00  0.00    +0.000 C 
ATOM     13  C   UNL     1       3.695   3.097  19.830  0.00  0.00    +0.000 C 
ENDBRANCH   1   8
BRANCH   1  14
ATOM     14  C   UNL     1       3.138   6.648  18.142  0.00  0.00    +0.000 C 
ATOM     15  O   UNL     1       3.973   7.361  17.599  0.00  0.00    +0.000 OA
BRANCH  14  16
ATOM     16  O   UNL     1       2.037   7.207  18.723  0.00  0.00    +0.000 OA
BRANCH  16  22
ATOM     17  C   UNL     1       0.642  12.359  20.527  0.00  0.00    +0.000 C 
ATOM     18  N   UNL     1       0.481  10.987  19.985  0.00  0.00    +0.000 N 
ATOM     19  C   UNL     1      -0.970  10.775  19.740  0.00  0.00    +0.000 C 
ATOM     20  C   UNL     1       1.263  10.889  18.716  0.00  0.00    +0.000 C 
ATOM     21  C   UNL     1       1.331   9.454  18.150  0.00  0.00    +0.000 C 
ATOM     22  C   UNL     1       1.913   8.507  19.208  0.00  0.00    +0.000 C 
ATOM     23  C   UNL     1       1.066   8.573  20.494  0.00  0.00    +0.000 C 
ATOM     24  C   UNL     1       1.007  10.026  21.001  0.00  0.00    +0.000 C 
ENDBRANCH  16  22
ENDBRANCH  14  16
ENDBRANCH   1  14
BRANCH   1  25
ATOM     25  O   UNL     1       2.309   4.493  17.577  0.00  0.00    +0.000 OA
ATOM     26  H   UNL     1       1.591   5.149  17.387  0.00  0.00    +0.000 HD
ENDBRANCH   1  25
TORSDOF 6
ENDMDL
MODEL 3
REMARK VINA RESULT:      -7.7      1.690      2.454
REMARK  Name = 
REMARK  8 active torsions:
REMARK  status: ('A' for Active; 'I' for Inactive)
REMARK    1  A    between atoms: C_1  and  N_2
REMARK    2  A    between atoms: N_2  and  C_3
REMARK    3  A    between atoms: C_6  and  O_7
REMARK    4  A    between atoms: O_7  and  C_8
REMARK    5  A    between atoms: C_8  and  C_10
REMARK    6  A    between atoms: C_10  and  O_11
REMARK    7  A    between atoms: C_10  and  C_12
REMARK    8  A    between atoms: C_10  and  C_18
REMARK                            x       y       z     vdW  Elec       q    Type
REMARK                         _______ _______ _______ _____ _____    ______ ____
ROOT
ATOM      1  C   UNL     1       3.719   4.899  18.534  0.00  0.00    +0.000 C 
ENDROOT
BRANCH   1   2
ATOM      2  C   UNL     1       5.096   5.571  18.379  0.00  0.00    +0.000 A 
ATOM      3  C   UNL     1       6.152   5.251  19.260  0.00  0.00    +0.000 A 
ATOM      4  C   UNL     1       7.404   5.854  19.123  0.00  0.00    +0.000 A 
ATOM      5  C   UNL     1       7.630   6.780  18.104  0.00  0.00    +0.000 A 
ATOM      6  C   UNL     1       6.604   7.106  17.218  0.00  0.00    +0.000 A 
ATOM      7  C   UNL     1       5.348   6.510  17.349  0.00  0.00    +0.000 A 
ENDBRANCH   1   2
BRANCH   1   8
ATOM      8  C   UNL     1       3.631   4.266  19.983  0.00  0.00    +0.000 C 
ATOM      9  C   UNL     1       2.463   4.766  20.875  0.00  0.00    +0.000 C 
ATOM     10  C   UNL     1       1.094   4.235  20.417  0.00  0.00    +0.000 C 
ATOM     11  C   UNL     1       1.098   2.695  20.361  0.00  0.00    +0.000 C 
ATOM     12  C   UNL     1       2.234   2.158  19.477  0.00  0.00    +0.000 C 
ATOM     13  C   UNL     1       3.587   2.707  19.968  0.00  0.00    +0.000 C 
ENDBRANCH   1   8
BRANCH   1  14
ATOM     14  C   UNL     1       2.639   5.951  18.304  0.00  0.00    +0.000 C 
ATOM     15  O   UNL     1       1.761   5.737  17.477  0.00  0.00    +0.000 OA
BRANCH  14  16
ATOM     16  O   UNL     1       2.678   7.145  18.964  0.00  0.00    +0.000 OA
BRANCH  16  22
ATOM     17  C   UNL     1      -0.975  11.277  20.115  0.00  0.00    +0.000 C 
ATOM     18  N   UNL     1       0.320  10.564  19.992  0.00  0.00    +0.000 N 
ATOM     19  C   UNL     1       1.384  11.492  20.460  0.00  0.00    +0.000 C 
ATOM     20  C   UNL     1       0.263   9.336  20.841  0.00  0.00    +0.000 C 
ATOM     21  C   UNL     1       1.481   8.406  20.653  0.00  0.00    +0.000 C 
ATOM     22  C   UNL     1       1.617   8.024  19.173  0.00  0.00    +0.000 C 
ATOM     23  C   UNL     1       1.733   9.296  18.311  0.00  0.00    +0.000 C 
ATOM     24  C   UNL     1       0.510  10.200  18.555  0.00  0.00    +0.000 C 
ENDBRANCH  16  22
ENDBRANCH  14  16
ENDBRANCH   1  14
BRANCH   1  25
ATOM     25  O   UNL     1       3.554   3.882  17.573  0.00  0.00    +0.000 OA
ATOM     26  H   UNL     1       3.187   3.072  18.011  0.00  0.00    +0.000 HD
ENDBRANCH   1  25
TORSDOF 6
ENDMDL
MODEL 4
REMARK VINA RESULT:      -7.7      1.422      2.160
REMARK  Name = 
REMARK  8 active torsions:
REMARK  status: ('A' for Active; 'I' for Inactive)
REMARK    1  A    between atoms: C_1  and  N_2
REMARK    2  A    between atoms: N_2  and  C_3
REMARK    3  A    between atoms: C_6  and  O_7
REMARK    4  A    between atoms: O_7  and  C_8
REMARK    5  A    between atoms: C_8  and  C_10
REMARK    6  A    between atoms: C_10  and  O_11
REMARK    7  A    between atoms: C_10  and  C_12
REMARK    8  A    between atoms: C_10  and  C_18
REMARK                            x       y       z     vdW  Elec       q    Type
REMARK                         _______ _______ _______ _____ _____    ______ ____
ROOT
ATOM      1  C   UNL     1       3.261   5.374  18.375  0.00  0.00    +0.000 C 
ENDROOT
BRANCH   1   2
ATOM      2  C   UNL     1       4.600   5.039  17.695  0.00  0.00    +0.000 A 
ATOM      3  C   UNL     1       4.627   4.287  16.499  0.00  0.00    +0.000 A 
ATOM      4  C   UNL     1       5.838   3.982  15.874  0.00  0.00    +0.000 A 
ATOM      5  C   UNL     1       7.042   4.426  16.422  0.00  0.00    +0.000 A 
ATOM      6  C   UNL     1       7.040   5.176  17.597  0.00  0.00    +0.000 A 
ATOM      7  C   UNL     1       5.833   5.483  18.230  0.00  0.00    +0.000 A 
ENDBRANCH   1   2
BRANCH   1   8
ATOM      8  C   UNL     1       3.297   4.816  19.857  0.00  0.00    +0.000 C 
ATOM      9  C   UNL     1       1.976   4.937  20.663  0.00  0.00    +0.000 C 
ATOM     10  C   UNL     1       0.893   3.957  20.182  0.00  0.00    +0.000 C 
ATOM     11  C   UNL     1       1.411   2.507  20.227  0.00  0.00    +0.000 C 
ATOM     12  C   UNL     1       2.714   2.341  19.429  0.00  0.00    +0.000 C 
ATOM     13  C   UNL     1       3.774   3.335  19.942  0.00  0.00    +0.000 C 
ENDBRANCH   1   8
BRANCH   1  14
ATOM     14  C   UNL     1       3.065   6.887  18.340  0.00  0.00    +0.000 C 
ATOM     15  O   UNL     1       3.408   7.511  17.343  0.00  0.00    +0.000 OA
BRANCH  14  16
ATOM     16  O   UNL     1       2.573   7.551  19.425  0.00  0.00    +0.000 OA
BRANCH  16  22
ATOM     17  C   UNL     1      -1.397  11.513  19.958  0.00  0.00    +0.000 C 
ATOM     18  N   UNL     1      -0.063  10.866  20.026  0.00  0.00    +0.000 N 
ATOM     19  C   UNL     1       0.884  11.863  20.594  0.00  0.00    +0.000 C 
ATOM     20  C   UNL     1      -0.169   9.661  20.902  0.00  0.00    +0.000 C 
ATOM     21  C   UNL     1       1.108   8.793  20.904  0.00  0.00    +0.000 C 
ATOM     22  C   UNL     1       1.453   8.378  19.468  0.00  0.00    +0.000 C 
ATOM     23  C   UNL     1       1.616   9.630  18.584  0.00  0.00    +0.000 C 
ATOM     24  C   UNL     1       0.328  10.473  18.639  0.00  0.00    +0.000 C 
ENDBRANCH  16  22
ENDBRANCH  14  16
ENDBRANCH   1  14
BRANCH   1  25
ATOM     25  O   UNL     1       2.190   4.777  17.681  0.00  0.00    +0.000 OA
ATOM     26  H   UNL     1       1.879   5.389  16.966  0.00  0.00    +0.000 HD
ENDBRANCH   1  25
TORSDOF 6
ENDMDL
MODEL 5
REMARK VINA RESULT:      -7.5      2.389      5.572
REMARK  Name = 
REMARK  8 active torsions:
REMARK  status: ('A' for Active; 'I' for Inactive)
REMARK    1  A    between atoms: C_1  and  N_2
REMARK    2  A    between atoms: N_2  and  C_3
REMARK    3  A    between atoms: C_6  and  O_7
REMARK    4  A    between atoms: O_7  and  C_8
REMARK    5  A    between atoms: C_8  and  C_10
REMARK    6  A    between atoms: C_10  and  O_11
REMARK    7  A    between atoms: C_10  and  C_12
REMARK    8  A    between atoms: C_10  and  C_18
REMARK                            x       y       z     vdW  Elec       q    Type
REMARK                         _______ _______ _______ _____ _____    ______ ____
ROOT
ATOM      1  C   UNL     1       3.220   5.143  19.232  0.00  0.00    +0.000 C 
ENDROOT
BRANCH   1   2
ATOM      2  C   UNL     1       2.577   6.542  19.212  0.00  0.00    +0.000 A 
ATOM      3  C   UNL     1       2.059   7.107  20.397  0.00  0.00    +0.000 A 
ATOM      4  C   UNL     1       1.477   8.377  20.388  0.00  0.00    +0.000 A 
ATOM      5  C   UNL     1       1.408   9.109  19.203  0.00  0.00    +0.000 A 
ATOM      6  C   UNL     1       1.920   8.573  18.021  0.00  0.00    +0.000 A 
ATOM      7  C   UNL     1       2.501   7.303  18.021  0.00  0.00    +0.000 A 
ENDBRANCH   1   2
BRANCH   1   8
ATOM      8  C   UNL     1       2.724   4.343  17.958  0.00  0.00    +0.000 C 
ATOM      9  C   UNL     1       3.538   3.075  17.589  0.00  0.00    +0.000 C 
ATOM     10  C   UNL     1       3.308   1.913  18.570  0.00  0.00    +0.000 C 
ATOM     11  C   UNL     1       1.808   1.571  18.667  0.00  0.00    +0.000 C 
ATOM     12  C   UNL     1       0.965   2.800  19.043  0.00  0.00    +0.000 C 
ATOM     13  C   UNL     1       1.220   3.939  18.037  0.00  0.00    +0.000 C 
ENDBRANCH   1   8
BRANCH   1  14
ATOM     14  C   UNL     1       4.737   5.308  19.246  0.00  0.00    +0.000 C 
ATOM     15  O   UNL     1       5.411   4.593  19.977  0.00  0.00    +0.000 OA
BRANCH  14  16
ATOM     16  O   UNL     1       5.338   6.282  18.502  0.00  0.00    +0.000 OA
BRANCH  16  22
ATOM     17  C   UNL     1       7.435   4.896  13.460  0.00  0.00    +0.000 C 
ATOM     18  N   UNL     1       6.603   4.819  14.685  0.00  0.00    +0.000 N 
ATOM     19  C   UNL     1       5.737   3.617  14.559  0.00  0.00    +0.000 C 
ATOM     20  C   UNL     1       7.513   4.709  15.865  0.00  0.00    +0.000 C 
ATOM     21  C   UNL     1       6.775   4.811  17.217  0.00  0.00    +0.000 C 
ATOM     22  C   UNL     1       5.984   6.124  17.277  0.00  0.00    +0.000 C 
ATOM     23  C   UNL     1       5.007   6.203  16.088  0.00  0.00    +0.000 C 
ATOM     24  C   UNL     1       5.788   6.069  14.767  0.00  0.00    +0.000 C 
ENDBRANCH  16  22
ENDBRANCH  14  16
ENDBRANCH   1  14
BRANCH   1  25
ATOM     25  O   UNL     1       2.845   4.442  20.394  0.00  0.00    +0.000 OA
ATOM     26  H   UNL     1       3.531   4.578  21.097  0.00  0.00    +0.000 HD
ENDBRANCH   1  25
TORSDOF 6
ENDMDL
MODEL 6
REMARK VINA RESULT:      -7.3      1.490      1.875
REMARK  Name = 
REMARK  8 active torsions:
REMARK  status: ('A' for Active; 'I' for Inactive)
REMARK    1  A    between atoms: C_1  and  N_2
REMARK    2  A    between atoms: N_2  and  C_3
REMARK    3  A    between atoms: C_6  and  O_7
REMARK    4  A    between atoms: O_7  and  C_8
REMARK    5  A    between atoms: C_8  and  C_10
REMARK    6  A    between atoms: C_10  and  O_11
REMARK    7  A    between atoms: C_10  and  C_12
REMARK    8  A    between atoms: C_10  and  C_18
REMARK                            x       y       z     vdW  Elec       q    Type
REMARK                         _______ _______ _______ _____ _____    ______ ____
ROOT
ATOM      1  C   UNL     1       3.385   5.208  18.736  0.00  0.00    +0.000 C 
ENDROOT
BRANCH   1   2
ATOM      2  C   UNL     1       4.834   5.664  18.483  0.00  0.00    +0.000 A 
ATOM      3  C   UNL     1       5.132   6.541  17.417  0.00  0.00    +0.000 A 
ATOM      4  C   UNL     1       6.444   6.961  17.183  0.00  0.00    +0.000 A 
ATOM      5  C   UNL     1       7.479   6.523  18.009  0.00  0.00    +0.000 A 
ATOM      6  C   UNL     1       7.207   5.663  19.072  0.00  0.00    +0.000 A 
ATOM      7  C   UNL     1       5.899   5.236  19.311  0.00  0.00    +0.000 A 
ENDBRANCH   1   2
BRANCH   1   8
ATOM      8  C   UNL     1       3.421   3.849  19.548  0.00  0.00    +0.000 C 
ATOM      9  C   UNL     1       2.217   3.588  20.492  0.00  0.00    +0.000 C 
ATOM     10  C   UNL     1       0.924   3.251  19.730  0.00  0.00    +0.000 C 
ATOM     11  C   UNL     1       1.140   2.043  18.799  0.00  0.00    +0.000 C 
ATOM     12  C   UNL     1       2.318   2.266  17.837  0.00  0.00    +0.000 C 
ATOM     13  C   UNL     1       3.593   2.596  18.637  0.00  0.00    +0.000 C 
ENDBRANCH   1   8
BRANCH   1  14
ATOM     14  C   UNL     1       2.659   6.311  19.501  0.00  0.00    +0.000 C 
ATOM     15  O   UNL     1       2.645   6.281  20.725  0.00  0.00    +0.000 OA
BRANCH  14  16
ATOM     16  O   UNL     1       1.977   7.288  18.834  0.00  0.00    +0.000 OA
BRANCH  16  22
ATOM     17  C   UNL     1       1.017  12.774  19.683  0.00  0.00    +0.000 C 
ATOM     18  N   UNL     1       0.783  11.375  19.249  0.00  0.00    +0.000 N 
ATOM     19  C   UNL     1      -0.568  11.323  18.629  0.00  0.00    +0.000 C 
ATOM     20  C   UNL     1       1.844  11.004  18.264  0.00  0.00    +0.000 C 
ATOM     21  C   UNL     1       1.822   9.510  17.878  0.00  0.00    +0.000 C 
ATOM     22  C   UNL     1       1.944   8.646  19.140  0.00  0.00    +0.000 C 
ATOM     23  C   UNL     1       0.812   8.996  20.126  0.00  0.00    +0.000 C 
ATOM     24  C   UNL     1       0.860  10.500  20.457  0.00  0.00    +0.000 C 
ENDBRANCH  16  22
ENDBRANCH  14  16
ENDBRANCH   1  14
BRANCH   1  25
ATOM     25  O   UNL     1       2.711   5.003  17.517  0.00  0.00    +0.000 OA
ATOM     26  H   UNL     1       2.613   5.869  17.044  0.00  0.00    +0.000 HD
ENDBRANCH   1  25
TORSDOF 6
ENDMDL
MODEL 7
REMARK VINA RESULT:      -7.3      1.565      4.368
REMARK  Name = 
REMARK  8 active torsions:
REMARK  status: ('A' for Active; 'I' for Inactive)
REMARK    1  A    between atoms: C_1  and  N_2
REMARK    2  A    between atoms: N_2  and  C_3
REMARK    3  A    between atoms: C_6  and  O_7
REMARK    4  A    between atoms: O_7  and  C_8
REMARK    5  A    between atoms: C_8  and  C_10
REMARK    6  A    between atoms: C_10  and  O_11
REMARK    7  A    between atoms: C_10  and  C_12
REMARK    8  A    between atoms: C_10  and  C_18
REMARK                            x       y       z     vdW  Elec       q    Type
REMARK                         _______ _______ _______ _____ _____    ______ ____
ROOT
ATOM      1  C   UNL     1       3.336   5.878  18.682  0.00  0.00    +0.000 C 
ENDROOT
BRANCH   1   2
ATOM      2  C   UNL     1       2.438   4.719  19.150  0.00  0.00    +0.000 A 
ATOM      3  C   UNL     1       1.748   3.924  18.208  0.00  0.00    +0.000 A 
ATOM      4  C   UNL     1       0.933   2.868  18.624  0.00  0.00    +0.000 A 
ATOM      5  C   UNL     1       0.797   2.579  19.982  0.00  0.00    +0.000 A 
ATOM      6  C   UNL     1       1.476   3.346  20.930  0.00  0.00    +0.000 A 
ATOM      7  C   UNL     1       2.289   4.405  20.522  0.00  0.00    +0.000 A 
ENDBRANCH   1   2
BRANCH   1   8
ATOM      8  C   UNL     1       4.030   5.459  17.322  0.00  0.00    +0.000 C 
ATOM      9  C   UNL     1       4.814   6.577  16.584  0.00  0.00    +0.000 C 
ATOM     10  C   UNL     1       6.128   6.949  17.291  0.00  0.00    +0.000 C 
ATOM     11  C   UNL     1       7.020   5.707  17.472  0.00  0.00    +0.000 C 
ATOM     12  C   UNL     1       6.285   4.578  18.211  0.00  0.00    +0.000 C 
ATOM     13  C   UNL     1       4.978   4.230  17.471  0.00  0.00    +0.000 C 
ENDBRANCH   1   8
BRANCH   1  14
ATOM     14  C   UNL     1       2.471   7.125  18.521  0.00  0.00    +0.000 C 
ATOM     15  O   UNL     1       2.031   7.409  17.414  0.00  0.00    +0.000 OA
BRANCH  14  16
ATOM     16  O   UNL     1       2.239   7.953  19.581  0.00  0.00    +0.000 OA
BRANCH  16  22
ATOM     17  C   UNL     1      -1.535  12.012  20.591  0.00  0.00    +0.000 C 
ATOM     18  N   UNL     1      -0.220  11.330  20.503  0.00  0.00    +0.000 N 
ATOM     19  C   UNL     1       0.812  12.294  20.968  0.00  0.00    +0.000 C 
ATOM     20  C   UNL     1      -0.260  10.118  21.375  0.00  0.00    +0.000 C 
ATOM     21  C   UNL     1       0.984   9.217  21.226  0.00  0.00    +0.000 C 
ATOM     22  C   UNL     1       1.153   8.808  19.756  0.00  0.00    +0.000 C 
ATOM     23  C   UNL     1       1.251  10.065  18.870  0.00  0.00    +0.000 C 
ATOM     24  C   UNL     1       0.001  10.942  19.077  0.00  0.00    +0.000 C 
ENDBRANCH  16  22
ENDBRANCH  14  16
ENDBRANCH   1  14
BRANCH   1  25
ATOM     25  O   UNL     1       4.329   6.154  19.643  0.00  0.00    +0.000 OA
ATOM     26  H   UNL     1       5.069   6.657  19.217  0.00  0.00    +0.000 HD
ENDBRANCH   1  25
TORSDOF 6
ENDMDL
MODEL 8
REMARK VINA RESULT:      -7.3      1.449      1.950
REMARK  Name = 
REMARK  8 active torsions:
REMARK  status: ('A' for Active; 'I' for Inactive)
REMARK    1  A    between atoms: C_1  and  N_2
REMARK    2  A    between atoms: N_2  and  C_3
REMARK    3  A    between atoms: C_6  and  O_7
REMARK    4  A    between atoms: O_7  and  C_8
REMARK    5  A    between atoms: C_8  and  C_10
REMARK    6  A    between atoms: C_10  and  O_11
REMARK    7  A    between atoms: C_10  and  C_12
REMARK    8  A    between atoms: C_10  and  C_18
REMARK                            x       y       z     vdW  Elec       q    Type
REMARK                         _______ _______ _______ _____ _____    ______ ____
ROOT
ATOM      1  C   UNL     1       3.598   4.790  18.344  0.00  0.00    +0.000 C 
ENDROOT
BRANCH   1   2
ATOM      2  C   UNL     1       4.979   5.468  18.276  0.00  0.00    +0.000 A 
ATOM      3  C   UNL     1       5.992   5.122  19.197  0.00  0.00    +0.000 A 
ATOM      4  C   UNL     1       7.248   5.730  19.140  0.00  0.00    +0.000 A 
ATOM      5  C   UNL     1       7.520   6.687  18.162  0.00  0.00    +0.000 A 
ATOM      6  C   UNL     1       6.537   7.039  17.237  0.00  0.00    +0.000 A 
ATOM      7  C   UNL     1       5.278   6.438  17.289  0.00  0.00    +0.000 A 
ENDBRANCH   1   2
BRANCH   1   8
ATOM      8  C   UNL     1       3.603   3.761  19.548  0.00  0.00    +0.000 C 
ATOM      9  C   UNL     1       2.583   4.038  20.685  0.00  0.00    +0.000 C 
ATOM     10  C   UNL     1       1.132   3.743  20.268  0.00  0.00    +0.000 C 
ATOM     11  C   UNL     1       0.992   2.292  19.771  0.00  0.00    +0.000 C 
ATOM     12  C   UNL     1       1.978   1.979  18.634  0.00  0.00    +0.000 C 
ATOM     13  C   UNL     1       3.419   2.282  19.091  0.00  0.00    +0.000 C 
ENDBRANCH   1   8
BRANCH   1  14
ATOM     14  C   UNL     1       2.536   5.872  18.523  0.00  0.00    +0.000 C 
ATOM     15  O   UNL     1       1.611   5.939  17.723  0.00  0.00    +0.000 OA
BRANCH  14  16
ATOM     16  O   UNL     1       2.644   6.795  19.521  0.00  0.00    +0.000 OA
BRANCH  16  22
ATOM     17  C   UNL     1       0.668  12.024  18.817  0.00  0.00    +0.000 C 
ATOM     18  N   UNL     1       0.717  10.542  18.777  0.00  0.00    +0.000 N 
ATOM     19  C   UNL     1      -0.555  10.072  18.166  0.00  0.00    +0.000 C 
ATOM     20  C   UNL     1       1.895  10.132  17.954  0.00  0.00    +0.000 C 
ATOM     21  C   UNL     1       2.167   8.613  17.990  0.00  0.00    +0.000 C 
ATOM     22  C   UNL     1       2.348   8.154  19.443  0.00  0.00    +0.000 C 
ATOM     23  C   UNL     1       1.104   8.530  20.271  0.00  0.00    +0.000 C 
ATOM     24  C   UNL     1       0.861  10.049  20.180  0.00  0.00    +0.000 C 
ENDBRANCH  16  22
ENDBRANCH  14  16
ENDBRANCH   1  14
BRANCH   1  25
ATOM     25  O   UNL     1       3.325   4.101  17.147  0.00  0.00    +0.000 OA
ATOM     26  H   UNL     1       3.198   4.754  16.412  0.00  0.00    +0.000 HD
ENDBRANCH   1  25
TORSDOF 6
ENDMDL
MODEL 9
REMARK VINA RESULT:      -7.2      1.439      2.230
REMARK  Name = 
REMARK  8 active torsions:
REMARK  status: ('A' for Active; 'I' for Inactive)
REMARK    1  A    between atoms: C_1  and  N_2
REMARK    2  A    between atoms: N_2  and  C_3
REMARK    3  A    between atoms: C_6  and  O_7
REMARK    4  A    between atoms: O_7  and  C_8
REMARK    5  A    between atoms: C_8  and  C_10
REMARK    6  A    between atoms: C_10  and  O_11
REMARK    7  A    between atoms: C_10  and  C_12
REMARK    8  A    between atoms: C_10  and  C_18
REMARK                            x       y       z     vdW  Elec       q    Type
REMARK                         _______ _______ _______ _____ _____    ______ ____
ROOT
ATOM      1  C   UNL     1       3.214   5.150  18.931  0.00  0.00    +0.000 C 
ENDROOT
BRANCH   1   2
ATOM      2  C   UNL     1       4.627   5.597  18.512  0.00  0.00    +0.000 A 
ATOM      3  C   UNL     1       4.820   6.333  17.323  0.00  0.00    +0.000 A 
ATOM      4  C   UNL     1       6.098   6.746  16.938  0.00  0.00    +0.000 A 
ATOM      5  C   UNL     1       7.204   6.439  17.732  0.00  0.00    +0.000 A 
ATOM      6  C   UNL     1       7.035   5.719  18.915  0.00  0.00    +0.000 A 
ATOM      7  C   UNL     1       5.761   5.301  19.305  0.00  0.00    +0.000 A 
ENDBRANCH   1   2
BRANCH   1   8
ATOM      8  C   UNL     1       3.320   3.727  19.617  0.00  0.00    +0.000 C 
ATOM      9  C   UNL     1       2.105   3.295  20.482  0.00  0.00    +0.000 C 
ATOM     10  C   UNL     1       0.869   2.941  19.638  0.00  0.00    +0.000 C 
ATOM     11  C   UNL     1       1.207   1.843  18.611  0.00  0.00    +0.000 C 
ATOM     12  C   UNL     1       2.398   2.237  17.724  0.00  0.00    +0.000 C 
ATOM     13  C   UNL     1       3.617   2.579  18.604  0.00  0.00    +0.000 C 
ENDBRANCH   1   8
BRANCH   1  14
ATOM     14  C   UNL     1       2.636   6.198  19.878  0.00  0.00    +0.000 C 
ATOM     15  O   UNL     1       2.176   5.842  20.955  0.00  0.00    +0.000 OA
BRANCH  14  16
ATOM     16  O   UNL     1       2.572   7.510  19.508  0.00  0.00    +0.000 OA
BRANCH  16  22
ATOM     17  C   UNL     1      -1.474  11.430  19.421  0.00  0.00    +0.000 C 
ATOM     18  N   UNL     1      -0.121  10.834  19.546  0.00  0.00    +0.000 N 
ATOM     19  C   UNL     1       0.827  11.943  19.834  0.00  0.00    +0.000 C 
ATOM     20  C   UNL     1      -0.146   9.841  20.662  0.00  0.00    +0.000 C 
ATOM     21  C   UNL     1       1.153   9.015  20.773  0.00  0.00    +0.000 C 
ATOM     22  C   UNL     1       1.432   8.308  19.440  0.00  0.00    +0.000 C 
ATOM     23  C   UNL     1       1.513   9.346  18.303  0.00  0.00    +0.000 C 
ATOM     24  C   UNL     1       0.207  10.161  18.253  0.00  0.00    +0.000 C 
ENDBRANCH  16  22
ENDBRANCH  14  16
ENDBRANCH   1  14
BRANCH   1  25
ATOM     25  O   UNL     1       2.369   5.061  17.807  0.00  0.00    +0.000 OA
ATOM     26  H   UNL     1       1.493   5.473  18.020  0.00  0.00    +0.000 HD
ENDBRANCH   1  25
TORSDOF 6
ENDMDL
