MODEL 1
REMARK VINA RESULT:      -6.7      0.000      0.000
REMARK  Name = 
REMARK  10 active torsions:
REMARK  status: ('A' for Active; 'I' for Inactive)
REMARK    1  A    between atoms: C_1  and  C_2
REMARK    2  A    between atoms: C_2  and  C_3
REMARK    3  A    between atoms: C_5  and  C_6
REMARK    4  A    between atoms: C_6  and  C_7
REMARK    5  A    between atoms: C_6  and  C_8
REMARK    6  A    between atoms: C_9  and  C_10
REMARK    7  A    between atoms: C_10  and  C_11
REMARK    8  A    between atoms: C_13  and  C_14
REMARK    9  A    between atoms: C_14  and  C_15
REMARK   10  A    between atoms: C_14  and  C_16
REMARK                            x       y       z     vdW  Elec       q    Type
REMARK                         _______ _______ _______ _____ _____    ______ ____
ROOT
ATOM      1  C   UNL     1       3.369   6.848  17.708  0.00  0.00    +0.000 A 
ATOM      2  C   UNL     1       2.582   6.223  18.666  0.00  0.00    +0.000 A 
ATOM      3  C   UNL     1       2.797   4.889  19.078  0.00  0.00    +0.000 A 
ATOM      4  C   UNL     1       3.855   4.155  18.458  0.00  0.00    +0.000 A 
ATOM      5  C   UNL     1       4.668   4.785  17.455  0.00  0.00    +0.000 A 
ATOM      6  C   UNL     1       4.367   6.115  17.082  0.00  0.00    +0.000 A 
ENDROOT
BRANCH   3   7
ATOM      7  C   UNL     1       1.976   4.429  20.288  0.00  0.00    +0.000 C 
ATOM      8  C   UNL     1       1.410   5.652  21.014  0.00  0.00    +0.000 C 
ATOM      9  C   UNL     1       0.845   3.445  19.944  0.00  0.00    +0.000 C 
ENDBRANCH   3   7
BRANCH   4  10
ATOM     10  C   UNL     1       4.219   2.770  18.934  0.00  0.00    +0.000 C 
ATOM     11  C   UNL     1       3.624   1.538  18.296  0.00  0.00    +0.000 C 
ATOM     12  O   UNL     1       5.009   2.631  19.870  0.00  0.00    +0.000 OA
ENDBRANCH   4  10
BRANCH   5  13
ATOM     13  C   UNL     1       5.875   4.128  16.767  0.00  0.00    +0.000 C 
ATOM     14  C   UNL     1       5.785   4.254  15.245  0.00  0.00    +0.000 C 
ATOM     15  C   UNL     1       7.247   4.655  17.245  0.00  0.00    +0.000 C 
ENDBRANCH   5  13
BRANCH   1  17
ATOM     16  C   UNL     1       1.887   8.829  17.990  0.00  0.00    +0.000 C 
ATOM     17  C   UNL     1       3.223   8.325  17.453  0.00  0.00    +0.000 C 
ENDBRANCH   1  17
TORSDOF 4
ENDMDL
MODEL 2
REMARK VINA RESULT:      -6.4      0.644      3.951
REMARK  Name = 
REMARK  10 active torsions:
REMARK  status: ('A' for Active; 'I' for Inactive)
REMARK    1  A    between atoms: C_1  and  C_2
REMARK    2  A    between atoms: C_2  and  C_3
REMARK    3  A    between atoms: C_5  and  C_6
REMARK    4  A    between atoms: C_6  and  C_7
REMARK    5  A    between atoms: C_6  and  C_8
REMARK    6  A    between atoms: C_9  and  C_10
REMARK    7  A    between atoms: C_10  and  C_11
REMARK    8  A    between atoms: C_13  and  C_14
REMARK    9  A    between atoms: C_14  and  C_15
REMARK   10  A    between atoms: C_14  and  C_16
REMARK                            x       y       z     vdW  Elec       q    Type
REMARK                         _______ _______ _______ _____ _____    ______ ____
ROOT
ATOM      1  C   UNL     1       3.089   6.962  18.212  0.00  0.00    +0.000 A 
ATOM      2  C   UNL     1       4.193   6.355  17.631  0.00  0.00    +0.000 A 
ATOM      3  C   UNL     1       4.563   5.019  17.905  0.00  0.00    +0.000 A 
ATOM      4  C   UNL     1       3.773   4.281  18.840  0.00  0.00    +0.000 A 
ATOM      5  C   UNL     1       2.634   4.902  19.460  0.00  0.00    +0.000 A 
ATOM      6  C   UNL     1       2.351   6.251  19.149  0.00  0.00    +0.000 A 
ENDROOT
BRANCH   3   7
ATOM      7  C   UNL     1       5.677   4.445  17.024  0.00  0.00    +0.000 C 
ATOM      8  C   UNL     1       5.533   4.991  15.601  0.00  0.00    +0.000 C 
ATOM      9  C   UNL     1       7.097   4.710  17.552  0.00  0.00    +0.000 C 
ENDBRANCH   3   7
BRANCH   4  10
ATOM     10  C   UNL     1       4.034   2.816  19.089  0.00  0.00    +0.000 C 
ATOM     11  C   UNL     1       3.391   1.746  18.239  0.00  0.00    +0.000 C 
ATOM     12  O   UNL     1       4.779   2.473  20.010  0.00  0.00    +0.000 OA
ENDBRANCH   4  10
BRANCH   5  13
ATOM     13  C   UNL     1       1.668   4.195  20.424  0.00  0.00    +0.000 C 
ATOM     14  C   UNL     1       0.815   3.156  19.693  0.00  0.00    +0.000 C 
ATOM     15  C   UNL     1       2.351   3.534  21.642  0.00  0.00    +0.000 C 
ENDBRANCH   5  13
BRANCH   1  17
ATOM     16  C   UNL     1       1.592   8.893  18.694  0.00  0.00    +0.000 C 
ATOM     17  C   UNL     1       2.628   8.314  17.734  0.00  0.00    +0.000 C 
ENDBRANCH   1  17
TORSDOF 4
ENDMDL
MODEL 3
REMARK VINA RESULT:      -6.4      0.630      1.016
REMARK  Name = 
REMARK  10 active torsions:
REMARK  status: ('A' for Active; 'I' for Inactive)
REMARK    1  A    between atoms: C_1  and  C_2
REMARK    2  A    between atoms: C_2  and  C_3
REMARK    3  A    between atoms: C_5  and  C_6
REMARK    4  A    between atoms: C_6  and  C_7
REMARK    5  A    between atoms: C_6  and  C_8
REMARK    6  A    between atoms: C_9  and  C_10
REMARK    7  A    between atoms: C_10  and  C_11
REMARK    8  A    between atoms: C_13  and  C_14
REMARK    9  A    between atoms: C_14  and  C_15
REMARK   10  A    between atoms: C_14  and  C_16
REMARK                            x       y       z     vdW  Elec       q    Type
REMARK                         _______ _______ _______ _____ _____    ______ ____
ROOT
ATOM      1  C   UNL     1       3.020   6.815  17.955  0.00  0.00    +0.000 A 
ATOM      2  C   UNL     1       2.170   6.067  18.758  0.00  0.00    +0.000 A 
ATOM      3  C   UNL     1       2.442   4.728  19.118  0.00  0.00    +0.000 A 
ATOM      4  C   UNL     1       3.631   4.122  18.607  0.00  0.00    +0.000 A 
ATOM      5  C   UNL     1       4.513   4.881  17.763  0.00  0.00    +0.000 A 
ATOM      6  C   UNL     1       4.151   6.206  17.430  0.00  0.00    +0.000 A 
ENDROOT
BRANCH   3   7
ATOM      7  C   UNL     1       1.511   4.124  20.175  0.00  0.00    +0.000 C 
ATOM      8  C   UNL     1       0.785   2.915  19.582  0.00  0.00    +0.000 C 
ATOM      9  C   UNL     1       2.217   3.731  21.484  0.00  0.00    +0.000 C 
ENDBRANCH   3   7
BRANCH   4  10
ATOM     10  C   UNL     1       4.046   2.740  19.047  0.00  0.00    +0.000 C 
ATOM     11  C   UNL     1       3.516   1.504  18.361  0.00  0.00    +0.000 C 
ATOM     12  O   UNL     1       4.826   2.605  19.993  0.00  0.00    +0.000 OA
ENDBRANCH   4  10
BRANCH   5  13
ATOM     13  C   UNL     1       5.852   4.368  17.211  0.00  0.00    +0.000 C 
ATOM     14  C   UNL     1       5.919   4.513  15.689  0.00  0.00    +0.000 C 
ATOM     15  C   UNL     1       7.098   5.027  17.843  0.00  0.00    +0.000 C 
ENDBRANCH   5  13
BRANCH   1  17
ATOM     16  C   UNL     1       1.712   8.785  18.736  0.00  0.00    +0.000 C 
ATOM     17  C   UNL     1       2.783   8.291  17.768  0.00  0.00    +0.000 C 
ENDBRANCH   1  17
TORSDOF 4
ENDMDL
MODEL 4
REMARK VINA RESULT:      -6.3      0.219      4.111
REMARK  Name = 
REMARK  10 active torsions:
REMARK  status: ('A' for Active; 'I' for Inactive)
REMARK    1  A    between atoms: C_1  and  C_2
REMARK    2  A    between atoms: C_2  and  C_3
REMARK    3  A    between atoms: C_5  and  C_6
REMARK    4  A    between atoms: C_6  and  C_7
REMARK    5  A    between atoms: C_6  and  C_8
REMARK    6  A    between atoms: C_9  and  C_10
REMARK    7  A    between atoms: C_10  and  C_11
REMARK    8  A    between atoms: C_13  and  C_14
REMARK    9  A    between atoms: C_14  and  C_15
REMARK   10  A    between atoms: C_14  and  C_16
REMARK                            x       y       z     vdW  Elec       q    Type
REMARK                         _______ _______ _______ _____ _____    ______ ____
ROOT
ATOM      1  C   UNL     1       3.509   6.863  17.800  0.00  0.00    +0.000 A 
ATOM      2  C   UNL     1       4.554   6.151  17.228  0.00  0.00    +0.000 A 
ATOM      3  C   UNL     1       4.853   4.816  17.583  0.00  0.00    +0.000 A 
ATOM      4  C   UNL     1       4.053   4.193  18.591  0.00  0.00    +0.000 A 
ATOM      5  C   UNL     1       2.976   4.924  19.200  0.00  0.00    +0.000 A 
ATOM      6  C   UNL     1       2.764   6.264  18.806  0.00  0.00    +0.000 A 
ENDROOT
BRANCH   3   7
ATOM      7  C   UNL     1       5.899   4.117  16.710  0.00  0.00    +0.000 C 
ATOM      8  C   UNL     1       5.534   4.297  15.234  0.00  0.00    +0.000 C 
ATOM      9  C   UNL     1       7.343   4.585  16.960  0.00  0.00    +0.000 C 
ENDBRANCH   3   7
BRANCH   4  10
ATOM     10  C   UNL     1       4.236   2.735  18.932  0.00  0.00    +0.000 C 
ATOM     11  C   UNL     1       3.564   1.648  18.128  0.00  0.00    +0.000 C 
ATOM     12  O   UNL     1       4.938   2.413  19.894  0.00  0.00    +0.000 OA
ENDBRANCH   4  10
BRANCH   5  13
ATOM     13  C   UNL     1       2.004   4.344  20.240  0.00  0.00    +0.000 C 
ATOM     14  C   UNL     1       1.428   5.443  21.136  0.00  0.00    +0.000 C 
ATOM     15  C   UNL     1       0.848   3.513  19.640  0.00  0.00    +0.000 C 
ENDBRANCH   5  13
BRANCH   1  17
ATOM     16  C   UNL     1       1.982   8.811  18.070  0.00  0.00    +0.000 C 
ATOM     17  C   UNL     1       3.112   8.206  17.243  0.00  0.00    +0.000 C 
ENDBRANCH   1  17
TORSDOF 4
ENDMDL
MODEL 5
REMARK VINA RESULT:      -6.2      1.215      4.246
REMARK  Name = 
REMARK  10 active torsions:
REMARK  status: ('A' for Active; 'I' for Inactive)
REMARK    1  A    between atoms: C_1  and  C_2
REMARK    2  A    between atoms: C_2  and  C_3
REMARK    3  A    between atoms: C_5  and  C_6
REMARK    4  A    between atoms: C_6  and  C_7
REMARK    5  A    between atoms: C_6  and  C_8
REMARK    6  A    between atoms: C_9  and  C_10
REMARK    7  A    between atoms: C_10  and  C_11
REMARK    8  A    between atoms: C_13  and  C_14
REMARK    9  A    between atoms: C_14  and  C_15
REMARK   10  A    between atoms: C_14  and  C_16
REMARK                            x       y       z     vdW  Elec       q    Type
REMARK                         _______ _______ _______ _____ _____    ______ ____
ROOT
ATOM      1  C   UNL     1       2.886   6.242  19.378  0.00  0.00    +0.000 A 
ATOM      2  C   UNL     1       4.206   5.986  19.033  0.00  0.00    +0.000 A 
ATOM      3  C   UNL     1       4.771   4.692  19.082  0.00  0.00    +0.000 A 
ATOM      4  C   UNL     1       3.946   3.614  19.530  0.00  0.00    +0.000 A 
ATOM      5  C   UNL     1       2.581   3.868  19.904  0.00  0.00    +0.000 A 
ATOM      6  C   UNL     1       2.104   5.197  19.851  0.00  0.00    +0.000 A 
ENDROOT
BRANCH   3   7
ATOM      7  C   UNL     1       6.169   4.556  18.471  0.00  0.00    +0.000 C 
ATOM      8  C   UNL     1       6.058   4.535  16.945  0.00  0.00    +0.000 C 
ATOM      9  C   UNL     1       7.160   5.645  18.916  0.00  0.00    +0.000 C 
ENDBRANCH   3   7
BRANCH   4  10
ATOM     10  C   UNL     1       4.443   2.191  19.493  0.00  0.00    +0.000 C 
ATOM     11  C   UNL     1       4.045   1.247  18.384  0.00  0.00    +0.000 C 
ATOM     12  O   UNL     1       5.182   1.775  20.389  0.00  0.00    +0.000 OA
ENDBRANCH   4  10
BRANCH   5  13
ATOM     13  C   UNL     1       1.576   2.787  20.333  0.00  0.00    +0.000 C 
ATOM     14  C   UNL     1       1.318   2.834  21.840  0.00  0.00    +0.000 C 
ATOM     15  C   UNL     1       0.228   2.834  19.581  0.00  0.00    +0.000 C 
ENDBRANCH   5  13
BRANCH   1  17
ATOM     16  C   UNL     1       2.778   8.152  17.784  0.00  0.00    +0.000 C 
ATOM     17  C   UNL     1       2.283   7.598  19.117  0.00  0.00    +0.000 C 
ENDBRANCH   1  17
TORSDOF 4
ENDMDL
MODEL 6
REMARK VINA RESULT:      -6.1      1.063      4.151
REMARK  Name = 
REMARK  10 active torsions:
REMARK  status: ('A' for Active; 'I' for Inactive)
REMARK    1  A    between atoms: C_1  and  C_2
REMARK    2  A    between atoms: C_2  and  C_3
REMARK    3  A    between atoms: C_5  and  C_6
REMARK    4  A    between atoms: C_6  and  C_7
REMARK    5  A    between atoms: C_6  and  C_8
REMARK    6  A    between atoms: C_9  and  C_10
REMARK    7  A    between atoms: C_10  and  C_11
REMARK    8  A    between atoms: C_13  and  C_14
REMARK    9  A    between atoms: C_14  and  C_15
REMARK   10  A    between atoms: C_14  and  C_16
REMARK                            x       y       z     vdW  Elec       q    Type
REMARK                         _______ _______ _______ _____ _____    ______ ____
ROOT
ATOM      1  C   UNL     1       2.872   7.469  18.012  0.00  0.00    +0.000 A 
ATOM      2  C   UNL     1       4.133   7.180  17.509  0.00  0.00    +0.000 A 
ATOM      3  C   UNL     1       4.748   5.918  17.669  0.00  0.00    +0.000 A 
ATOM      4  C   UNL     1       4.043   4.914  18.402  0.00  0.00    +0.000 A 
ATOM      5  C   UNL     1       2.742   5.204  18.940  0.00  0.00    +0.000 A 
ATOM      6  C   UNL     1       2.212   6.501  18.757  0.00  0.00    +0.000 A 
ENDROOT
BRANCH   3   7
ATOM      7  C   UNL     1       6.041   5.706  16.875  0.00  0.00    +0.000 C 
ATOM      8  C   UNL     1       5.719   5.653  15.381  0.00  0.00    +0.000 C 
ATOM      9  C   UNL     1       7.127   6.761  17.147  0.00  0.00    +0.000 C 
ENDBRANCH   3   7
BRANCH   4  10
ATOM     10  C   UNL     1       4.583   3.509  18.507  0.00  0.00    +0.000 C 
ATOM     11  C   UNL     1       4.211   2.445  17.502  0.00  0.00    +0.000 C 
ATOM     12  O   UNL     1       5.335   3.209  19.437  0.00  0.00    +0.000 OA
ENDBRANCH   4  10
BRANCH   5  13
ATOM     13  C   UNL     1       1.856   4.191  19.682  0.00  0.00    +0.000 C 
ATOM     14  C   UNL     1       1.031   4.871  20.777  0.00  0.00    +0.000 C 
ATOM     15  C   UNL     1       0.918   3.372  18.768  0.00  0.00    +0.000 C 
ENDBRANCH   5  13
BRANCH   1  17
ATOM     16  C   UNL     1       1.350   9.270  18.811  0.00  0.00    +0.000 C 
ATOM     17  C   UNL     1       2.185   8.758  17.642  0.00  0.00    +0.000 C 
ENDBRANCH   1  17
TORSDOF 4
ENDMDL
MODEL 7
REMARK VINA RESULT:      -6.1      1.992      5.260
REMARK  Name = 
REMARK  10 active torsions:
REMARK  status: ('A' for Active; 'I' for Inactive)
REMARK    1  A    between atoms: C_1  and  C_2
REMARK    2  A    between atoms: C_2  and  C_3
REMARK    3  A    between atoms: C_5  and  C_6
REMARK    4  A    between atoms: C_6  and  C_7
REMARK    5  A    between atoms: C_6  and  C_8
REMARK    6  A    between atoms: C_9  and  C_10
REMARK    7  A    between atoms: C_10  and  C_11
REMARK    8  A    between atoms: C_13  and  C_14
REMARK    9  A    between atoms: C_14  and  C_15
REMARK   10  A    between atoms: C_14  and  C_16
REMARK                            x       y       z     vdW  Elec       q    Type
REMARK                         _______ _______ _______ _____ _____    ______ ____
ROOT
ATOM      1  C   UNL     1       2.533   3.586  17.957  0.00  0.00    +0.000 A 
ATOM      2  C   UNL     1       3.562   3.305  17.069  0.00  0.00    +0.000 A 
ATOM      3  C   UNL     1       4.458   4.292  16.601  0.00  0.00    +0.000 A 
ATOM      4  C   UNL     1       4.272   5.636  17.048  0.00  0.00    +0.000 A 
ATOM      5  C   UNL     1       3.202   5.944  17.957  0.00  0.00    +0.000 A 
ATOM      6  C   UNL     1       2.335   4.901  18.354  0.00  0.00    +0.000 A 
ENDROOT
BRANCH   3   7
ATOM      7  C   UNL     1       5.654   3.773  15.796  0.00  0.00    +0.000 C 
ATOM      8  C   UNL     1       5.516   4.213  14.337  0.00  0.00    +0.000 C 
ATOM      9  C   UNL     1       7.022   4.203  16.354  0.00  0.00    +0.000 C 
ENDBRANCH   3   7
BRANCH   4  10
ATOM     10  C   UNL     1       5.261   6.716  16.687  0.00  0.00    +0.000 C 
ATOM     11  C   UNL     1       6.341   7.149  17.650  0.00  0.00    +0.000 C 
ATOM     12  O   UNL     1       5.188   7.273  15.590  0.00  0.00    +0.000 OA
ENDBRANCH   4  10
BRANCH   5  13
ATOM     13  C   UNL     1       2.941   7.332  18.565  0.00  0.00    +0.000 C 
ATOM     14  C   UNL     1       2.202   8.240  17.580  0.00  0.00    +0.000 C 
ATOM     15  C   UNL     1       2.182   7.308  19.910  0.00  0.00    +0.000 C 
ENDBRANCH   5  13
BRANCH   1  17
ATOM     16  C   UNL     1       0.945   2.976  19.775  0.00  0.00    +0.000 C 
ATOM     17  C   UNL     1       1.737   2.466  18.575  0.00  0.00    +0.000 C 
ENDBRANCH   1  17
TORSDOF 4
ENDMDL
MODEL 8
REMARK VINA RESULT:      -5.9      1.798      3.781
REMARK  Name = 
REMARK  10 active torsions:
REMARK  status: ('A' for Active; 'I' for Inactive)
REMARK    1  A    between atoms: C_1  and  C_2
REMARK    2  A    between atoms: C_2  and  C_3
REMARK    3  A    between atoms: C_5  and  C_6
REMARK    4  A    between atoms: C_6  and  C_7
REMARK    5  A    between atoms: C_6  and  C_8
REMARK    6  A    between atoms: C_9  and  C_10
REMARK    7  A    between atoms: C_10  and  C_11
REMARK    8  A    between atoms: C_13  and  C_14
REMARK    9  A    between atoms: C_14  and  C_15
REMARK   10  A    between atoms: C_14  and  C_16
REMARK                            x       y       z     vdW  Elec       q    Type
REMARK                         _______ _______ _______ _____ _____    ______ ____
ROOT
ATOM      1  C   UNL     1       5.727   5.400  18.514  0.00  0.00    +0.000 A 
ATOM      2  C   UNL     1       4.698   6.307  18.307  0.00  0.00    +0.000 A 
ATOM      3  C   UNL     1       3.335   5.955  18.426  0.00  0.00    +0.000 A 
ATOM      4  C   UNL     1       3.016   4.600  18.749  0.00  0.00    +0.000 A 
ATOM      5  C   UNL     1       4.072   3.647  18.952  0.00  0.00    +0.000 A 
ATOM      6  C   UNL     1       5.408   4.077  18.787  0.00  0.00    +0.000 A 
ENDROOT
BRANCH   3   7
ATOM      7  C   UNL     1       2.342   7.120  18.372  0.00  0.00    +0.000 C 
ATOM      8  C   UNL     1       2.048   7.606  19.793  0.00  0.00    +0.000 C 
ATOM      9  C   UNL     1       2.800   8.297  17.493  0.00  0.00    +0.000 C 
ENDBRANCH   3   7
BRANCH   4  10
ATOM     10  C   UNL     1       1.590   4.181  19.011  0.00  0.00    +0.000 C 
ATOM     11  C   UNL     1       1.002   4.218  20.402  0.00  0.00    +0.000 C 
ATOM     12  O   UNL     1       0.885   3.787  18.080  0.00  0.00    +0.000 OA
ENDBRANCH   4  10
BRANCH   5  13
ATOM     13  C   UNL     1       3.862   2.183  19.371  0.00  0.00    +0.000 C 
ATOM     14  C   UNL     1       3.882   1.249  18.160  0.00  0.00    +0.000 C 
ATOM     15  C   UNL     1       4.865   1.671  20.429  0.00  0.00    +0.000 C 
ENDBRANCH   5  13
BRANCH   1  17
ATOM     16  C   UNL     1       7.346   7.098  17.678  0.00  0.00    +0.000 C 
ATOM     17  C   UNL     1       7.156   5.875  18.570  0.00  0.00    +0.000 C 
ENDBRANCH   1  17
TORSDOF 4
ENDMDL
MODEL 9
REMARK VINA RESULT:      -5.9      1.975      3.898
REMARK  Name = 
REMARK  10 active torsions:
REMARK  status: ('A' for Active; 'I' for Inactive)
REMARK    1  A    between atoms: C_1  and  C_2
REMARK    2  A    between atoms: C_2  and  C_3
REMARK    3  A    between atoms: C_5  and  C_6
REMARK    4  A    between atoms: C_6  and  C_7
REMARK    5  A    between atoms: C_6  and  C_8
REMARK    6  A    between atoms: C_9  and  C_10
REMARK    7  A    between atoms: C_10  and  C_11
REMARK    8  A    between atoms: C_13  and  C_14
REMARK    9  A    between atoms: C_14  and  C_15
REMARK   10  A    between atoms: C_14  and  C_16
REMARK                            x       y       z     vdW  Elec       q    Type
REMARK                         _______ _______ _______ _____ _____    ______ ____
ROOT
ATOM      1  C   UNL     1       2.652   3.584  18.073  0.00  0.00    +0.000 A 
ATOM      2  C   UNL     1       2.508   4.886  18.530  0.00  0.00    +0.000 A 
ATOM      3  C   UNL     1       3.370   5.934  18.133  0.00  0.00    +0.000 A 
ATOM      4  C   UNL     1       4.444   5.621  17.244  0.00  0.00    +0.000 A 
ATOM      5  C   UNL     1       4.613   4.273  16.775  0.00  0.00    +0.000 A 
ATOM      6  C   UNL     1       3.722   3.281  17.243  0.00  0.00    +0.000 A 
ENDROOT
BRANCH   3   7
ATOM      7  C   UNL     1       2.944   7.341  18.563  0.00  0.00    +0.000 C 
ATOM      8  C   UNL     1       2.111   7.983  17.452  0.00  0.00    +0.000 C 
ATOM      9  C   UNL     1       2.176   7.387  19.896  0.00  0.00    +0.000 C 
ENDBRANCH   3   7
BRANCH   4  10
ATOM     10  C   UNL     1       5.327   6.708  16.684  0.00  0.00    +0.000 C 
ATOM     11  C   UNL     1       6.522   7.225  17.450  0.00  0.00    +0.000 C 
ATOM     12  O   UNL     1       5.071   7.201  15.583  0.00  0.00    +0.000 OA
ENDBRANCH   4  10
BRANCH   5  13
ATOM     13  C   UNL     1       5.682   3.824  15.765  0.00  0.00    +0.000 C 
ATOM     14  C   UNL     1       5.349   4.307  14.352  0.00  0.00    +0.000 C 
ATOM     15  C   UNL     1       7.121   4.252  16.127  0.00  0.00    +0.000 C 
ENDBRANCH   5  13
BRANCH   1  17
ATOM     16  C   UNL     1       0.813   2.940  19.623  0.00  0.00    +0.000 C 
ATOM     17  C   UNL     1       1.592   2.555  18.369  0.00  0.00    +0.000 C 
ENDBRANCH   1  17
TORSDOF 4
ENDMDL
