MODEL 1
REMARK VINA RESULT:      -8.6      0.000      0.000
REMARK  Name = 
REMARK  3 active torsions:
REMARK  status: ('A' for Active; 'I' for Inactive)
REMARK    1  A    between atoms: C_1  and  N_2
REMARK    2  A    between atoms: C_9  and  N_10
REMARK    3  A    between atoms: C_11  and  C_13
REMARK                            x       y       z     vdW  Elec       q    Type
REMARK                         _______ _______ _______ _____ _____    ______ ____
ROOT
ATOM      1  C   UNL     1       2.217   6.737  19.625  0.00  0.00    +0.000 A 
ATOM      2  C   UNL     1       3.159   6.870  18.616  0.00  0.00    +0.000 A 
ATOM      3  N   UNL     1       3.468   5.621  18.104  0.00  0.00    +0.000 N 
ATOM      4  C   UNL     1       4.416   5.372  17.054  0.00  0.00    +0.000 A 
ATOM      5  N   UNL     1       5.122   6.409  16.558  0.00  0.00    +0.000 NA
ATOM      6  C   UNL     1       6.093   6.096  15.673  0.00  0.00    +0.000 A 
ATOM      7  C   UNL     1       6.377   4.817  15.261  0.00  0.00    +0.000 A 
ATOM      8  C   UNL     1       5.571   3.836  15.782  0.00  0.00    +0.000 A 
ATOM      9  N   UNL     1       4.598   4.091  16.663  0.00  0.00    +0.000 NA
ATOM     10  C   UNL     1       2.744   4.662  18.806  0.00  0.00    +0.000 A 
ATOM     11  C   UNL     1       2.701   3.255  18.689  0.00  0.00    +0.000 A 
ATOM     12  C   UNL     1       1.906   2.522  19.566  0.00  0.00    +0.000 A 
ATOM     13  C   UNL     1       1.162   3.167  20.540  0.00  0.00    +0.000 A 
ATOM     14  C   UNL     1       1.191   4.563  20.653  0.00  0.00    +0.000 A 
ATOM     15  C   UNL     1       1.992   5.332  19.779  0.00  0.00    +0.000 A 
ENDROOT
BRANCH   1  17
ATOM     16  N   UNL     1       0.996   8.786  19.618  0.00  0.00    +0.000 N 
ATOM     17  C   UNL     1       1.606   7.824  20.397  0.00  0.00    +0.000 C 
ATOM     18  O   UNL     1       1.600   7.850  21.619  0.00  0.00    +0.000 OA
ATOM     19  H   UNL     1       0.798   8.517  18.663  0.00  0.00    +0.000 HD
BRANCH  16  28
ATOM     20  C   UNL     1      -0.001  13.814  18.396  0.00  0.00    +0.000 C 
ATOM     21  N   UNL     1       0.125  12.459  18.930  0.00  0.00    +0.000 NA
ATOM     22  C   UNL     1      -1.184  11.771  18.999  0.00  0.00    +0.000 C 
ATOM     23  C   UNL     1      -2.115  12.313  20.111  0.00  0.00    +0.000 C 
ATOM     24  O   UNL     1      -1.489  12.306  21.397  0.00  0.00    +0.000 OA
ATOM     25  C   UNL     1      -0.247  13.011  21.368  0.00  0.00    +0.000 C 
ATOM     26  C   UNL     1       0.705  12.446  20.290  0.00  0.00    +0.000 C 
ATOM     27  C   UNL     1       1.132  11.007  20.619  0.00  0.00    +0.000 C 
ATOM     28  C   UNL     1       0.181   9.882  20.170  0.00  0.00    +0.000 C 
ATOM     29  C   UNL     1      -0.913  10.269  19.160  0.00  0.00    +0.000 C 
ENDBRANCH  16  28
ENDBRANCH   1  17
TORSDOF 2
ENDMDL
MODEL 2
REMARK VINA RESULT:      -8.4      2.674      8.475
REMARK  Name = 
REMARK  3 active torsions:
REMARK  status: ('A' for Active; 'I' for Inactive)
REMARK    1  A    between atoms: C_1  and  N_2
REMARK    2  A    between atoms: C_9  and  N_10
REMARK    3  A    between atoms: C_11  and  C_13
REMARK                            x       y       z     vdW  Elec       q    Type
REMARK                         _______ _______ _______ _____ _____    ______ ____
ROOT
ATOM      1  C   UNL     1       1.294   9.778  19.220  0.00  0.00    +0.000 A 
ATOM      2  C   UNL     1       1.144  11.106  18.848  0.00  0.00    +0.000 A 
ATOM      3  N   UNL     1       0.489  11.797  19.855  0.00  0.00    +0.000 N 
ATOM      4  C   UNL     1       0.150  13.193  19.810  0.00  0.00    +0.000 A 
ATOM      5  N   UNL     1       0.420  13.890  18.687  0.00  0.00    +0.000 NA
ATOM      6  C   UNL     1      -0.044  15.158  18.651  0.00  0.00    +0.000 A 
ATOM      7  C   UNL     1      -0.742  15.753  19.674  0.00  0.00    +0.000 A 
ATOM      8  C   UNL     1      -0.921  14.980  20.794  0.00  0.00    +0.000 A 
ATOM      9  N   UNL     1      -0.485  13.719  20.880  0.00  0.00    +0.000 NA
ATOM     10  C   UNL     1       0.181  10.906  20.878  0.00  0.00    +0.000 A 
ATOM     11  C   UNL     1      -0.483  11.093  22.109  0.00  0.00    +0.000 A 
ATOM     12  C   UNL     1      -0.699   9.998  22.942  0.00  0.00    +0.000 A 
ATOM     13  C   UNL     1      -0.262   8.738  22.566  0.00  0.00    +0.000 A 
ATOM     14  C   UNL     1       0.408   8.548  21.351  0.00  0.00    +0.000 A 
ATOM     15  C   UNL     1       0.638   9.641  20.486  0.00  0.00    +0.000 A 
ENDROOT
BRANCH   1  17
ATOM     16  N   UNL     1       2.270   7.603  19.188  0.00  0.00    +0.000 N 
ATOM     17  C   UNL     1       1.962   8.726  18.448  0.00  0.00    +0.000 C 
ATOM     18  O   UNL     1       2.183   8.819  17.250  0.00  0.00    +0.000 OA
ATOM     19  H   UNL     1       1.782   7.510  20.069  0.00  0.00    +0.000 HD
BRANCH  16  28
ATOM     20  C   UNL     1       1.772   2.431  20.066  0.00  0.00    +0.000 C 
ATOM     21  N   UNL     1       2.067   3.798  19.640  0.00  0.00    +0.000 NA
ATOM     22  C   UNL     1       1.689   4.027  18.228  0.00  0.00    +0.000 C 
ATOM     23  C   UNL     1       2.619   3.321  17.211  0.00  0.00    +0.000 C 
ATOM     24  O   UNL     1       3.996   3.654  17.411  0.00  0.00    +0.000 OA
ATOM     25  C   UNL     1       4.399   3.391  18.756  0.00  0.00    +0.000 C 
ATOM     26  C   UNL     1       3.502   4.128  19.775  0.00  0.00    +0.000 C 
ATOM     27  C   UNL     1       3.659   5.652  19.659  0.00  0.00    +0.000 C 
ATOM     28  C   UNL     1       2.795   6.359  18.598  0.00  0.00    +0.000 C 
ATOM     29  C   UNL     1       1.636   5.544  17.999  0.00  0.00    +0.000 C 
ENDBRANCH  16  28
ENDBRANCH   1  17
TORSDOF 2
ENDMDL
MODEL 3
REMARK VINA RESULT:      -8.4      1.181      1.801
REMARK  Name = 
REMARK  3 active torsions:
REMARK  status: ('A' for Active; 'I' for Inactive)
REMARK    1  A    between atoms: C_1  and  N_2
REMARK    2  A    between atoms: C_9  and  N_10
REMARK    3  A    between atoms: C_11  and  C_13
REMARK                            x       y       z     vdW  Elec       q    Type
REMARK                         _______ _______ _______ _____ _____    ______ ____
ROOT
ATOM      1  C   UNL     1       2.478   7.289  18.825  0.00  0.00    +0.000 A 
ATOM      2  C   UNL     1       3.368   7.166  17.769  0.00  0.00    +0.000 A 
ATOM      3  N   UNL     1       3.749   5.840  17.637  0.00  0.00    +0.000 N 
ATOM      4  C   UNL     1       4.673   5.343  16.655  0.00  0.00    +0.000 A 
ATOM      5  N   UNL     1       5.279   6.221  15.830  0.00  0.00    +0.000 NA
ATOM      6  C   UNL     1       6.236   5.714  15.024  0.00  0.00    +0.000 A 
ATOM      7  C   UNL     1       6.599   4.389  14.998  0.00  0.00    +0.000 A 
ATOM      8  C   UNL     1       5.889   3.566  15.835  0.00  0.00    +0.000 A 
ATOM      9  N   UNL     1       4.935   4.017  16.655  0.00  0.00    +0.000 NA
ATOM     10  C   UNL     1       3.127   5.098  18.635  0.00  0.00    +0.000 A 
ATOM     11  C   UNL     1       3.184   3.722  18.948  0.00  0.00    +0.000 A 
ATOM     12  C   UNL     1       2.480   3.242  20.049  0.00  0.00    +0.000 A 
ATOM     13  C   UNL     1       1.728   4.107  20.828  0.00  0.00    +0.000 A 
ATOM     14  C   UNL     1       1.658   5.470  20.516  0.00  0.00    +0.000 A 
ATOM     15  C   UNL     1       2.364   5.985  19.406  0.00  0.00    +0.000 A 
ENDROOT
BRANCH   1  17
ATOM     16  N   UNL     1       1.561   9.414  18.253  0.00  0.00    +0.000 N 
ATOM     17  C   UNL     1       1.818   8.519  19.271  0.00  0.00    +0.000 C 
ATOM     18  O   UNL     1       1.486   8.713  20.431  0.00  0.00    +0.000 OA
ATOM     19  H   UNL     1       1.597   9.035  17.316  0.00  0.00    +0.000 HD
BRANCH  16  28
ATOM     20  C   UNL     1      -0.662  12.000  22.271  0.00  0.00    +0.000 C 
ATOM     21  N   UNL     1      -0.143  11.463  21.014  0.00  0.00    +0.000 NA
ATOM     22  C   UNL     1       0.753  12.425  20.334  0.00  0.00    +0.000 C 
ATOM     23  C   UNL     1       0.013  13.636  19.716  0.00  0.00    +0.000 C 
ATOM     24  O   UNL     1      -1.040  13.239  18.834  0.00  0.00    +0.000 OA
ATOM     25  C   UNL     1      -1.949  12.351  19.485  0.00  0.00    +0.000 C 
ATOM     26  C   UNL     1      -1.223  11.116  20.066  0.00  0.00    +0.000 C 
ATOM     27  C   UNL     1      -0.626  10.243  18.952  0.00  0.00    +0.000 C 
ATOM     28  C   UNL     1       0.767  10.643  18.430  0.00  0.00    +0.000 C 
ATOM     29  C   UNL     1       1.559  11.649  19.283  0.00  0.00    +0.000 C 
ENDBRANCH  16  28
ENDBRANCH   1  17
TORSDOF 2
ENDMDL
MODEL 4
REMARK VINA RESULT:      -8.3      0.885      1.100
REMARK  Name = 
REMARK  3 active torsions:
REMARK  status: ('A' for Active; 'I' for Inactive)
REMARK    1  A    between atoms: C_1  and  N_2
REMARK    2  A    between atoms: C_9  and  N_10
REMARK    3  A    between atoms: C_11  and  C_13
REMARK                            x       y       z     vdW  Elec       q    Type
REMARK                         _______ _______ _______ _____ _____    ______ ____
ROOT
ATOM      1  C   UNL     1       2.437   6.521  19.309  0.00  0.00    +0.000 A 
ATOM      2  C   UNL     1       3.445   6.616  18.361  0.00  0.00    +0.000 A 
ATOM      3  N   UNL     1       3.696   5.363  17.826  0.00  0.00    +0.000 N 
ATOM      4  C   UNL     1       4.687   5.078  16.825  0.00  0.00    +0.000 A 
ATOM      5  N   UNL     1       5.491   6.077  16.406  0.00  0.00    +0.000 NA
ATOM      6  C   UNL     1       6.490   5.722  15.569  0.00  0.00    +0.000 A 
ATOM      7  C   UNL     1       6.708   4.438  15.131  0.00  0.00    +0.000 A 
ATOM      8  C   UNL     1       5.807   3.502  15.572  0.00  0.00    +0.000 A 
ATOM      9  N   UNL     1       4.803   3.800  16.403  0.00  0.00    +0.000 NA
ATOM     10  C   UNL     1       2.867   4.438  18.453  0.00  0.00    +0.000 A 
ATOM     11  C   UNL     1       2.733   3.042  18.287  0.00  0.00    +0.000 A 
ATOM     12  C   UNL     1       1.838   2.342  19.091  0.00  0.00    +0.000 A 
ATOM     13  C   UNL     1       1.083   3.010  20.042  0.00  0.00    +0.000 A 
ATOM     14  C   UNL     1       1.203   4.396  20.203  0.00  0.00    +0.000 A 
ATOM     15  C   UNL     1       2.106   5.131  19.402  0.00  0.00    +0.000 A 
ENDROOT
BRANCH   1  17
ATOM     16  N   UNL     1       1.759   8.806  19.374  0.00  0.00    +0.000 N 
ATOM     17  C   UNL     1       1.858   7.625  20.080  0.00  0.00    +0.000 C 
ATOM     18  O   UNL     1       1.458   7.497  21.228  0.00  0.00    +0.000 OA
ATOM     19  H   UNL     1       1.831   8.724  18.369  0.00  0.00    +0.000 HD
BRANCH  16  28
ATOM     20  C   UNL     1      -2.231  11.881  17.826  0.00  0.00    +0.000 C 
ATOM     21  N   UNL     1      -1.107  11.184  18.449  0.00  0.00    +0.000 NA
ATOM     22  C   UNL     1      -1.445  10.703  19.808  0.00  0.00    +0.000 C 
ATOM     23  C   UNL     1      -1.556  11.834  20.859  0.00  0.00    +0.000 C 
ATOM     24  O   UNL     1      -0.384  12.653  20.906  0.00  0.00    +0.000 OA
ATOM     25  C   UNL     1      -0.069  13.173  19.613  0.00  0.00    +0.000 C 
ATOM     26  C   UNL     1       0.088  12.046  18.567  0.00  0.00    +0.000 C 
ATOM     27  C   UNL     1       1.298  11.153  18.885  0.00  0.00    +0.000 C 
ATOM     28  C   UNL     1       1.067  10.003  19.883  0.00  0.00    +0.000 C 
ATOM     29  C   UNL     1      -0.397   9.654  20.204  0.00  0.00    +0.000 C 
ENDBRANCH  16  28
ENDBRANCH   1  17
TORSDOF 2
ENDMDL
MODEL 5
REMARK VINA RESULT:      -8.2      1.892      4.065
REMARK  Name = 
REMARK  3 active torsions:
REMARK  status: ('A' for Active; 'I' for Inactive)
REMARK    1  A    between atoms: C_1  and  N_2
REMARK    2  A    between atoms: C_9  and  N_10
REMARK    3  A    between atoms: C_11  and  C_13
REMARK                            x       y       z     vdW  Elec       q    Type
REMARK                         _______ _______ _______ _____ _____    ______ ____
ROOT
ATOM      1  C   UNL     1       2.635   7.715  18.333  0.00  0.00    +0.000 A 
ATOM      2  C   UNL     1       2.298   6.830  19.345  0.00  0.00    +0.000 A 
ATOM      3  N   UNL     1       3.064   5.681  19.230  0.00  0.00    +0.000 N 
ATOM      4  C   UNL     1       2.976   4.541  20.101  0.00  0.00    +0.000 A 
ATOM      5  N   UNL     1       2.039   4.537  21.071  0.00  0.00    +0.000 NA
ATOM      6  C   UNL     1       1.912   3.386  21.767  0.00  0.00    +0.000 A 
ATOM      7  C   UNL     1       2.676   2.265  21.548  0.00  0.00    +0.000 A 
ATOM      8  C   UNL     1       3.636   2.385  20.576  0.00  0.00    +0.000 A 
ATOM      9  N   UNL     1       3.802   3.499  19.856  0.00  0.00    +0.000 NA
ATOM     10  C   UNL     1       3.886   5.805  18.114  0.00  0.00    +0.000 A 
ATOM     11  C   UNL     1       4.838   4.926  17.554  0.00  0.00    +0.000 A 
ATOM     12  C   UNL     1       5.501   5.292  16.385  0.00  0.00    +0.000 A 
ATOM     13  C   UNL     1       5.230   6.509  15.781  0.00  0.00    +0.000 A 
ATOM     14  C   UNL     1       4.296   7.391  16.339  0.00  0.00    +0.000 A 
ATOM     15  C   UNL     1       3.607   7.044  17.522  0.00  0.00    +0.000 A 
ENDROOT
BRANCH   1  17
ATOM     16  N   UNL     1       1.106   9.403  19.038  0.00  0.00    +0.000 N 
ATOM     17  C   UNL     1       2.077   9.054  18.122  0.00  0.00    +0.000 C 
ATOM     18  O   UNL     1       2.469   9.808  17.244  0.00  0.00    +0.000 OA
ATOM     19  H   UNL     1       1.077   8.845  19.881  0.00  0.00    +0.000 HD
BRANCH  16  28
ATOM     20  C   UNL     1      -1.068  12.402  22.786  0.00  0.00    +0.000 C 
ATOM     21  N   UNL     1      -0.515  11.761  21.594  0.00  0.00    +0.000 NA
ATOM     22  C   UNL     1       0.600  12.545  21.017  0.00  0.00    +0.000 C 
ATOM     23  C   UNL     1       0.147  13.852  20.320  0.00  0.00    +0.000 C 
ATOM     24  O   UNL     1      -0.856  13.622  19.328  0.00  0.00    +0.000 OA
ATOM     25  C   UNL     1      -1.968  12.912  19.876  0.00  0.00    +0.000 C 
ATOM     26  C   UNL     1      -1.529  11.584  20.533  0.00  0.00    +0.000 C 
ATOM     27  C   UNL     1      -0.971  10.601  19.492  0.00  0.00    +0.000 C 
ATOM     28  C   UNL     1       0.517  10.750  19.127  0.00  0.00    +0.000 C 
ATOM     29  C   UNL     1       1.371  11.625  20.061  0.00  0.00    +0.000 C 
ENDBRANCH  16  28
ENDBRANCH   1  17
TORSDOF 2
ENDMDL
MODEL 6
REMARK VINA RESULT:      -8.1      2.323      8.582
REMARK  Name = 
REMARK  3 active torsions:
REMARK  status: ('A' for Active; 'I' for Inactive)
REMARK    1  A    between atoms: C_1  and  N_2
REMARK    2  A    between atoms: C_9  and  N_10
REMARK    3  A    between atoms: C_11  and  C_13
REMARK                            x       y       z     vdW  Elec       q    Type
REMARK                         _______ _______ _______ _____ _____    ______ ____
ROOT
ATOM      1  C   UNL     1       0.929  10.111  19.248  0.00  0.00    +0.000 A 
ATOM      2  C   UNL     1       0.857  11.457  18.926  0.00  0.00    +0.000 A 
ATOM      3  N   UNL     1       0.325  12.161  19.994  0.00  0.00    +0.000 N 
ATOM      4  C   UNL     1       0.091  13.578  20.013  0.00  0.00    +0.000 A 
ATOM      5  N   UNL     1       0.339  14.291  18.895  0.00  0.00    +0.000 NA
ATOM      6  C   UNL     1      -0.028  15.591  18.927  0.00  0.00    +0.000 A 
ATOM      7  C   UNL     1      -0.610  16.200  20.013  0.00  0.00    +0.000 A 
ATOM      8  C   UNL     1      -0.773  15.406  21.119  0.00  0.00    +0.000 A 
ATOM      9  N   UNL     1      -0.430  14.114  21.139  0.00  0.00    +0.000 NA
ATOM     10  C   UNL     1       0.018  11.261  21.010  0.00  0.00    +0.000 A 
ATOM     11  C   UNL     1      -0.547  11.455  22.289  0.00  0.00    +0.000 A 
ATOM     12  C   UNL     1      -0.790  10.351  23.103  0.00  0.00    +0.000 A 
ATOM     13  C   UNL     1      -0.476   9.076  22.662  0.00  0.00    +0.000 A 
ATOM     14  C   UNL     1       0.096   8.878  21.399  0.00  0.00    +0.000 A 
ATOM     15  C   UNL     1       0.350   9.980  20.551  0.00  0.00    +0.000 A 
ENDROOT
BRANCH   1  17
ATOM     16  N   UNL     1       2.149   8.067  19.101  0.00  0.00    +0.000 N 
ATOM     17  C   UNL     1       1.462   9.038  18.402  0.00  0.00    +0.000 C 
ATOM     18  O   UNL     1       1.276   8.988  17.195  0.00  0.00    +0.000 OA
ATOM     19  H   UNL     1       1.985   8.045  20.099  0.00  0.00    +0.000 HD
BRANCH  16  28
ATOM     20  C   UNL     1       6.593   5.235  19.174  0.00  0.00    +0.000 C 
ATOM     21  N   UNL     1       5.276   5.846  18.996  0.00  0.00    +0.000 NA
ATOM     22  C   UNL     1       4.187   4.937  19.420  0.00  0.00    +0.000 C 
ATOM     23  C   UNL     1       3.960   3.746  18.458  0.00  0.00    +0.000 C 
ATOM     24  O   UNL     1       3.749   4.168  17.108  0.00  0.00    +0.000 OA
ATOM     25  C   UNL     1       4.816   5.004  16.658  0.00  0.00    +0.000 C 
ATOM     26  C   UNL     1       5.020   6.220  17.589  0.00  0.00    +0.000 C 
ATOM     27  C   UNL     1       3.805   7.161  17.554  0.00  0.00    +0.000 C 
ATOM     28  C   UNL     1       2.634   6.816  18.492  0.00  0.00    +0.000 C 
ATOM     29  C   UNL     1       2.917   5.782  19.596  0.00  0.00    +0.000 C 
ENDBRANCH  16  28
ENDBRANCH   1  17
TORSDOF 2
ENDMDL
MODEL 7
REMARK VINA RESULT:      -8.1      2.607      8.699
REMARK  Name = 
REMARK  3 active torsions:
REMARK  status: ('A' for Active; 'I' for Inactive)
REMARK    1  A    between atoms: C_1  and  N_2
REMARK    2  A    between atoms: C_9  and  N_10
REMARK    3  A    between atoms: C_11  and  C_13
REMARK                            x       y       z     vdW  Elec       q    Type
REMARK                         _______ _______ _______ _____ _____    ______ ____
ROOT
ATOM      1  C   UNL     1       0.876  10.096  18.737  0.00  0.00    +0.000 A 
ATOM      2  C   UNL     1       1.165  11.109  19.639  0.00  0.00    +0.000 A 
ATOM      3  N   UNL     1       0.032  11.879  19.849  0.00  0.00    +0.000 N 
ATOM      4  C   UNL     1      -0.037  13.025  20.713  0.00  0.00    +0.000 A 
ATOM      5  N   UNL     1       1.089  13.443  21.327  0.00  0.00    +0.000 NA
ATOM      6  C   UNL     1       0.994  14.602  22.014  0.00  0.00    +0.000 A 
ATOM      7  C   UNL     1      -0.160  15.340  22.123  0.00  0.00    +0.000 A 
ATOM      8  C   UNL     1      -1.264  14.806  21.508  0.00  0.00    +0.000 A 
ATOM      9  N   UNL     1      -1.223  13.665  20.812  0.00  0.00    +0.000 NA
ATOM     10  C   UNL     1      -0.995  11.383  19.053  0.00  0.00    +0.000 A 
ATOM     11  C   UNL     1      -2.332  11.805  18.885  0.00  0.00    +0.000 A 
ATOM     12  C   UNL     1      -3.148  11.141  17.973  0.00  0.00    +0.000 A 
ATOM     13  C   UNL     1      -2.653  10.074  17.240  0.00  0.00    +0.000 A 
ATOM     14  C   UNL     1      -1.331   9.644  17.411  0.00  0.00    +0.000 A 
ATOM     15  C   UNL     1      -0.480  10.301  18.327  0.00  0.00    +0.000 A 
ENDROOT
BRANCH   1  17
ATOM     16  N   UNL     1       1.865   7.960  19.118  0.00  0.00    +0.000 N 
ATOM     17  C   UNL     1       1.795   9.051  18.276  0.00  0.00    +0.000 C 
ATOM     18  O   UNL     1       2.406   9.121  17.220  0.00  0.00    +0.000 OA
ATOM     19  H   UNL     1       1.110   7.871  19.785  0.00  0.00    +0.000 HD
BRANCH  16  28
ATOM     20  C   UNL     1       1.053   2.778  19.628  0.00  0.00    +0.000 C 
ATOM     21  N   UNL     1       1.498   4.150  19.386  0.00  0.00    +0.000 NA
ATOM     22  C   UNL     1       1.751   4.400  17.950  0.00  0.00    +0.000 C 
ATOM     23  C   UNL     1       3.025   3.705  17.411  0.00  0.00    +0.000 C 
ATOM     24  O   UNL     1       4.188   4.029  18.178  0.00  0.00    +0.000 OA
ATOM     25  C   UNL     1       3.986   3.745  19.564  0.00  0.00    +0.000 C 
ATOM     26  C   UNL     1       2.740   4.472  20.119  0.00  0.00    +0.000 C 
ATOM     27  C   UNL     1       2.929   5.997  20.103  0.00  0.00    +0.000 C 
ATOM     28  C   UNL     1       2.593   6.722  18.787  0.00  0.00    +0.000 C 
ATOM     29  C   UNL     1       1.797   5.921  17.742  0.00  0.00    +0.000 C 
ENDBRANCH  16  28
ENDBRANCH   1  17
TORSDOF 2
ENDMDL
MODEL 8
REMARK VINA RESULT:      -8.1      2.567      8.437
REMARK  Name = 
REMARK  3 active torsions:
REMARK  status: ('A' for Active; 'I' for Inactive)
REMARK    1  A    between atoms: C_1  and  N_2
REMARK    2  A    between atoms: C_9  and  N_10
REMARK    3  A    between atoms: C_11  and  C_13
REMARK                            x       y       z     vdW  Elec       q    Type
REMARK                         _______ _______ _______ _____ _____    ______ ____
ROOT
ATOM      1  C   UNL     1       0.939   9.192  18.793  0.00  0.00    +0.000 A 
ATOM      2  C   UNL     1      -0.011   9.492  17.829  0.00  0.00    +0.000 A 
ATOM      3  N   UNL     1      -1.008  10.273  18.391  0.00  0.00    +0.000 N 
ATOM      4  C   UNL     1      -2.164  10.762  17.691  0.00  0.00    +0.000 A 
ATOM      5  N   UNL     1      -2.350  10.392  16.407  0.00  0.00    +0.000 NA
ATOM      6  C   UNL     1      -3.519  10.768  15.845  0.00  0.00    +0.000 A 
ATOM      7  C   UNL     1      -4.488  11.495  16.495  0.00  0.00    +0.000 A 
ATOM      8  C   UNL     1      -4.184  11.867  17.780  0.00  0.00    +0.000 A 
ATOM      9  N   UNL     1      -3.043  11.519  18.384  0.00  0.00    +0.000 NA
ATOM     10  C   UNL     1      -0.722  10.457  19.740  0.00  0.00    +0.000 A 
ATOM     11  C   UNL     1      -1.413  11.156  20.754  0.00  0.00    +0.000 A 
ATOM     12  C   UNL     1      -0.914  11.142  22.054  0.00  0.00    +0.000 A 
ATOM     13  C   UNL     1       0.251  10.452  22.347  0.00  0.00    +0.000 A 
ATOM     14  C   UNL     1       0.947   9.767  21.344  0.00  0.00    +0.000 A 
ATOM     15  C   UNL     1       0.462   9.762  20.017  0.00  0.00    +0.000 A 
ENDROOT
BRANCH   1  17
ATOM     16  N   UNL     1       2.191   7.225  19.293  0.00  0.00    +0.000 N 
ATOM     17  C   UNL     1       2.167   8.415  18.595  0.00  0.00    +0.000 C 
ATOM     18  O   UNL     1       3.065   8.770  17.846  0.00  0.00    +0.000 OA
ATOM     19  H   UNL     1       1.297   6.894  19.629  0.00  0.00    +0.000 HD
BRANCH  16  28
ATOM     20  C   UNL     1       2.455   2.194  17.745  0.00  0.00    +0.000 C 
ATOM     21  N   UNL     1       2.628   3.570  18.211  0.00  0.00    +0.000 NA
ATOM     22  C   UNL     1       3.560   4.329  17.347  0.00  0.00    +0.000 C 
ATOM     23  C   UNL     1       5.041   3.903  17.502  0.00  0.00    +0.000 C 
ATOM     24  O   UNL     1       5.482   3.951  18.861  0.00  0.00    +0.000 OA
ATOM     25  C   UNL     1       4.628   3.180  19.707  0.00  0.00    +0.000 C 
ATOM     26  C   UNL     1       3.154   3.630  19.592  0.00  0.00    +0.000 C 
ATOM     27  C   UNL     1       2.962   5.061  20.118  0.00  0.00    +0.000 C 
ATOM     28  C   UNL     1       3.244   6.207  19.129  0.00  0.00    +0.000 C 
ATOM     29  C   UNL     1       3.360   5.821  17.644  0.00  0.00    +0.000 C 
ENDBRANCH  16  28
ENDBRANCH   1  17
TORSDOF 2
ENDMDL
MODEL 9
REMARK VINA RESULT:      -8.1      2.705      8.569
REMARK  Name = 
REMARK  3 active torsions:
REMARK  status: ('A' for Active; 'I' for Inactive)
REMARK    1  A    between atoms: C_1  and  N_2
REMARK    2  A    between atoms: C_9  and  N_10
REMARK    3  A    between atoms: C_11  and  C_13
REMARK                            x       y       z     vdW  Elec       q    Type
REMARK                         _______ _______ _______ _____ _____    ______ ____
ROOT
ATOM      1  C   UNL     1       0.691   9.357  18.548  0.00  0.00    +0.000 A 
ATOM      2  C   UNL     1      -0.374   9.758  17.755  0.00  0.00    +0.000 A 
ATOM      3  N   UNL     1      -1.279  10.471  18.523  0.00  0.00    +0.000 N 
ATOM      4  C   UNL     1      -2.510  11.031  18.038  0.00  0.00    +0.000 A 
ATOM      5  N   UNL     1      -2.867  10.802  16.758  0.00  0.00    +0.000 NA
ATOM      6  C   UNL     1      -4.095  11.234  16.398  0.00  0.00    +0.000 A 
ATOM      7  C   UNL     1      -4.961  11.884  17.243  0.00  0.00    +0.000 A 
ATOM      8  C   UNL     1      -4.488  12.116  18.510  0.00  0.00    +0.000 A 
ATOM      9  N   UNL     1      -3.282  11.707  18.918  0.00  0.00    +0.000 NA
ATOM     10  C   UNL     1      -0.817  10.508  19.835  0.00  0.00    +0.000 A 
ATOM     11  C   UNL     1      -1.360  11.092  21.000  0.00  0.00    +0.000 A 
ATOM     12  C   UNL     1      -0.696  10.938  22.214  0.00  0.00    +0.000 A 
ATOM     13  C   UNL     1       0.489  10.223  22.276  0.00  0.00    +0.000 A 
ATOM     14  C   UNL     1       1.039   9.652  21.122  0.00  0.00    +0.000 A 
ATOM     15  C   UNL     1       0.385   9.790  19.878  0.00  0.00    +0.000 A 
ENDROOT
BRANCH   1  17
ATOM     16  N   UNL     1       1.901   7.302  18.551  0.00  0.00    +0.000 N 
ATOM     17  C   UNL     1       1.873   8.608  18.108  0.00  0.00    +0.000 C 
ATOM     18  O   UNL     1       2.730   9.086  17.379  0.00  0.00    +0.000 OA
ATOM     19  H   UNL     1       1.020   6.931  18.881  0.00  0.00    +0.000 HD
BRANCH  16  28
ATOM     20  C   UNL     1       3.696   2.641  20.233  0.00  0.00    +0.000 C 
ATOM     21  N   UNL     1       3.366   3.909  19.583  0.00  0.00    +0.000 NA
ATOM     22  C   UNL     1       2.902   3.708  18.192  0.00  0.00    +0.000 C 
ATOM     23  C   UNL     1       4.029   3.296  17.213  0.00  0.00    +0.000 C 
ATOM     24  O   UNL     1       5.131   4.208  17.236  0.00  0.00    +0.000 OA
ATOM     25  C   UNL     1       5.631   4.376  18.564  0.00  0.00    +0.000 C 
ATOM     26  C   UNL     1       4.520   4.831  19.538  0.00  0.00    +0.000 C 
ATOM     27  C   UNL     1       4.003   6.234  19.182  0.00  0.00    +0.000 C 
ATOM     28  C   UNL     1       2.902   6.315  18.109  0.00  0.00    +0.000 C 
ATOM     29  C   UNL     1       2.197   4.996  17.745  0.00  0.00    +0.000 C 
ENDBRANCH  16  28
ENDBRANCH   1  17
TORSDOF 2
ENDMDL
