MODEL 1
REMARK VINA RESULT:      -6.4      0.000      0.000
REMARK  Name = 
REMARK  4 active torsions:
REMARK  status: ('A' for Active; 'I' for Inactive)
REMARK    1  A    between atoms: C_1  and  O_2
REMARK    2  A    between atoms: O_2  and  C_3
REMARK    3  A    between atoms: C_8  and  O_9
REMARK    4  A    between atoms: O_9  and  C_10
REMARK                            x       y       z     vdW  Elec       q    Type
REMARK                         _______ _______ _______ _____ _____    ______ ____
ROOT
ATOM      1  C   UNL     1       6.010   4.332  16.928  0.00  0.00    +0.000 A 
ATOM      2  C   UNL     1       4.715   3.949  16.552  0.00  0.00    +0.000 A 
ATOM      3  C   UNL     1       3.683   3.851  17.487  0.00  0.00    +0.000 A 
ATOM      4  C   UNL     1       3.938   4.145  18.819  0.00  0.00    +0.000 A 
ATOM      5  C   UNL     1       5.220   4.523  19.212  0.00  0.00    +0.000 A 
ATOM      6  C   UNL     1       6.268   4.622  18.278  0.00  0.00    +0.000 A 
ATOM      7  N   UNL     1       2.894   3.968  19.738  0.00  0.00    +0.000 N 
ATOM      8  C   UNL     1       1.646   3.654  19.311  0.00  0.00    +0.000 C 
ATOM      9  N   UNL     1       0.719   3.673  20.296  0.00  0.00    +0.000 N 
ATOM     10  N   UNL     1       1.270   3.360  18.115  0.00  0.00    +0.000 NA
ATOM     11  C   UNL     1       2.308   3.399  17.070  0.00  0.00    +0.000 C 
ATOM     12  H   UNL     1       3.028   4.332  20.668  0.00  0.00    +0.000 HD
ATOM     13  H   UNL     1       1.023   3.364  21.210  0.00  0.00    +0.000 HD
ATOM     14  H   UNL     1      -0.136   3.212  19.997  0.00  0.00    +0.000 HD
ENDROOT
BRANCH   1  16
ATOM     15  C   UNL     1       6.637   4.534  14.656  0.00  0.00    +0.000 C 
ATOM     16  O   UNL     1       7.033   4.368  16.015  0.00  0.00    +0.000 OA
ENDBRANCH   1  16
BRANCH   6  17
ATOM     17  O   UNL     1       7.450   5.008  18.860  0.00  0.00    +0.000 OA
ATOM     18  C   UNL     1       7.848   6.368  18.754  0.00  0.00    +0.000 C 
ENDBRANCH   6  17
TORSDOF 2
ENDMDL
MODEL 2
REMARK VINA RESULT:      -6.4      1.550      1.753
REMARK  Name = 
REMARK  4 active torsions:
REMARK  status: ('A' for Active; 'I' for Inactive)
REMARK    1  A    between atoms: C_1  and  O_2
REMARK    2  A    between atoms: O_2  and  C_3
REMARK    3  A    between atoms: C_8  and  O_9
REMARK    4  A    between atoms: O_9  and  C_10
REMARK                            x       y       z     vdW  Elec       q    Type
REMARK                         _______ _______ _______ _____ _____    ______ ____
ROOT
ATOM      1  C   UNL     1       6.124   4.962  15.947  0.00  0.00    +0.000 A 
ATOM      2  C   UNL     1       5.013   4.191  16.316  0.00  0.00    +0.000 A 
ATOM      3  C   UNL     1       4.345   4.404  17.522  0.00  0.00    +0.000 A 
ATOM      4  C   UNL     1       4.780   5.407  18.377  0.00  0.00    +0.000 A 
ATOM      5  C   UNL     1       5.885   6.182  18.029  0.00  0.00    +0.000 A 
ATOM      6  C   UNL     1       6.568   5.972  16.817  0.00  0.00    +0.000 A 
ATOM      7  N   UNL     1       4.126   5.545  19.609  0.00  0.00    +0.000 N 
ATOM      8  C   UNL     1       3.020   4.813  19.888  0.00  0.00    +0.000 C 
ATOM      9  N   UNL     1       2.414   5.170  21.042  0.00  0.00    +0.000 N 
ATOM     10  N   UNL     1       2.507   3.858  19.191  0.00  0.00    +0.000 NA
ATOM     11  C   UNL     1       3.178   3.538  17.919  0.00  0.00    +0.000 C 
ATOM     12  H   UNL     1       4.332   6.368  20.153  0.00  0.00    +0.000 HD
ATOM     13  H   UNL     1       3.018   5.465  21.799  0.00  0.00    +0.000 HD
ATOM     14  H   UNL     1       1.746   4.462  21.335  0.00  0.00    +0.000 HD
ENDROOT
BRANCH   1  16
ATOM     15  C   UNL     1       6.128   3.904  13.831  0.00  0.00    +0.000 C 
ATOM     16  O   UNL     1       6.813   4.707  14.789  0.00  0.00    +0.000 OA
ENDBRANCH   1  16
BRANCH   6  17
ATOM     17  O   UNL     1       7.625   6.834  16.658  0.00  0.00    +0.000 OA
ATOM     18  C   UNL     1       7.777   7.901  17.585  0.00  0.00    +0.000 C 
ENDBRANCH   6  17
TORSDOF 2
ENDMDL
MODEL 3
REMARK VINA RESULT:      -6.4      1.690      3.268
REMARK  Name = 
REMARK  4 active torsions:
REMARK  status: ('A' for Active; 'I' for Inactive)
REMARK    1  A    between atoms: C_1  and  O_2
REMARK    2  A    between atoms: O_2  and  C_3
REMARK    3  A    between atoms: C_8  and  O_9
REMARK    4  A    between atoms: O_9  and  C_10
REMARK                            x       y       z     vdW  Elec       q    Type
REMARK                         _______ _______ _______ _____ _____    ______ ____
ROOT
ATOM      1  C   UNL     1       6.793   5.958  16.749  0.00  0.00    +0.000 A 
ATOM      2  C   UNL     1       6.128   5.769  17.969  0.00  0.00    +0.000 A 
ATOM      3  C   UNL     1       5.152   4.785  18.122  0.00  0.00    +0.000 A 
ATOM      4  C   UNL     1       4.833   3.965  17.049  0.00  0.00    +0.000 A 
ATOM      5  C   UNL     1       5.480   4.139  15.828  0.00  0.00    +0.000 A 
ATOM      6  C   UNL     1       6.464   5.132  15.661  0.00  0.00    +0.000 A 
ATOM      7  N   UNL     1       3.799   3.034  17.222  0.00  0.00    +0.000 N 
ATOM      8  C   UNL     1       3.232   2.853  18.440  0.00  0.00    +0.000 C 
ATOM      9  N   UNL     1       2.365   1.816  18.483  0.00  0.00    +0.000 N 
ATOM     10  N   UNL     1       3.432   3.535  19.515  0.00  0.00    +0.000 NA
ATOM     11  C   UNL     1       4.420   4.625  19.429  0.00  0.00    +0.000 C 
ATOM     12  H   UNL     1       3.679   2.336  16.506  0.00  0.00    +0.000 HD
ATOM     13  H   UNL     1       1.815   1.651  17.650  0.00  0.00    +0.000 HD
ATOM     14  H   UNL     1       1.793   1.857  19.322  0.00  0.00    +0.000 HD
ENDROOT
BRANCH   1  16
ATOM     15  C   UNL     1       7.723   7.953  17.615  0.00  0.00    +0.000 C 
ATOM     16  O   UNL     1       7.709   6.967  16.587  0.00  0.00    +0.000 OA
ENDBRANCH   1  16
BRANCH   6  17
ATOM     17  O   UNL     1       6.982   5.144  14.390  0.00  0.00    +0.000 OA
ATOM     18  C   UNL     1       6.577   4.130  13.481  0.00  0.00    +0.000 C 
ENDBRANCH   6  17
TORSDOF 2
ENDMDL
MODEL 4
REMARK VINA RESULT:      -6.4      1.651      2.747
REMARK  Name = 
REMARK  4 active torsions:
REMARK  status: ('A' for Active; 'I' for Inactive)
REMARK    1  A    between atoms: C_1  and  O_2
REMARK    2  A    between atoms: O_2  and  C_3
REMARK    3  A    between atoms: C_8  and  O_9
REMARK    4  A    between atoms: O_9  and  C_10
REMARK                            x       y       z     vdW  Elec       q    Type
REMARK                         _______ _______ _______ _____ _____    ______ ____
ROOT
ATOM      1  C   UNL     1       5.784   6.295  16.896  0.00  0.00    +0.000 A 
ATOM      2  C   UNL     1       4.593   6.382  17.629  0.00  0.00    +0.000 A 
ATOM      3  C   UNL     1       3.773   5.270  17.823  0.00  0.00    +0.000 A 
ATOM      4  C   UNL     1       4.144   4.045  17.287  0.00  0.00    +0.000 A 
ATOM      5  C   UNL     1       5.323   3.939  16.552  0.00  0.00    +0.000 A 
ATOM      6  C   UNL     1       6.155   5.056  16.347  0.00  0.00    +0.000 A 
ATOM      7  N   UNL     1       3.261   2.968  17.445  0.00  0.00    +0.000 N 
ATOM      8  C   UNL     1       2.152   3.093  18.214  0.00  0.00    +0.000 C 
ATOM      9  N   UNL     1       1.488   1.930  18.397  0.00  0.00    +0.000 N 
ATOM     10  N   UNL     1       1.691   4.161  18.770  0.00  0.00    +0.000 NA
ATOM     11  C   UNL     1       2.476   5.393  18.579  0.00  0.00    +0.000 C 
ATOM     12  H   UNL     1       3.600   2.050  17.202  0.00  0.00    +0.000 HD
ATOM     13  H   UNL     1       1.480   1.285  17.617  0.00  0.00    +0.000 HD
ATOM     14  H   UNL     1       0.557   2.099  18.768  0.00  0.00    +0.000 HD
ENDROOT
BRANCH   1  16
ATOM     15  C   UNL     1       7.617   7.624  17.581  0.00  0.00    +0.000 C 
ATOM     16  O   UNL     1       6.555   7.405  16.658  0.00  0.00    +0.000 OA
ENDBRANCH   1  16
BRANCH   6  17
ATOM     17  O   UNL     1       7.266   4.748  15.601  0.00  0.00    +0.000 OA
ATOM     18  C   UNL     1       7.173   4.813  14.185  0.00  0.00    +0.000 C 
ENDBRANCH   6  17
TORSDOF 2
ENDMDL
MODEL 5
REMARK VINA RESULT:      -6.2      2.765      3.461
REMARK  Name = 
REMARK  4 active torsions:
REMARK  status: ('A' for Active; 'I' for Inactive)
REMARK    1  A    between atoms: C_1  and  O_2
REMARK    2  A    between atoms: O_2  and  C_3
REMARK    3  A    between atoms: C_8  and  O_9
REMARK    4  A    between atoms: O_9  and  C_10
REMARK                            x       y       z     vdW  Elec       q    Type
REMARK                         _______ _______ _______ _____ _____    ______ ____
ROOT
ATOM      1  C   UNL     1       3.802   6.911  17.613  0.00  0.00    +0.000 A 
ATOM      2  C   UNL     1       2.989   5.989  18.287  0.00  0.00    +0.000 A 
ATOM      3  C   UNL     1       3.509   4.807  18.813  0.00  0.00    +0.000 A 
ATOM      4  C   UNL     1       4.863   4.534  18.677  0.00  0.00    +0.000 A 
ATOM      5  C   UNL     1       5.687   5.437  18.007  0.00  0.00    +0.000 A 
ATOM      6  C   UNL     1       5.171   6.631  17.469  0.00  0.00    +0.000 A 
ATOM      7  N   UNL     1       5.334   3.305  19.158  0.00  0.00    +0.000 N 
ATOM      8  C   UNL     1       4.516   2.478  19.854  0.00  0.00    +0.000 C 
ATOM      9  N   UNL     1       5.154   1.411  20.385  0.00  0.00    +0.000 N 
ATOM     10  N   UNL     1       3.250   2.606  20.058  0.00  0.00    +0.000 NA
ATOM     11  C   UNL     1       2.611   3.809  19.498  0.00  0.00    +0.000 C 
ATOM     12  H   UNL     1       6.333   3.178  19.206  0.00  0.00    +0.000 HD
ATOM     13  H   UNL     1       5.910   1.017  19.839  0.00  0.00    +0.000 HD
ATOM     14  H   UNL     1       4.488   0.705  20.688  0.00  0.00    +0.000 HD
ENDROOT
BRANCH   1  16
ATOM     15  C   UNL     1       2.257   8.693  17.804  0.00  0.00    +0.000 C 
ATOM     16  O   UNL     1       3.274   8.043  17.046  0.00  0.00    +0.000 OA
ENDBRANCH   1  16
BRANCH   6  17
ATOM     17  O   UNL     1       6.138   7.384  16.850  0.00  0.00    +0.000 OA
ATOM     18  C   UNL     1       7.446   7.402  17.407  0.00  0.00    +0.000 C 
ENDBRANCH   6  17
TORSDOF 2
ENDMDL
MODEL 6
REMARK VINA RESULT:      -6.2      2.836      3.407
REMARK  Name = 
REMARK  4 active torsions:
REMARK  status: ('A' for Active; 'I' for Inactive)
REMARK    1  A    between atoms: C_1  and  O_2
REMARK    2  A    between atoms: O_2  and  C_3
REMARK    3  A    between atoms: C_8  and  O_9
REMARK    4  A    between atoms: O_9  and  C_10
REMARK                            x       y       z     vdW  Elec       q    Type
REMARK                         _______ _______ _______ _____ _____    ______ ____
ROOT
ATOM      1  C   UNL     1       3.558   6.921  17.760  0.00  0.00    +0.000 A 
ATOM      2  C   UNL     1       2.602   5.962  18.122  0.00  0.00    +0.000 A 
ATOM      3  C   UNL     1       2.916   4.604  18.176  0.00  0.00    +0.000 A 
ATOM      4  C   UNL     1       4.206   4.188  17.873  0.00  0.00    +0.000 A 
ATOM      5  C   UNL     1       5.168   5.126  17.507  0.00  0.00    +0.000 A 
ATOM      6  C   UNL     1       4.860   6.499  17.446  0.00  0.00    +0.000 A 
ATOM      7  N   UNL     1       4.464   2.810  17.872  0.00  0.00    +0.000 N 
ATOM      8  C   UNL     1       3.520   1.931  18.288  0.00  0.00    +0.000 C 
ATOM      9  N   UNL     1       3.970   0.659  18.380  0.00  0.00    +0.000 N 
ATOM     10  N   UNL     1       2.294   2.176  18.600  0.00  0.00    +0.000 NA
ATOM     11  C   UNL     1       1.865   3.584  18.529  0.00  0.00    +0.000 C 
ATOM     12  H   UNL     1       5.428   2.519  17.813  0.00  0.00    +0.000 HD
ATOM     13  H   UNL     1       4.648   0.368  17.687  0.00  0.00    +0.000 HD
ATOM     14  H   UNL     1       3.195   0.006  18.461  0.00  0.00    +0.000 HD
ENDROOT
BRANCH   1  16
ATOM     15  C   UNL     1       1.859   8.562  17.899  0.00  0.00    +0.000 C 
ATOM     16  O   UNL     1       3.226   8.248  17.650  0.00  0.00    +0.000 OA
ENDBRANCH   1  16
BRANCH   6  17
ATOM     17  O   UNL     1       5.939   7.258  17.067  0.00  0.00    +0.000 OA
ATOM     18  C   UNL     1       7.220   6.923  17.582  0.00  0.00    +0.000 C 
ENDBRANCH   6  17
TORSDOF 2
ENDMDL
MODEL 7
REMARK VINA RESULT:      -6.2      1.172      1.395
REMARK  Name = 
REMARK  4 active torsions:
REMARK  status: ('A' for Active; 'I' for Inactive)
REMARK    1  A    between atoms: C_1  and  O_2
REMARK    2  A    between atoms: O_2  and  C_3
REMARK    3  A    between atoms: C_8  and  O_9
REMARK    4  A    between atoms: O_9  and  C_10
REMARK                            x       y       z     vdW  Elec       q    Type
REMARK                         _______ _______ _______ _____ _____    ______ ____
ROOT
ATOM      1  C   UNL     1       4.784   4.711  17.120  0.00  0.00    +0.000 A 
ATOM      2  C   UNL     1       3.405   4.506  17.277  0.00  0.00    +0.000 A 
ATOM      3  C   UNL     1       2.876   3.979  18.454  0.00  0.00    +0.000 A 
ATOM      4  C   UNL     1       3.727   3.654  19.502  0.00  0.00    +0.000 A 
ATOM      5  C   UNL     1       5.100   3.846  19.363  0.00  0.00    +0.000 A 
ATOM      6  C   UNL     1       5.645   4.374  18.177  0.00  0.00    +0.000 A 
ATOM      7  N   UNL     1       3.165   3.063  20.642  0.00  0.00    +0.000 N 
ATOM      8  C   UNL     1       1.820   2.944  20.764  0.00  0.00    +0.000 C 
ATOM      9  N   UNL     1       1.427   2.502  21.980  0.00  0.00    +0.000 N 
ATOM     10  N   UNL     1       0.919   3.206  19.881  0.00  0.00    +0.000 NA
ATOM     11  C   UNL     1       1.396   3.729  18.589  0.00  0.00    +0.000 C 
ATOM     12  H   UNL     1       3.752   2.978  21.457  0.00  0.00    +0.000 HD
ATOM     13  H   UNL     1       2.028   1.825  22.432  0.00  0.00    +0.000 HD
ATOM     14  H   UNL     1       0.455   2.203  21.959  0.00  0.00    +0.000 HD
ENDROOT
BRANCH   1  16
ATOM     15  C   UNL     1       5.739   4.170  15.024  0.00  0.00    +0.000 C 
ATOM     16  O   UNL     1       5.303   5.173  15.937  0.00  0.00    +0.000 OA
ENDBRANCH   1  16
BRANCH   6  17
ATOM     17  O   UNL     1       7.012   4.487  18.237  0.00  0.00    +0.000 OA
ATOM     18  C   UNL     1       7.575   5.724  18.652  0.00  0.00    +0.000 C 
ENDBRANCH   6  17
TORSDOF 2
ENDMDL
MODEL 8
REMARK VINA RESULT:      -6.2      3.510      5.555
REMARK  Name = 
REMARK  4 active torsions:
REMARK  status: ('A' for Active; 'I' for Inactive)
REMARK    1  A    between atoms: C_1  and  O_2
REMARK    2  A    between atoms: O_2  and  C_3
REMARK    3  A    between atoms: C_8  and  O_9
REMARK    4  A    between atoms: O_9  and  C_10
REMARK                            x       y       z     vdW  Elec       q    Type
REMARK                         _______ _______ _______ _____ _____    ______ ____
ROOT
ATOM      1  C   UNL     1       3.510   4.746  19.321  0.00  0.00    +0.000 A 
ATOM      2  C   UNL     1       4.703   5.464  19.154  0.00  0.00    +0.000 A 
ATOM      3  C   UNL     1       5.429   5.405  17.964  0.00  0.00    +0.000 A 
ATOM      4  C   UNL     1       4.961   4.625  16.916  0.00  0.00    +0.000 A 
ATOM      5  C   UNL     1       3.779   3.901  17.065  0.00  0.00    +0.000 A 
ATOM      6  C   UNL     1       3.042   3.951  18.262  0.00  0.00    +0.000 A 
ATOM      7  N   UNL     1       5.753   4.536  15.763  0.00  0.00    +0.000 N 
ATOM      8  C   UNL     1       6.866   5.299  15.631  0.00  0.00    +0.000 C 
ATOM      9  N   UNL     1       7.432   5.220  14.406  0.00  0.00    +0.000 N 
ATOM     10  N   UNL     1       7.410   6.064  16.514  0.00  0.00    +0.000 NA
ATOM     11  C   UNL     1       6.729   6.152  17.818  0.00  0.00    +0.000 C 
ATOM     12  H   UNL     1       5.341   4.108  14.949  0.00  0.00    +0.000 HD
ATOM     13  H   UNL     1       7.390   4.320  13.945  0.00  0.00    +0.000 HD
ATOM     14  H   UNL     1       8.373   5.605  14.416  0.00  0.00    +0.000 HD
ENDROOT
BRANCH   1  16
ATOM     15  C   UNL     1       1.775   5.710  20.608  0.00  0.00    +0.000 C 
ATOM     16  O   UNL     1       2.833   4.762  20.515  0.00  0.00    +0.000 OA
ENDBRANCH   1  16
BRANCH   6  17
ATOM     17  O   UNL     1       1.913   3.172  18.211  0.00  0.00    +0.000 OA
ATOM     18  C   UNL     1       1.914   1.926  18.895  0.00  0.00    +0.000 C 
ENDBRANCH   6  17
TORSDOF 2
ENDMDL
MODEL 9
REMARK VINA RESULT:      -6.1      3.431      5.628
REMARK  Name = 
REMARK  4 active torsions:
REMARK  status: ('A' for Active; 'I' for Inactive)
REMARK    1  A    between atoms: C_1  and  O_2
REMARK    2  A    between atoms: O_2  and  C_3
REMARK    3  A    between atoms: C_8  and  O_9
REMARK    4  A    between atoms: O_9  and  C_10
REMARK                            x       y       z     vdW  Elec       q    Type
REMARK                         _______ _______ _______ _____ _____    ______ ____
ROOT
ATOM      1  C   UNL     1       2.819   4.639  19.591  0.00  0.00    +0.000 A 
ATOM      2  C   UNL     1       4.131   5.124  19.687  0.00  0.00    +0.000 A 
ATOM      3  C   UNL     1       5.021   5.037  18.617  0.00  0.00    +0.000 A 
ATOM      4  C   UNL     1       4.602   4.466  17.423  0.00  0.00    +0.000 A 
ATOM      5  C   UNL     1       3.303   3.975  17.309  0.00  0.00    +0.000 A 
ATOM      6  C   UNL     1       2.398   4.054  18.385  0.00  0.00    +0.000 A 
ATOM      7  N   UNL     1       5.545   4.335  16.395  0.00  0.00    +0.000 N 
ATOM      8  C   UNL     1       6.782   4.876  16.521  0.00  0.00    +0.000 C 
ATOM      9  N   UNL     1       7.520   4.804  15.391  0.00  0.00    +0.000 N 
ATOM     10  N   UNL     1       7.299   5.433  17.562  0.00  0.00    +0.000 NA
ATOM     11  C   UNL     1       6.439   5.528  18.754  0.00  0.00    +0.000 C 
ATOM     12  H   UNL     1       5.204   4.074  15.483  0.00  0.00    +0.000 HD
ATOM     13  H   UNL     1       7.395   3.978  14.820  0.00  0.00    +0.000 HD
ATOM     14  H   UNL     1       8.499   4.996  15.584  0.00  0.00    +0.000 HD
ENDROOT
BRANCH   1  16
ATOM     15  C   UNL     1       2.156   3.641  21.631  0.00  0.00    +0.000 C 
ATOM     16  O   UNL     1       1.968   4.673  20.666  0.00  0.00    +0.000 OA
ENDBRANCH   1  16
BRANCH   6  17
ATOM     17  O   UNL     1       1.173   3.518  18.075  0.00  0.00    +0.000 OA
ATOM     18  C   UNL     1       0.833   2.246  18.608  0.00  0.00    +0.000 C 
ENDBRANCH   6  17
TORSDOF 2
ENDMDL
