MODEL 1
REMARK VINA RESULT:      -6.2      0.000      0.000
REMARK  Name = 
REMARK  6 active torsions:
REMARK  status: ('A' for Active; 'I' for Inactive)
REMARK    1  A    between atoms: C_1  and  C_2
REMARK    2  A    between atoms: N_4  and  P_5
REMARK    3  A    between atoms: P_5  and  O_7
REMARK    4  A    between atoms: P_5  and  N_14
REMARK    5  A    between atoms: O_7  and  C_8
REMARK    6  A    between atoms: C_16  and  C_17
REMARK                            x       y       z     vdW  Elec       q    Type
REMARK                         _______ _______ _______ _____ _____    ______ ____
ROOT
ATOM      1  P   UNL     1       4.598   4.019  18.566  0.00  0.00    +0.000 P 
ATOM      2  O   UNL     1       4.877   2.840  19.529  0.00  0.00    +0.000 OA
ENDROOT
BRANCH   1   6
ATOM      3  C   UNL     1       8.037   6.150  19.166  0.00  0.00    +0.000 C 
ATOM      4  C   UNL     1       6.930   5.711  18.255  0.00  0.00    +0.000 C 
ATOM      5  C   UNL     1       7.120   4.504  17.342  0.00  0.00    +0.000 C 
ATOM      6  N   UNL     1       6.327   4.442  18.552  0.00  0.00    +0.000 NA
ENDBRANCH   1   6
BRANCH   1   7
ATOM      7  N   UNL     1       2.870   3.595  18.578  0.00  0.00    +0.000 NA
ATOM      8  C   UNL     1       2.662   2.159  18.311  0.00  0.00    +0.000 C 
ATOM      9  C   UNL     1       2.330   2.754  19.647  0.00  0.00    +0.000 C 
ATOM     10  C   UNL     1       0.902   2.932  20.039  0.00  0.00    +0.000 C 
ENDBRANCH   1   7
BRANCH   1  11
ATOM     11  O   UNL     1       4.270   5.363  19.481  0.00  0.00    +0.000 OA
BRANCH  11  12
ATOM     12  C   UNL     1       3.499   6.425  19.092  0.00  0.00    +0.000 A 
ATOM     13  C   UNL     1       3.599   7.070  17.867  0.00  0.00    +0.000 A 
ATOM     14  C   UNL     1       2.735   8.132  17.560  0.00  0.00    +0.000 A 
ATOM     15  C   UNL     1       1.782   8.543  18.488  0.00  0.00    +0.000 A 
ATOM     16  C   UNL     1       1.694   7.908  19.726  0.00  0.00    +0.000 A 
ATOM     17  C   UNL     1       2.554   6.852  20.023  0.00  0.00    +0.000 A 
ENDBRANCH  11  12
ENDBRANCH   1  11
TORSDOF 4
ENDMDL
MODEL 2
REMARK VINA RESULT:      -6.2      1.364      2.169
REMARK  Name = 
REMARK  6 active torsions:
REMARK  status: ('A' for Active; 'I' for Inactive)
REMARK    1  A    between atoms: C_1  and  C_2
REMARK    2  A    between atoms: N_4  and  P_5
REMARK    3  A    between atoms: P_5  and  O_7
REMARK    4  A    between atoms: P_5  and  N_14
REMARK    5  A    between atoms: O_7  and  C_8
REMARK    6  A    between atoms: C_16  and  C_17
REMARK                            x       y       z     vdW  Elec       q    Type
REMARK                         _______ _______ _______ _____ _____    ______ ____
ROOT
ATOM      1  P   UNL     1       3.411   4.262  17.557  0.00  0.00    +0.000 P 
ATOM      2  O   UNL     1       4.125   2.980  18.047  0.00  0.00    +0.000 OA
ENDROOT
BRANCH   1   6
ATOM      3  C   UNL     1       6.131   4.353  14.504  0.00  0.00    +0.000 C 
ATOM      4  C   UNL     1       5.731   3.869  15.866  0.00  0.00    +0.000 C 
ATOM      5  C   UNL     1       6.199   4.612  17.113  0.00  0.00    +0.000 C 
ATOM      6  N   UNL     1       4.845   4.721  16.609  0.00  0.00    +0.000 NA
ENDBRANCH   1   6
BRANCH   1   7
ATOM      7  N   UNL     1       1.976   3.803  18.504  0.00  0.00    +0.000 NA
ATOM      8  C   UNL     1       1.738   2.348  18.455  0.00  0.00    +0.000 C 
ATOM      9  C   UNL     1       2.130   3.025  19.734  0.00  0.00    +0.000 C 
ATOM     10  C   UNL     1       1.117   3.198  20.815  0.00  0.00    +0.000 C 
ENDBRANCH   1   7
BRANCH   1  11
ATOM     11  O   UNL     1       3.733   5.475  18.642  0.00  0.00    +0.000 OA
BRANCH  11  12
ATOM     12  C   UNL     1       2.983   6.606  18.821  0.00  0.00    +0.000 A 
ATOM     13  C   UNL     1       2.296   6.925  19.983  0.00  0.00    +0.000 A 
ATOM     14  C   UNL     1       1.580   8.130  20.068  0.00  0.00    +0.000 A 
ATOM     15  C   UNL     1       1.555   9.002  18.982  0.00  0.00    +0.000 A 
ATOM     16  C   UNL     1       2.230   8.672  17.807  0.00  0.00    +0.000 A 
ATOM     17  C   UNL     1       2.940   7.475  17.732  0.00  0.00    +0.000 A 
ENDBRANCH  11  12
ENDBRANCH   1  11
TORSDOF 4
ENDMDL
MODEL 3
REMARK VINA RESULT:      -6.1      1.180      4.262
REMARK  Name = 
REMARK  6 active torsions:
REMARK  status: ('A' for Active; 'I' for Inactive)
REMARK    1  A    between atoms: C_1  and  C_2
REMARK    2  A    between atoms: N_4  and  P_5
REMARK    3  A    between atoms: P_5  and  O_7
REMARK    4  A    between atoms: P_5  and  N_14
REMARK    5  A    between atoms: O_7  and  C_8
REMARK    6  A    between atoms: C_16  and  C_17
REMARK                            x       y       z     vdW  Elec       q    Type
REMARK                         _______ _______ _______ _____ _____    ______ ____
ROOT
ATOM      1  P   UNL     1       4.585   4.638  18.296  0.00  0.00    +0.000 P 
ATOM      2  O   UNL     1       5.350   3.926  17.155  0.00  0.00    +0.000 OA
ENDROOT
BRANCH   1   6
ATOM      3  C   UNL     1       0.950   2.866  18.905  0.00  0.00    +0.000 C 
ATOM      4  C   UNL     1       2.443   2.829  19.028  0.00  0.00    +0.000 C 
ATOM      5  C   UNL     1       3.285   2.130  17.965  0.00  0.00    +0.000 C 
ATOM      6  N   UNL     1       3.182   3.573  18.046  0.00  0.00    +0.000 NA
ENDBRANCH   1   6
BRANCH   1   7
ATOM      7  N   UNL     1       5.989   5.703  18.547  0.00  0.00    +0.000 NA
ATOM      8  C   UNL     1       7.256   5.009  18.248  0.00  0.00    +0.000 C 
ATOM      9  C   UNL     1       6.782   6.151  17.401  0.00  0.00    +0.000 C 
ATOM     10  C   UNL     1       7.474   7.469  17.489  0.00  0.00    +0.000 C 
ENDBRANCH   1   7
BRANCH   1  11
ATOM     11  O   UNL     1       3.746   5.908  17.637  0.00  0.00    +0.000 OA
BRANCH  11  12
ATOM     12  C   UNL     1       2.982   6.807  18.332  0.00  0.00    +0.000 A 
ATOM     13  C   UNL     1       2.530   6.624  19.631  0.00  0.00    +0.000 A 
ATOM     14  C   UNL     1       1.776   7.626  20.261  0.00  0.00    +0.000 A 
ATOM     15  C   UNL     1       1.476   8.803  19.577  0.00  0.00    +0.000 A 
ATOM     16  C   UNL     1       1.914   8.978  18.265  0.00  0.00    +0.000 A 
ATOM     17  C   UNL     1       2.664   7.979  17.648  0.00  0.00    +0.000 A 
ENDBRANCH  11  12
ENDBRANCH   1  11
TORSDOF 4
ENDMDL
MODEL 4
REMARK VINA RESULT:      -6.1      1.503      1.930
REMARK  Name = 
REMARK  6 active torsions:
REMARK  status: ('A' for Active; 'I' for Inactive)
REMARK    1  A    between atoms: C_1  and  C_2
REMARK    2  A    between atoms: N_4  and  P_5
REMARK    3  A    between atoms: P_5  and  O_7
REMARK    4  A    between atoms: P_5  and  N_14
REMARK    5  A    between atoms: O_7  and  C_8
REMARK    6  A    between atoms: C_16  and  C_17
REMARK                            x       y       z     vdW  Elec       q    Type
REMARK                         _______ _______ _______ _____ _____    ______ ____
ROOT
ATOM      1  P   UNL     1       3.078   4.443  17.867  0.00  0.00    +0.000 P 
ATOM      2  O   UNL     1       3.894   3.230  18.376  0.00  0.00    +0.000 OA
ENDROOT
BRANCH   1   6
ATOM      3  C   UNL     1       5.858   4.166  14.881  0.00  0.00    +0.000 C 
ATOM      4  C   UNL     1       5.515   4.099  16.339  0.00  0.00    +0.000 C 
ATOM      5  C   UNL     1       5.708   5.321  17.230  0.00  0.00    +0.000 C 
ATOM      6  N   UNL     1       4.402   4.897  16.768  0.00  0.00    +0.000 NA
ENDBRANCH   1   6
BRANCH   1   7
ATOM      7  N   UNL     1       1.754   3.989  18.966  0.00  0.00    +0.000 NA
ATOM      8  C   UNL     1       1.175   2.681  18.605  0.00  0.00    +0.000 C 
ATOM      9  C   UNL     1       1.923   2.867  19.891  0.00  0.00    +0.000 C 
ATOM     10  C   UNL     1       1.174   2.891  21.180  0.00  0.00    +0.000 C 
ENDBRANCH   1   7
BRANCH   1  11
ATOM     11  O   UNL     1       3.431   5.742  18.838  0.00  0.00    +0.000 OA
BRANCH  11  12
ATOM     12  C   UNL     1       2.762   6.935  18.848  0.00  0.00    +0.000 A 
ATOM     13  C   UNL     1       2.663   7.797  17.766  0.00  0.00    +0.000 A 
ATOM     14  C   UNL     1       1.924   8.986  17.878  0.00  0.00    +0.000 A 
ATOM     15  C   UNL     1       1.295   9.302  19.080  0.00  0.00    +0.000 A 
ATOM     16  C   UNL     1       1.411   8.445  20.174  0.00  0.00    +0.000 A 
ATOM     17  C   UNL     1       2.144   7.266  20.053  0.00  0.00    +0.000 A 
ENDBRANCH  11  12
ENDBRANCH   1  11
TORSDOF 4
ENDMDL
MODEL 5
REMARK VINA RESULT:      -6.1      2.526      5.208
REMARK  Name = 
REMARK  6 active torsions:
REMARK  status: ('A' for Active; 'I' for Inactive)
REMARK    1  A    between atoms: C_1  and  C_2
REMARK    2  A    between atoms: N_4  and  P_5
REMARK    3  A    between atoms: P_5  and  O_7
REMARK    4  A    between atoms: P_5  and  N_14
REMARK    5  A    between atoms: O_7  and  C_8
REMARK    6  A    between atoms: C_16  and  C_17
REMARK                            x       y       z     vdW  Elec       q    Type
REMARK                         _______ _______ _______ _____ _____    ______ ____
ROOT
ATOM      1  P   UNL     1       5.015   6.112  16.447  0.00  0.00    +0.000 P 
ATOM      2  O   UNL     1       6.087   7.198  16.708  0.00  0.00    +0.000 OA
ENDROOT
BRANCH   1   6
ATOM      3  C   UNL     1       2.292   6.118  19.499  0.00  0.00    +0.000 C 
ATOM      4  C   UNL     1       2.669   6.508  18.101  0.00  0.00    +0.000 C 
ATOM      5  C   UNL     1       3.265   7.884  17.822  0.00  0.00    +0.000 C 
ATOM      6  N   UNL     1       4.071   6.681  17.845  0.00  0.00    +0.000 NA
ENDBRANCH   1   6
BRANCH   1   7
ATOM      7  N   UNL     1       5.959   5.544  15.049  0.00  0.00    +0.000 NA
ATOM      8  C   UNL     1       7.072   4.671  15.466  0.00  0.00    +0.000 C 
ATOM      9  C   UNL     1       5.923   4.132  14.667  0.00  0.00    +0.000 C 
ATOM     10  C   UNL     1       6.126   3.779  13.233  0.00  0.00    +0.000 C 
ENDBRANCH   1   7
BRANCH   1  11
ATOM     11  O   UNL     1       5.450   4.750  17.288  0.00  0.00    +0.000 OA
BRANCH  11  12
ATOM     12  C   UNL     1       4.586   3.842  17.839  0.00  0.00    +0.000 A 
ATOM     13  C   UNL     1       3.527   3.249  17.167  0.00  0.00    +0.000 A 
ATOM     14  C   UNL     1       2.719   2.306  17.822  0.00  0.00    +0.000 A 
ATOM     15  C   UNL     1       2.979   1.971  19.149  0.00  0.00    +0.000 A 
ATOM     16  C   UNL     1       4.032   2.582  19.830  0.00  0.00    +0.000 A 
ATOM     17  C   UNL     1       4.830   3.515  19.172  0.00  0.00    +0.000 A 
ENDBRANCH  11  12
ENDBRANCH   1  11
TORSDOF 4
ENDMDL
MODEL 6
REMARK VINA RESULT:      -6.1      0.922      1.568
REMARK  Name = 
REMARK  6 active torsions:
REMARK  status: ('A' for Active; 'I' for Inactive)
REMARK    1  A    between atoms: C_1  and  C_2
REMARK    2  A    between atoms: N_4  and  P_5
REMARK    3  A    between atoms: P_5  and  O_7
REMARK    4  A    between atoms: P_5  and  N_14
REMARK    5  A    between atoms: O_7  and  C_8
REMARK    6  A    between atoms: C_16  and  C_17
REMARK                            x       y       z     vdW  Elec       q    Type
REMARK                         _______ _______ _______ _____ _____    ______ ____
ROOT
ATOM      1  P   UNL     1       4.505   4.777  18.368  0.00  0.00    +0.000 P 
ATOM      2  O   UNL     1       5.258   3.632  19.086  0.00  0.00    +0.000 OA
ENDROOT
BRANCH   1   6
ATOM      3  C   UNL     1       7.564   7.385  17.612  0.00  0.00    +0.000 C 
ATOM      4  C   UNL     1       7.096   5.994  17.917  0.00  0.00    +0.000 C 
ATOM      5  C   UNL     1       7.076   5.488  19.356  0.00  0.00    +0.000 C 
ATOM      6  N   UNL     1       5.870   5.882  18.656  0.00  0.00    +0.000 NA
ENDBRANCH   1   6
BRANCH   1   7
ATOM      7  N   UNL     1       3.140   3.672  18.078  0.00  0.00    +0.000 NA
ATOM      8  C   UNL     1       3.506   2.273  18.368  0.00  0.00    +0.000 C 
ATOM      9  C   UNL     1       2.493   2.997  19.204  0.00  0.00    +0.000 C 
ATOM     10  C   UNL     1       1.050   2.641  19.084  0.00  0.00    +0.000 C 
ENDBRANCH   1   7
BRANCH   1  11
ATOM     11  O   UNL     1       3.602   5.587  19.500  0.00  0.00    +0.000 OA
BRANCH  11  12
ATOM     12  C   UNL     1       2.881   6.728  19.277  0.00  0.00    +0.000 A 
ATOM     13  C   UNL     1       2.067   7.347  20.216  0.00  0.00    +0.000 A 
ATOM     14  C   UNL     1       1.393   8.534  19.889  0.00  0.00    +0.000 A 
ATOM     15  C   UNL     1       1.536   9.087  18.618  0.00  0.00    +0.000 A 
ATOM     16  C   UNL     1       2.339   8.455  17.669  0.00  0.00    +0.000 A 
ATOM     17  C   UNL     1       3.006   7.278  18.002  0.00  0.00    +0.000 A 
ENDBRANCH  11  12
ENDBRANCH   1  11
TORSDOF 4
ENDMDL
MODEL 7
REMARK VINA RESULT:      -6.1      1.145      1.353
REMARK  Name = 
REMARK  6 active torsions:
REMARK  status: ('A' for Active; 'I' for Inactive)
REMARK    1  A    between atoms: C_1  and  C_2
REMARK    2  A    between atoms: N_4  and  P_5
REMARK    3  A    between atoms: P_5  and  O_7
REMARK    4  A    between atoms: P_5  and  N_14
REMARK    5  A    between atoms: O_7  and  C_8
REMARK    6  A    between atoms: C_16  and  C_17
REMARK                            x       y       z     vdW  Elec       q    Type
REMARK                         _______ _______ _______ _____ _____    ______ ____
ROOT
ATOM      1  P   UNL     1       3.954   5.094  18.279  0.00  0.00    +0.000 P 
ATOM      2  O   UNL     1       4.521   3.834  18.976  0.00  0.00    +0.000 OA
ENDROOT
BRANCH   1   6
ATOM      3  C   UNL     1       7.415   7.118  17.471  0.00  0.00    +0.000 C 
ATOM      4  C   UNL     1       6.716   5.836  17.810  0.00  0.00    +0.000 C 
ATOM      5  C   UNL     1       6.608   5.380  19.261  0.00  0.00    +0.000 C 
ATOM      6  N   UNL     1       5.488   5.956  18.545  0.00  0.00    +0.000 NA
ENDBRANCH   1   6
BRANCH   1   7
ATOM      7  N   UNL     1       2.420   4.232  18.011  0.00  0.00    +0.000 NA
ATOM      8  C   UNL     1       2.635   2.946  17.322  0.00  0.00    +0.000 C 
ATOM      9  C   UNL     1       2.141   2.993  18.737  0.00  0.00    +0.000 C 
ATOM     10  C   UNL     1       0.721   2.647  19.032  0.00  0.00    +0.000 C 
ENDBRANCH   1   7
BRANCH   1  11
ATOM     11  O   UNL     1       3.220   6.033  19.433  0.00  0.00    +0.000 OA
BRANCH  11  12
ATOM     12  C   UNL     1       2.546   7.201  19.201  0.00  0.00    +0.000 A 
ATOM     13  C   UNL     1       2.524   7.876  17.989  0.00  0.00    +0.000 A 
ATOM     14  C   UNL     1       1.774   9.054  17.853  0.00  0.00    +0.000 A 
ATOM     15  C   UNL     1       1.056   9.550  18.940  0.00  0.00    +0.000 A 
ATOM     16  C   UNL     1       1.094   8.882  20.163  0.00  0.00    +0.000 A 
ATOM     17  C   UNL     1       1.840   7.712  20.289  0.00  0.00    +0.000 A 
ENDBRANCH  11  12
ENDBRANCH   1  11
TORSDOF 4
ENDMDL
MODEL 8
REMARK VINA RESULT:      -6.0      1.721      4.148
REMARK  Name = 
REMARK  6 active torsions:
REMARK  status: ('A' for Active; 'I' for Inactive)
REMARK    1  A    between atoms: C_1  and  C_2
REMARK    2  A    between atoms: N_4  and  P_5
REMARK    3  A    between atoms: P_5  and  O_7
REMARK    4  A    between atoms: P_5  and  N_14
REMARK    5  A    between atoms: O_7  and  C_8
REMARK    6  A    between atoms: C_16  and  C_17
REMARK                            x       y       z     vdW  Elec       q    Type
REMARK                         _______ _______ _______ _____ _____    ______ ____
ROOT
ATOM      1  P   UNL     1       4.051   6.329  18.186  0.00  0.00    +0.000 P 
ATOM      2  O   UNL     1       4.350   6.980  16.814  0.00  0.00    +0.000 OA
ENDROOT
BRANCH   1   6
ATOM      3  C   UNL     1       7.995   5.670  19.043  0.00  0.00    +0.000 C 
ATOM      4  C   UNL     1       6.944   6.183  18.106  0.00  0.00    +0.000 C 
ATOM      5  C   UNL     1       6.414   5.295  16.985  0.00  0.00    +0.000 C 
ATOM      6  N   UNL     1       5.654   5.557  18.191  0.00  0.00    +0.000 NA
ENDBRANCH   1   6
BRANCH   1   7
ATOM      7  N   UNL     1       2.447   7.102  18.180  0.00  0.00    +0.000 NA
ATOM      8  C   UNL     1       2.113   7.663  19.503  0.00  0.00    +0.000 C 
ATOM      9  C   UNL     1       2.335   8.554  18.317  0.00  0.00    +0.000 C 
ATOM     10  C   UNL     1       1.171   9.239  17.683  0.00  0.00    +0.000 C 
ENDBRANCH   1   7
BRANCH   1  11
ATOM     11  O   UNL     1       3.337   4.857  17.909  0.00  0.00    +0.000 OA
BRANCH  11  12
ATOM     12  C   UNL     1       2.570   4.162  18.804  0.00  0.00    +0.000 A 
ATOM     13  C   UNL     1       1.406   3.476  18.486  0.00  0.00    +0.000 A 
ATOM     14  C   UNL     1       0.712   2.769  19.480  0.00  0.00    +0.000 A 
ATOM     15  C   UNL     1       1.188   2.762  20.789  0.00  0.00    +0.000 A 
ATOM     16  C   UNL     1       2.347   3.467  21.113  0.00  0.00    +0.000 A 
ATOM     17  C   UNL     1       3.031   4.164  20.119  0.00  0.00    +0.000 A 
ENDBRANCH  11  12
ENDBRANCH   1  11
TORSDOF 4
ENDMDL
MODEL 9
REMARK VINA RESULT:      -5.9      1.026      4.063
REMARK  Name = 
REMARK  6 active torsions:
REMARK  status: ('A' for Active; 'I' for Inactive)
REMARK    1  A    between atoms: C_1  and  C_2
REMARK    2  A    between atoms: N_4  and  P_5
REMARK    3  A    between atoms: P_5  and  O_7
REMARK    4  A    between atoms: P_5  and  N_14
REMARK    5  A    between atoms: O_7  and  C_8
REMARK    6  A    between atoms: C_16  and  C_17
REMARK                            x       y       z     vdW  Elec       q    Type
REMARK                         _______ _______ _______ _____ _____    ______ ____
ROOT
ATOM      1  P   UNL     1       4.533   4.733  18.922  0.00  0.00    +0.000 P 
ATOM      2  O   UNL     1       5.177   3.658  18.013  0.00  0.00    +0.000 OA
ENDROOT
BRANCH   1   6
ATOM      3  C   UNL     1       1.041   3.233  20.432  0.00  0.00    +0.000 C 
ATOM      4  C   UNL     1       2.515   3.094  20.202  0.00  0.00    +0.000 C 
ATOM      5  C   UNL     1       3.035   2.316  18.997  0.00  0.00    +0.000 C 
ATOM      6  N   UNL     1       3.046   3.764  19.048  0.00  0.00    +0.000 NA
ENDBRANCH   1   6
BRANCH   1   7
ATOM      7  N   UNL     1       6.020   5.702  18.797  0.00  0.00    +0.000 NA
ATOM      8  C   UNL     1       7.104   4.949  18.138  0.00  0.00    +0.000 C 
ATOM      9  C   UNL     1       6.492   6.153  17.487  0.00  0.00    +0.000 C 
ATOM     10  C   UNL     1       7.270   7.423  17.410  0.00  0.00    +0.000 C 
ENDBRANCH   1   7
BRANCH   1  11
ATOM     11  O   UNL     1       3.747   5.823  17.949  0.00  0.00    +0.000 OA
BRANCH  11  12
ATOM     12  C   UNL     1       3.010   6.892  18.381  0.00  0.00    +0.000 A 
ATOM     13  C   UNL     1       2.725   8.017  17.620  0.00  0.00    +0.000 A 
ATOM     14  C   UNL     1       1.932   9.045  18.155  0.00  0.00    +0.000 A 
ATOM     15  C   UNL     1       1.437   8.937  19.452  0.00  0.00    +0.000 A 
ATOM     16  C   UNL     1       1.739   7.815  20.224  0.00  0.00    +0.000 A 
ATOM     17  C   UNL     1       2.526   6.799  19.685  0.00  0.00    +0.000 A 
ENDBRANCH  11  12
ENDBRANCH   1  11
TORSDOF 4
ENDMDL
