MODEL 1
REMARK VINA RESULT:      -7.9      0.000      0.000
REMARK  Name = 
REMARK  8 active torsions:
REMARK  status: ('A' for Active; 'I' for Inactive)
REMARK    1  A    between atoms: C_1  and  O_2
REMARK    2  A    between atoms: O_2  and  C_3
REMARK    3  A    between atoms: C_6  and  C_7
REMARK    4  A    between atoms: C_7  and  N_8
REMARK    5  A    between atoms: N_8  and  C_9
REMARK    6  A    between atoms: C_20  and  C_21
REMARK    7  A    between atoms: N_23  and  C_24
REMARK    8  A    between atoms: C_24  and  C_25
REMARK                            x       y       z     vdW  Elec       q    Type
REMARK                         _______ _______ _______ _____ _____    ______ ____
ROOT
ATOM      1  C   UNL     1       0.750  11.183  19.195  0.00  0.00    +0.000 A 
ATOM      2  N   UNL     1       0.029  11.868  20.092  0.00  0.00    +0.000 NA
ATOM      3  C   UNL     1      -0.482  11.245  21.168  0.00  0.00    +0.000 A 
ATOM      4  N   UNL     1      -1.126  12.051  22.073  0.00  0.00    +0.000 N 
ATOM      5  C   UNL     1      -1.790  13.242  21.571  0.00  0.00    +0.000 C 
ATOM      6  C   UNL     1      -3.128  13.211  22.249  0.00  0.00    +0.000 C 
ATOM      7  C   UNL     1      -3.308  13.641  23.677  0.00  0.00    +0.000 C 
ATOM      8  C   UNL     1      -3.072  12.185  23.340  0.00  0.00    +0.000 C 
ATOM      9  C   UNL     1      -1.711  11.543  23.303  0.00  0.00    +0.000 C 
ATOM     10  N   UNL     1      -0.337   9.930  21.356  0.00  0.00    +0.000 NA
ATOM     11  C   UNL     1       0.381   9.243  20.428  0.00  0.00    +0.000 A 
ATOM     12  C   UNL     1       0.993   9.830  19.337  0.00  0.00    +0.000 A 
ENDROOT
BRANCH  12  13
ATOM     13  C   UNL     1       1.836   8.991  18.433  0.00  0.00    +0.000 C 
ATOM     14  O   UNL     1       2.141   9.392  17.312  0.00  0.00    +0.000 OA
ATOM     15  N   UNL     1       2.213   7.745  18.923  0.00  0.00    +0.000 N 
ATOM     16  H   UNL     1       2.020   7.575  19.906  0.00  0.00    +0.000 HD
BRANCH  15  17
ATOM     17  C   UNL     1       3.040   6.813  18.202  0.00  0.00    +0.000 C 
BRANCH  17  18
ATOM     18  C   UNL     1       3.593   5.690  19.107  0.00  0.00    +0.000 C 
ATOM     19  C   UNL     1       2.505   4.921  19.876  0.00  0.00    +0.000 C 
ATOM     20  C   UNL     1       1.607   4.137  18.922  0.00  0.00    +0.000 C 
ATOM     21  N   UNL     1       2.384   3.187  18.125  0.00  0.00    +0.000 NA
ATOM     22  C   UNL     1       3.479   3.821  17.386  0.00  0.00    +0.000 C 
ATOM     23  C   UNL     1       4.388   4.652  18.295  0.00  0.00    +0.000 C 
ATOM     24  H   UNL     1       1.763   2.718  17.466  0.00  0.00    +0.000 HD
ENDBRANCH  17  18
ENDBRANCH  15  17
ENDBRANCH  12  13
BRANCH   1  25
ATOM     25  N   UNL     1       1.394  11.971  18.204  0.00  0.00    +0.000 N 
ATOM     26  H   UNL     1       1.772  11.280  17.548  0.00  0.00    +0.000 HD
BRANCH  25  27
ATOM     27  C   UNL     1       2.527  12.752  18.724  0.00  0.00    +0.000 C 
BRANCH  27  31
ATOM     28  C   UNL     1       1.787  16.971  17.962  0.00  0.00    +0.000 A 
ATOM     29  C   UNL     1       2.987  16.363  17.539  0.00  0.00    +0.000 A 
ATOM     30  C   UNL     1       3.229  15.000  17.766  0.00  0.00    +0.000 A 
ATOM     31  C   UNL     1       2.286  14.217  18.437  0.00  0.00    +0.000 A 
ATOM     32  C   UNL     1       1.091  14.824  18.850  0.00  0.00    +0.000 A 
ATOM     33  C   UNL     1       0.828  16.176  18.591  0.00  0.00    +0.000 A 
ATOM     34 CL   UNL     1      -0.766  16.677  19.038  0.00  0.00    +0.000 Cl
BRANCH  28  36
ATOM     35  C   UNL     1       0.902  18.630  16.500  0.00  0.00    +0.000 C 
ATOM     36  O   UNL     1       1.701  18.302  17.633  0.00  0.00    +0.000 OA
ENDBRANCH  28  36
ENDBRANCH  27  31
ENDBRANCH  25  27
ENDBRANCH   1  25
TORSDOF 7
ENDMDL
MODEL 2
REMARK VINA RESULT:      -7.8      3.887      8.449
REMARK  Name = 
REMARK  8 active torsions:
REMARK  status: ('A' for Active; 'I' for Inactive)
REMARK    1  A    between atoms: C_1  and  O_2
REMARK    2  A    between atoms: O_2  and  C_3
REMARK    3  A    between atoms: C_6  and  C_7
REMARK    4  A    between atoms: C_7  and  N_8
REMARK    5  A    between atoms: N_8  and  C_9
REMARK    6  A    between atoms: C_20  and  C_21
REMARK    7  A    between atoms: N_23  and  C_24
REMARK    8  A    between atoms: C_24  and  C_25
REMARK                            x       y       z     vdW  Elec       q    Type
REMARK                         _______ _______ _______ _____ _____    ______ ____
ROOT
ATOM      1  C   UNL     1       0.742  10.029  19.974  0.00  0.00    +0.000 A 
ATOM      2  N   UNL     1       1.309   8.950  19.417  0.00  0.00    +0.000 NA
ATOM      3  C   UNL     1       1.698   7.918  20.186  0.00  0.00    +0.000 A 
ATOM      4  N   UNL     1       2.183   6.824  19.514  0.00  0.00    +0.000 N 
ATOM      5  C   UNL     1       2.859   7.050  18.246  0.00  0.00    +0.000 C 
ATOM      6  C   UNL     1       4.095   6.207  18.353  0.00  0.00    +0.000 C 
ATOM      7  C   UNL     1       4.066   4.719  18.141  0.00  0.00    +0.000 C 
ATOM      8  C   UNL     1       3.937   5.296  19.533  0.00  0.00    +0.000 C 
ATOM      9  C   UNL     1       2.620   5.614  20.189  0.00  0.00    +0.000 C 
ATOM     10  N   UNL     1       1.583   7.948  21.517  0.00  0.00    +0.000 NA
ATOM     11  C   UNL     1       1.023   9.056  22.070  0.00  0.00    +0.000 A 
ATOM     12  C   UNL     1       0.537  10.122  21.337  0.00  0.00    +0.000 A 
ENDROOT
BRANCH  12  13
ATOM     13  C   UNL     1      -0.143  11.247  22.047  0.00  0.00    +0.000 C 
ATOM     14  O   UNL     1       0.338  12.379  22.031  0.00  0.00    +0.000 OA
ATOM     15  N   UNL     1      -1.308  10.927  22.735  0.00  0.00    +0.000 N 
ATOM     16  H   UNL     1      -1.683   9.997  22.568  0.00  0.00    +0.000 HD
BRANCH  15  17
ATOM     17  C   UNL     1      -2.107  11.884  23.456  0.00  0.00    +0.000 C 
BRANCH  17  18
ATOM     18  C   UNL     1      -2.835  12.872  22.519  0.00  0.00    +0.000 C 
ATOM     19  C   UNL     1      -4.357  12.661  22.458  0.00  0.00    +0.000 C 
ATOM     20  C   UNL     1      -5.010  12.971  23.803  0.00  0.00    +0.000 C 
ATOM     21  N   UNL     1      -4.738  14.349  24.217  0.00  0.00    +0.000 NA
ATOM     22  C   UNL     1      -3.308  14.662  24.262  0.00  0.00    +0.000 C 
ATOM     23  C   UNL     1      -2.600  14.331  22.945  0.00  0.00    +0.000 C 
ATOM     24  H   UNL     1      -5.145  14.506  25.139  0.00  0.00    +0.000 HD
ENDBRANCH  17  18
ENDBRANCH  15  17
ENDBRANCH  12  13
BRANCH   1  25
ATOM     25  N   UNL     1       0.204  10.972  19.058  0.00  0.00    +0.000 N 
ATOM     26  H   UNL     1      -0.634  11.323  19.532  0.00  0.00    +0.000 HD
BRANCH  25  27
ATOM     27  C   UNL     1      -0.227  10.371  17.786  0.00  0.00    +0.000 C 
BRANCH  27  31
ATOM     28  C   UNL     1      -4.428  11.253  17.081  0.00  0.00    +0.000 A 
ATOM     29  C   UNL     1      -3.805  11.636  18.286  0.00  0.00    +0.000 A 
ATOM     30  C   UNL     1      -2.447  11.371  18.517  0.00  0.00    +0.000 A 
ATOM     31  C   UNL     1      -1.685  10.700  17.557  0.00  0.00    +0.000 A 
ATOM     32  C   UNL     1      -2.307  10.326  16.357  0.00  0.00    +0.000 A 
ATOM     33  C   UNL     1      -3.653  10.624  16.105  0.00  0.00    +0.000 A 
ATOM     34 CL   UNL     1      -4.172  10.222  14.506  0.00  0.00    +0.000 Cl
BRANCH  28  36
ATOM     35  C   UNL     1      -6.567  11.292  18.131  0.00  0.00    +0.000 C 
ATOM     36  O   UNL     1      -5.751  11.617  17.009  0.00  0.00    +0.000 OA
ENDBRANCH  28  36
ENDBRANCH  27  31
ENDBRANCH  25  27
ENDBRANCH   1  25
TORSDOF 7
ENDMDL
MODEL 3
REMARK VINA RESULT:      -7.7      4.344      7.158
REMARK  Name = 
REMARK  8 active torsions:
REMARK  status: ('A' for Active; 'I' for Inactive)
REMARK    1  A    between atoms: C_1  and  O_2
REMARK    2  A    between atoms: O_2  and  C_3
REMARK    3  A    between atoms: C_6  and  C_7
REMARK    4  A    between atoms: C_7  and  N_8
REMARK    5  A    between atoms: N_8  and  C_9
REMARK    6  A    between atoms: C_20  and  C_21
REMARK    7  A    between atoms: N_23  and  C_24
REMARK    8  A    between atoms: C_24  and  C_25
REMARK                            x       y       z     vdW  Elec       q    Type
REMARK                         _______ _______ _______ _____ _____    ______ ____
ROOT
ATOM      1  C   UNL     1       1.995   8.150  18.882  0.00  0.00    +0.000 A 
ATOM      2  N   UNL     1       1.594   9.428  18.894  0.00  0.00    +0.000 NA
ATOM      3  C   UNL     1       1.054   9.957  20.005  0.00  0.00    +0.000 A 
ATOM      4  N   UNL     1       0.761  11.297  19.946  0.00  0.00    +0.000 N 
ATOM      5  C   UNL     1       0.397  11.856  18.654  0.00  0.00    +0.000 C 
ATOM      6  C   UNL     1      -0.814  12.687  18.959  0.00  0.00    +0.000 C 
ATOM      7  C   UNL     1      -0.709  14.048  19.586  0.00  0.00    +0.000 C 
ATOM      8  C   UNL     1      -0.921  12.824  20.448  0.00  0.00    +0.000 C 
ATOM      9  C   UNL     1       0.199  12.031  21.067  0.00  0.00    +0.000 C 
ATOM     10  N   UNL     1       0.852   9.228  21.108  0.00  0.00    +0.000 NA
ATOM     11  C   UNL     1       1.246   7.928  21.076  0.00  0.00    +0.000 A 
ATOM     12  C   UNL     1       1.872   7.338  19.994  0.00  0.00    +0.000 A 
ENDROOT
BRANCH  12  13
ATOM     13  C   UNL     1       2.345   5.926  20.105  0.00  0.00    +0.000 C 
ATOM     14  O   UNL     1       3.546   5.674  20.193  0.00  0.00    +0.000 OA
ATOM     15  N   UNL     1       1.364   4.941  20.070  0.00  0.00    +0.000 N 
ATOM     16  H   UNL     1       0.403   5.267  20.131  0.00  0.00    +0.000 HD
BRANCH  15  17
ATOM     17  C   UNL     1       1.632   3.531  20.185  0.00  0.00    +0.000 C 
BRANCH  17  18
ATOM     18  C   UNL     1       1.325   2.762  18.882  0.00  0.00    +0.000 C 
ATOM     19  C   UNL     1       1.724   3.522  17.605  0.00  0.00    +0.000 C 
ATOM     20  C   UNL     1       3.239   3.691  17.516  0.00  0.00    +0.000 C 
ATOM     21  N   UNL     1       3.917   2.394  17.528  0.00  0.00    +0.000 NA
ATOM     22  C   UNL     1       3.565   1.574  18.688  0.00  0.00    +0.000 C 
ATOM     23  C   UNL     1       2.051   1.406  18.843  0.00  0.00    +0.000 C 
ATOM     24  H   UNL     1       4.926   2.545  17.517  0.00  0.00    +0.000 HD
ENDBRANCH  17  18
ENDBRANCH  15  17
ENDBRANCH  12  13
BRANCH   1  25
ATOM     25  N   UNL     1       2.715   7.751  17.725  0.00  0.00    +0.000 N 
ATOM     26  H   UNL     1       2.608   6.732  17.710  0.00  0.00    +0.000 HD
BRANCH  25  27
ATOM     27  C   UNL     1       4.155   8.043  17.805  0.00  0.00    +0.000 C 
BRANCH  27  31
ATOM     28  C   UNL     1       6.342   4.980  15.622  0.00  0.00    +0.000 A 
ATOM     29  C   UNL     1       5.368   5.767  14.975  0.00  0.00    +0.000 A 
ATOM     30  C   UNL     1       4.669   6.768  15.665  0.00  0.00    +0.000 A 
ATOM     31  C   UNL     1       4.912   6.993  17.023  0.00  0.00    +0.000 A 
ATOM     32  C   UNL     1       5.887   6.212  17.661  0.00  0.00    +0.000 A 
ATOM     33  C   UNL     1       6.616   5.237  16.966  0.00  0.00    +0.000 A 
ATOM     34 CL   UNL     1       7.876   4.508  17.900  0.00  0.00    +0.000 Cl
BRANCH  28  36
ATOM     35  C   UNL     1       6.268   3.751  13.582  0.00  0.00    +0.000 C 
ATOM     36  O   UNL     1       6.950   4.070  14.793  0.00  0.00    +0.000 OA
ENDBRANCH  28  36
ENDBRANCH  27  31
ENDBRANCH  25  27
ENDBRANCH   1  25
TORSDOF 7
ENDMDL
MODEL 4
REMARK VINA RESULT:      -7.7      3.786      8.329
REMARK  Name = 
REMARK  8 active torsions:
REMARK  status: ('A' for Active; 'I' for Inactive)
REMARK    1  A    between atoms: C_1  and  O_2
REMARK    2  A    between atoms: O_2  and  C_3
REMARK    3  A    between atoms: C_6  and  C_7
REMARK    4  A    between atoms: C_7  and  N_8
REMARK    5  A    between atoms: N_8  and  C_9
REMARK    6  A    between atoms: C_20  and  C_21
REMARK    7  A    between atoms: N_23  and  C_24
REMARK    8  A    between atoms: C_24  and  C_25
REMARK                            x       y       z     vdW  Elec       q    Type
REMARK                         _______ _______ _______ _____ _____    ______ ____
ROOT
ATOM      1  C   UNL     1       1.010   9.860  20.416  0.00  0.00    +0.000 A 
ATOM      2  N   UNL     1       1.620   9.126  19.476  0.00  0.00    +0.000 NA
ATOM      3  C   UNL     1       1.857   7.820  19.687  0.00  0.00    +0.000 A 
ATOM      4  N   UNL     1       2.402   7.135  18.630  0.00  0.00    +0.000 N 
ATOM      5  C   UNL     1       3.267   7.867  17.719  0.00  0.00    +0.000 C 
ATOM      6  C   UNL     1       4.446   6.956  17.546  0.00  0.00    +0.000 C 
ATOM      7  C   UNL     1       4.402   5.761  16.637  0.00  0.00    +0.000 C 
ATOM      8  C   UNL     1       4.084   5.615  18.108  0.00  0.00    +0.000 C 
ATOM      9  C   UNL     1       2.694   5.712  18.679  0.00  0.00    +0.000 C 
ATOM     10  N   UNL     1       1.545   7.223  20.842  0.00  0.00    +0.000 NA
ATOM     11  C   UNL     1       0.943   7.985  21.794  0.00  0.00    +0.000 A 
ATOM     12  C   UNL     1       0.607   9.314  21.619  0.00  0.00    +0.000 A 
ENDROOT
BRANCH  12  13
ATOM     13  C   UNL     1      -0.137  10.027  22.701  0.00  0.00    +0.000 C 
ATOM     14  O   UNL     1       0.146   9.838  23.883  0.00  0.00    +0.000 OA
ATOM     15  N   UNL     1      -1.164  10.870  22.292  0.00  0.00    +0.000 N 
ATOM     16  H   UNL     1      -1.219  11.053  21.293  0.00  0.00    +0.000 HD
BRANCH  15  17
ATOM     17  C   UNL     1      -1.971  11.653  23.192  0.00  0.00    +0.000 C 
BRANCH  17  18
ATOM     18  C   UNL     1      -2.654  12.845  22.487  0.00  0.00    +0.000 C 
ATOM     19  C   UNL     1      -4.190  12.777  22.502  0.00  0.00    +0.000 C 
ATOM     20  C   UNL     1      -4.733  12.903  23.924  0.00  0.00    +0.000 C 
ATOM     21  N   UNL     1      -4.309  14.161  24.541  0.00  0.00    +0.000 NA
ATOM     22  C   UNL     1      -2.856  14.340  24.535  0.00  0.00    +0.000 C 
ATOM     23  C   UNL     1      -2.257  14.184  23.134  0.00  0.00    +0.000 C 
ATOM     24  H   UNL     1      -4.646  14.190  25.504  0.00  0.00    +0.000 HD
ENDBRANCH  17  18
ENDBRANCH  15  17
ENDBRANCH  12  13
BRANCH   1  25
ATOM     25  N   UNL     1       0.645  11.174  20.018  0.00  0.00    +0.000 N 
ATOM     26  H   UNL     1      -0.254  11.331  20.484  0.00  0.00    +0.000 HD
BRANCH  25  27
ATOM     27  C   UNL     1       0.421  11.304  18.569  0.00  0.00    +0.000 C 
BRANCH  27  31
ATOM     28  C   UNL     1      -3.845  11.059  17.752  0.00  0.00    +0.000 A 
ATOM     29  C   UNL     1      -3.364  11.809  18.843  0.00  0.00    +0.000 A 
ATOM     30  C   UNL     1      -1.989  11.908  19.107  0.00  0.00    +0.000 A 
ATOM     31  C   UNL     1      -1.065  11.244  18.296  0.00  0.00    +0.000 A 
ATOM     32  C   UNL     1      -1.547  10.504  17.207  0.00  0.00    +0.000 A 
ATOM     33  C   UNL     1      -2.917  10.434  16.917  0.00  0.00    +0.000 A 
ATOM     34 CL   UNL     1      -3.279   9.609  15.441  0.00  0.00    +0.000 Cl
BRANCH  28  36
ATOM     35  C   UNL     1      -5.781  12.323  17.177  0.00  0.00    +0.000 C 
ATOM     36  O   UNL     1      -5.212  11.094  17.622  0.00  0.00    +0.000 OA
ENDBRANCH  28  36
ENDBRANCH  27  31
ENDBRANCH  25  27
ENDBRANCH   1  25
TORSDOF 7
ENDMDL
MODEL 5
REMARK VINA RESULT:      -7.7      3.915      8.513
REMARK  Name = 
REMARK  8 active torsions:
REMARK  status: ('A' for Active; 'I' for Inactive)
REMARK    1  A    between atoms: C_1  and  O_2
REMARK    2  A    between atoms: O_2  and  C_3
REMARK    3  A    between atoms: C_6  and  C_7
REMARK    4  A    between atoms: C_7  and  N_8
REMARK    5  A    between atoms: N_8  and  C_9
REMARK    6  A    between atoms: C_20  and  C_21
REMARK    7  A    between atoms: N_23  and  C_24
REMARK    8  A    between atoms: C_24  and  C_25
REMARK                            x       y       z     vdW  Elec       q    Type
REMARK                         _______ _______ _______ _____ _____    ______ ____
ROOT
ATOM      1  C   UNL     1       0.509  10.209  20.193  0.00  0.00    +0.000 A 
ATOM      2  N   UNL     1       1.142   9.340  19.394  0.00  0.00    +0.000 NA
ATOM      3  C   UNL     1       1.653   8.205  19.900  0.00  0.00    +0.000 A 
ATOM      4  N   UNL     1       2.200   7.338  18.987  0.00  0.00    +0.000 N 
ATOM      5  C   UNL     1       2.797   7.903  17.787  0.00  0.00    +0.000 C 
ATOM      6  C   UNL     1       4.105   7.178  17.670  0.00  0.00    +0.000 C 
ATOM      7  C   UNL     1       4.195   5.779  17.129  0.00  0.00    +0.000 C 
ATOM      8  C   UNL     1       4.079   6.017  18.618  0.00  0.00    +0.000 C 
ATOM      9  C   UNL     1       2.771   6.055  19.361  0.00  0.00    +0.000 C 
ATOM     10  N   UNL     1       1.596   7.926  21.206  0.00  0.00    +0.000 NA
ATOM     11  C   UNL     1       0.968   8.826  22.008  0.00  0.00    +0.000 A 
ATOM     12  C   UNL     1       0.359   9.977  21.546  0.00  0.00    +0.000 A 
ENDROOT
BRANCH  12  13
ATOM     13  C   UNL     1      -0.384  10.847  22.508  0.00  0.00    +0.000 C 
ATOM     14  O   UNL     1      -0.910  10.364  23.509  0.00  0.00    +0.000 OA
ATOM     15  N   UNL     1      -0.463  12.197  22.184  0.00  0.00    +0.000 N 
ATOM     16  H   UNL     1       0.120  12.505  21.410  0.00  0.00    +0.000 HD
BRANCH  15  17
ATOM     17  C   UNL     1      -1.119  13.184  23.002  0.00  0.00    +0.000 C 
BRANCH  17  18
ATOM     18  C   UNL     1      -2.520  13.557  22.469  0.00  0.00    +0.000 C 
ATOM     19  C   UNL     1      -3.618  12.552  22.856  0.00  0.00    +0.000 C 
ATOM     20  C   UNL     1      -3.851  12.544  24.365  0.00  0.00    +0.000 C 
ATOM     21  N   UNL     1      -4.234  13.872  24.846  0.00  0.00    +0.000 NA
ATOM     22  C   UNL     1      -3.268  14.912  24.487  0.00  0.00    +0.000 C 
ATOM     23  C   UNL     1      -2.970  14.935  22.986  0.00  0.00    +0.000 C 
ATOM     24  H   UNL     1      -4.333  13.843  25.862  0.00  0.00    +0.000 HD
ENDBRANCH  17  18
ENDBRANCH  15  17
ENDBRANCH  12  13
BRANCH   1  25
ATOM     25  N   UNL     1      -0.149  11.278  19.526  0.00  0.00    +0.000 N 
ATOM     26  H   UNL     1      -0.972  11.459  20.109  0.00  0.00    +0.000 HD
BRANCH  25  27
ATOM     27  C   UNL     1      -0.629  10.920  18.182  0.00  0.00    +0.000 C 
BRANCH  27  31
ATOM     28  C   UNL     1      -4.979  10.914  18.216  0.00  0.00    +0.000 A 
ATOM     29  C   UNL     1      -4.263   9.865  17.604  0.00  0.00    +0.000 A 
ATOM     30  C   UNL     1      -2.860   9.849  17.601  0.00  0.00    +0.000 A 
ATOM     31  C   UNL     1      -2.140  10.890  18.193  0.00  0.00    +0.000 A 
ATOM     32  C   UNL     1      -2.857  11.928  18.807  0.00  0.00    +0.000 A 
ATOM     33  C   UNL     1      -4.258  11.928  18.847  0.00  0.00    +0.000 A 
ATOM     34 CL   UNL     1      -4.931  13.211  19.792  0.00  0.00    +0.000 Cl
BRANCH  28  36
ATOM     35  C   UNL     1      -6.939   9.940  19.159  0.00  0.00    +0.000 C 
ATOM     36  O   UNL     1      -6.342  10.756  18.153  0.00  0.00    +0.000 OA
ENDBRANCH  28  36
ENDBRANCH  27  31
ENDBRANCH  25  27
ENDBRANCH   1  25
TORSDOF 7
ENDMDL
MODEL 6
REMARK VINA RESULT:      -7.6      3.740      4.866
REMARK  Name = 
REMARK  8 active torsions:
REMARK  status: ('A' for Active; 'I' for Inactive)
REMARK    1  A    between atoms: C_1  and  O_2
REMARK    2  A    between atoms: O_2  and  C_3
REMARK    3  A    between atoms: C_6  and  C_7
REMARK    4  A    between atoms: C_7  and  N_8
REMARK    5  A    between atoms: N_8  and  C_9
REMARK    6  A    between atoms: C_20  and  C_21
REMARK    7  A    between atoms: N_23  and  C_24
REMARK    8  A    between atoms: C_24  and  C_25
REMARK                            x       y       z     vdW  Elec       q    Type
REMARK                         _______ _______ _______ _____ _____    ______ ____
ROOT
ATOM      1  C   UNL     1      -0.652  10.767  18.919  0.00  0.00    +0.000 A 
ATOM      2  N   UNL     1      -1.396  11.570  19.691  0.00  0.00    +0.000 NA
ATOM      3  C   UNL     1      -1.020  11.833  20.954  0.00  0.00    +0.000 A 
ATOM      4  N   UNL     1      -1.797  12.738  21.632  0.00  0.00    +0.000 N 
ATOM      5  C   UNL     1      -3.208  12.812  21.291  0.00  0.00    +0.000 C 
ATOM      6  C   UNL     1      -3.892  12.827  22.626  0.00  0.00    +0.000 C 
ATOM      7  C   UNL     1      -3.970  14.069  23.468  0.00  0.00    +0.000 C 
ATOM      8  C   UNL     1      -2.853  13.071  23.678  0.00  0.00    +0.000 C 
ATOM      9  C   UNL     1      -1.514  13.155  22.995  0.00  0.00    +0.000 C 
ATOM     10  N   UNL     1       0.066  11.273  21.497  0.00  0.00    +0.000 NA
ATOM     11  C   UNL     1       0.801  10.445  20.709  0.00  0.00    +0.000 A 
ATOM     12  C   UNL     1       0.512  10.186  19.382  0.00  0.00    +0.000 A 
ENDROOT
BRANCH  12  13
ATOM     13  C   UNL     1       1.444   9.332  18.586  0.00  0.00    +0.000 C 
ATOM     14  O   UNL     1       1.849   9.705  17.486  0.00  0.00    +0.000 OA
ATOM     15  N   UNL     1       1.787   8.106  19.145  0.00  0.00    +0.000 N 
ATOM     16  H   UNL     1       1.505   7.962  20.111  0.00  0.00    +0.000 HD
BRANCH  15  17
ATOM     17  C   UNL     1       2.688   7.164  18.531  0.00  0.00    +0.000 C 
BRANCH  17  18
ATOM     18  C   UNL     1       2.906   5.904  19.397  0.00  0.00    +0.000 C 
ATOM     19  C   UNL     1       2.031   4.709  18.984  0.00  0.00    +0.000 C 
ATOM     20  C   UNL     1       2.414   4.201  17.595  0.00  0.00    +0.000 C 
ATOM     21  N   UNL     1       3.820   3.798  17.550  0.00  0.00    +0.000 NA
ATOM     22  C   UNL     1       4.734   4.861  17.971  0.00  0.00    +0.000 C 
ATOM     23  C   UNL     1       4.369   5.431  19.345  0.00  0.00    +0.000 C 
ATOM     24  H   UNL     1       4.054   3.512  16.598  0.00  0.00    +0.000 HD
ENDBRANCH  17  18
ENDBRANCH  15  17
ENDBRANCH  12  13
BRANCH   1  25
ATOM     25  N   UNL     1      -1.041  10.707  17.554  0.00  0.00    +0.000 N 
ATOM     26  H   UNL     1      -1.457  11.627  17.377  0.00  0.00    +0.000 HD
BRANCH  25  27
ATOM     27  C   UNL     1      -2.074   9.695  17.285  0.00  0.00    +0.000 C 
BRANCH  27  31
ATOM     28  C   UNL     1      -5.993  11.559  17.592  0.00  0.00    +0.000 A 
ATOM     29  C   UNL     1      -5.036  12.042  16.676  0.00  0.00    +0.000 A 
ATOM     30  C   UNL     1      -3.776  11.439  16.558  0.00  0.00    +0.000 A 
ATOM     31  C   UNL     1      -3.435  10.350  17.365  0.00  0.00    +0.000 A 
ATOM     32  C   UNL     1      -4.391   9.868  18.270  0.00  0.00    +0.000 A 
ATOM     33  C   UNL     1      -5.666  10.443  18.365  0.00  0.00    +0.000 A 
ATOM     34 CL   UNL     1      -6.740   9.595  19.421  0.00  0.00    +0.000 Cl
BRANCH  28  36
ATOM     35  C   UNL     1      -7.158  13.592  18.025  0.00  0.00    +0.000 C 
ATOM     36  O   UNL     1      -7.182  12.246  17.556  0.00  0.00    +0.000 OA
ENDBRANCH  28  36
ENDBRANCH  27  31
ENDBRANCH  25  27
ENDBRANCH   1  25
TORSDOF 7
ENDMDL
MODEL 7
REMARK VINA RESULT:      -7.6      4.439      7.840
REMARK  Name = 
REMARK  8 active torsions:
REMARK  status: ('A' for Active; 'I' for Inactive)
REMARK    1  A    between atoms: C_1  and  O_2
REMARK    2  A    between atoms: O_2  and  C_3
REMARK    3  A    between atoms: C_6  and  C_7
REMARK    4  A    between atoms: C_7  and  N_8
REMARK    5  A    between atoms: N_8  and  C_9
REMARK    6  A    between atoms: C_20  and  C_21
REMARK    7  A    between atoms: N_23  and  C_24
REMARK    8  A    between atoms: C_24  and  C_25
REMARK                            x       y       z     vdW  Elec       q    Type
REMARK                         _______ _______ _______ _____ _____    ______ ____
ROOT
ATOM      1  C   UNL     1       1.654   8.362  19.978  0.00  0.00    +0.000 A 
ATOM      2  N   UNL     1       0.841   9.288  20.504  0.00  0.00    +0.000 NA
ATOM      3  C   UNL     1       0.237  10.188  19.710  0.00  0.00    +0.000 A 
ATOM      4  N   UNL     1      -0.646  11.034  20.331  0.00  0.00    +0.000 N 
ATOM      5  C   UNL     1      -0.390  11.384  21.719  0.00  0.00    +0.000 C 
ATOM      6  C   UNL     1      -0.586  12.871  21.748  0.00  0.00    +0.000 C 
ATOM      7  C   UNL     1      -1.952  13.494  21.781  0.00  0.00    +0.000 C 
ATOM      8  C   UNL     1      -1.241  13.279  20.464  0.00  0.00    +0.000 C 
ATOM      9  C   UNL     1      -1.405  12.046  19.615  0.00  0.00    +0.000 C 
ATOM     10  N   UNL     1       0.459  10.226  18.392  0.00  0.00    +0.000 NA
ATOM     11  C   UNL     1       1.300   9.293  17.874  0.00  0.00    +0.000 A 
ATOM     12  C   UNL     1       1.899   8.296  18.620  0.00  0.00    +0.000 A 
ENDROOT
BRANCH  12  13
ATOM     13  C   UNL     1       2.733   7.267  17.929  0.00  0.00    +0.000 C 
ATOM     14  O   UNL     1       2.235   6.206  17.556  0.00  0.00    +0.000 OA
ATOM     15  N   UNL     1       4.081   7.571  17.769  0.00  0.00    +0.000 N 
ATOM     16  H   UNL     1       4.352   8.525  17.991  0.00  0.00    +0.000 HD
BRANCH  15  17
ATOM     17  C   UNL     1       5.028   6.710  17.108  0.00  0.00    +0.000 C 
BRANCH  17  18
ATOM     18  C   UNL     1       5.139   5.325  17.784  0.00  0.00    +0.000 C 
ATOM     19  C   UNL     1       5.386   4.172  16.796  0.00  0.00    +0.000 C 
ATOM     20  C   UNL     1       6.753   4.303  16.129  0.00  0.00    +0.000 C 
ATOM     21  N   UNL     1       7.827   4.314  17.124  0.00  0.00    +0.000 NA
ATOM     22  C   UNL     1       7.656   5.355  18.139  0.00  0.00    +0.000 C 
ATOM     23  C   UNL     1       6.283   5.290  18.812  0.00  0.00    +0.000 C 
ATOM     24  H   UNL     1       8.720   4.452  16.648  0.00  0.00    +0.000 HD
ENDBRANCH  17  18
ENDBRANCH  15  17
ENDBRANCH  12  13
BRANCH   1  25
ATOM     25  N   UNL     1       2.089   7.354  20.880  0.00  0.00    +0.000 N 
ATOM     26  H   UNL     1       2.916   6.957  20.423  0.00  0.00    +0.000 HD
BRANCH  25  27
ATOM     27  C   UNL     1       1.114   6.265  21.052  0.00  0.00    +0.000 C 
BRANCH  27  31
ATOM     28  C   UNL     1       2.799   2.571  19.489  0.00  0.00    +0.000 A 
ATOM     29  C   UNL     1       3.589   3.456  20.250  0.00  0.00    +0.000 A 
ATOM     30  C   UNL     1       3.052   4.642  20.772  0.00  0.00    +0.000 A 
ATOM     31  C   UNL     1       1.717   4.980  20.530  0.00  0.00    +0.000 A 
ATOM     32  C   UNL     1       0.933   4.093  19.778  0.00  0.00    +0.000 A 
ATOM     33  C   UNL     1       1.455   2.888  19.287  0.00  0.00    +0.000 A 
ATOM     34 CL   UNL     1       0.278   1.872  18.531  0.00  0.00    +0.000 Cl
BRANCH  28  36
ATOM     35  C   UNL     1       4.768   1.238  19.643  0.00  0.00    +0.000 C 
ATOM     36  O   UNL     1       3.474   1.446  19.082  0.00  0.00    +0.000 OA
ENDBRANCH  28  36
ENDBRANCH  27  31
ENDBRANCH  25  27
ENDBRANCH   1  25
TORSDOF 7
ENDMDL
MODEL 8
REMARK VINA RESULT:      -7.6      2.481      7.900
REMARK  Name = 
REMARK  8 active torsions:
REMARK  status: ('A' for Active; 'I' for Inactive)
REMARK    1  A    between atoms: C_1  and  O_2
REMARK    2  A    between atoms: O_2  and  C_3
REMARK    3  A    between atoms: C_6  and  C_7
REMARK    4  A    between atoms: C_7  and  N_8
REMARK    5  A    between atoms: N_8  and  C_9
REMARK    6  A    between atoms: C_20  and  C_21
REMARK    7  A    between atoms: N_23  and  C_24
REMARK    8  A    between atoms: C_24  and  C_25
REMARK                            x       y       z     vdW  Elec       q    Type
REMARK                         _______ _______ _______ _____ _____    ______ ____
ROOT
ATOM      1  C   UNL     1       1.276   9.388  20.152  0.00  0.00    +0.000 A 
ATOM      2  N   UNL     1       1.583   8.099  20.343  0.00  0.00    +0.000 NA
ATOM      3  C   UNL     1       2.029   7.350  19.319  0.00  0.00    +0.000 A 
ATOM      4  N   UNL     1       2.403   6.069  19.636  0.00  0.00    +0.000 N 
ATOM      5  C   UNL     1       1.716   5.413  20.738  0.00  0.00    +0.000 C 
ATOM      6  C   UNL     1       1.395   4.053  20.192  0.00  0.00    +0.000 C 
ATOM      7  C   UNL     1       2.426   2.964  20.108  0.00  0.00    +0.000 C 
ATOM      8  C   UNL     1       2.169   3.867  18.923  0.00  0.00    +0.000 C 
ATOM      9  C   UNL     1       2.932   5.137  18.655  0.00  0.00    +0.000 C 
ATOM     10  N   UNL     1       2.133   7.841  18.080  0.00  0.00    +0.000 NA
ATOM     11  C   UNL     1       1.801   9.146  17.897  0.00  0.00    +0.000 A 
ATOM     12  C   UNL     1       1.404   9.991  18.916  0.00  0.00    +0.000 A 
ENDROOT
BRANCH  12  13
ATOM     13  C   UNL     1       1.152  11.433  18.612  0.00  0.00    +0.000 C 
ATOM     14  O   UNL     1       0.016  11.898  18.682  0.00  0.00    +0.000 OA
ATOM     15  N   UNL     1       2.257  12.183  18.225  0.00  0.00    +0.000 N 
ATOM     16  H   UNL     1       3.162  11.733  18.333  0.00  0.00    +0.000 HD
BRANCH  15  17
ATOM     17  C   UNL     1       2.208  13.589  17.916  0.00  0.00    +0.000 C 
BRANCH  17  18
ATOM     18  C   UNL     1       2.846  14.459  19.021  0.00  0.00    +0.000 C 
ATOM     19  C   UNL     1       3.952  15.398  18.510  0.00  0.00    +0.000 C 
ATOM     20  C   UNL     1       3.383  16.457  17.569  0.00  0.00    +0.000 C 
ATOM     21  N   UNL     1       2.354  17.257  18.234  0.00  0.00    +0.000 NA
ATOM     22  C   UNL     1       1.273  16.445  18.796  0.00  0.00    +0.000 C 
ATOM     23  C   UNL     1       1.795  15.341  19.720  0.00  0.00    +0.000 C 
ATOM     24  H   UNL     1       1.962  17.920  17.565  0.00  0.00    +0.000 HD
ENDBRANCH  17  18
ENDBRANCH  15  17
ENDBRANCH  12  13
BRANCH   1  25
ATOM     25  N   UNL     1       0.995  10.127  21.333  0.00  0.00    +0.000 N 
ATOM     26  H   UNL     1       1.579   9.680  22.046  0.00  0.00    +0.000 HD
BRANCH  25  27
ATOM     27  C   UNL     1      -0.405  10.014  21.772  0.00  0.00    +0.000 C 
BRANCH  27  31
ATOM     28  C   UNL     1      -1.771  13.853  23.296  0.00  0.00    +0.000 A 
ATOM     29  C   UNL     1      -0.633  13.771  22.468  0.00  0.00    +0.000 A 
ATOM     30  C   UNL     1      -0.193  12.541  21.958  0.00  0.00    +0.000 A 
ATOM     31  C   UNL     1      -0.869  11.361  22.279  0.00  0.00    +0.000 A 
ATOM     32  C   UNL     1      -2.005  11.447  23.098  0.00  0.00    +0.000 A 
ATOM     33  C   UNL     1      -2.471  12.679  23.578  0.00  0.00    +0.000 A 
ATOM     34 CL   UNL     1      -3.973  12.576  24.428  0.00  0.00    +0.000 Cl
BRANCH  28  36
ATOM     35  C   UNL     1      -2.753  15.946  22.721  0.00  0.00    +0.000 C 
ATOM     36  O   UNL     1      -2.078  15.135  23.680  0.00  0.00    +0.000 OA
ENDBRANCH  28  36
ENDBRANCH  27  31
ENDBRANCH  25  27
ENDBRANCH   1  25
TORSDOF 7
ENDMDL
MODEL 9
REMARK VINA RESULT:      -7.6      3.790      8.827
REMARK  Name = 
REMARK  8 active torsions:
REMARK  status: ('A' for Active; 'I' for Inactive)
REMARK    1  A    between atoms: C_1  and  O_2
REMARK    2  A    between atoms: O_2  and  C_3
REMARK    3  A    between atoms: C_6  and  C_7
REMARK    4  A    between atoms: C_7  and  N_8
REMARK    5  A    between atoms: N_8  and  C_9
REMARK    6  A    between atoms: C_20  and  C_21
REMARK    7  A    between atoms: N_23  and  C_24
REMARK    8  A    between atoms: C_24  and  C_25
REMARK                            x       y       z     vdW  Elec       q    Type
REMARK                         _______ _______ _______ _____ _____    ______ ____
ROOT
ATOM      1  C   UNL     1       0.761  11.706  18.800  0.00  0.00    +0.000 A 
ATOM      2  N   UNL     1       1.767  12.584  18.909  0.00  0.00    +0.000 NA
ATOM      3  C   UNL     1       1.523  13.904  18.844  0.00  0.00    +0.000 A 
ATOM      4  N   UNL     1       2.604  14.722  19.058  0.00  0.00    +0.000 N 
ATOM      5  C   UNL     1       3.915  14.231  18.666  0.00  0.00    +0.000 C 
ATOM      6  C   UNL     1       4.522  15.392  17.937  0.00  0.00    +0.000 C 
ATOM      7  C   UNL     1       5.113  16.568  18.662  0.00  0.00    +0.000 C 
ATOM      8  C   UNL     1       3.674  16.600  18.198  0.00  0.00    +0.000 C 
ATOM      9  C   UNL     1       2.509  16.172  19.050  0.00  0.00    +0.000 C 
ATOM     10  N   UNL     1       0.295  14.384  18.621  0.00  0.00    +0.000 NA
ATOM     11  C   UNL     1      -0.714  13.482  18.494  0.00  0.00    +0.000 A 
ATOM     12  C   UNL     1      -0.546  12.115  18.620  0.00  0.00    +0.000 A 
ENDROOT
BRANCH  12  13
ATOM     13  C   UNL     1      -1.744  11.224  18.554  0.00  0.00    +0.000 C 
ATOM     14  O   UNL     1      -1.642  10.022  18.790  0.00  0.00    +0.000 OA
ATOM     15  N   UNL     1      -2.941  11.827  18.184  0.00  0.00    +0.000 N 
ATOM     16  H   UNL     1      -2.936  12.842  18.146  0.00  0.00    +0.000 HD
BRANCH  15  17
ATOM     17  C   UNL     1      -4.198  11.130  18.089  0.00  0.00    +0.000 C 
BRANCH  17  18
ATOM     18  C   UNL     1      -5.411  12.080  18.203  0.00  0.00    +0.000 C 
ATOM     19  C   UNL     1      -6.764  11.352  18.268  0.00  0.00    +0.000 C 
ATOM     20  C   UNL     1      -6.888  10.535  19.552  0.00  0.00    +0.000 C 
ATOM     21  N   UNL     1      -6.750  11.385  20.735  0.00  0.00    +0.000 NA
ATOM     22  C   UNL     1      -5.506  12.157  20.743  0.00  0.00    +0.000 C 
ATOM     23  C   UNL     1      -5.316  12.966  19.458  0.00  0.00    +0.000 C 
ATOM     24  H   UNL     1      -6.788  10.801  21.571  0.00  0.00    +0.000 HD
ENDBRANCH  17  18
ENDBRANCH  15  17
ENDBRANCH  12  13
BRANCH   1  25
ATOM     25  N   UNL     1       1.104  10.354  19.068  0.00  0.00    +0.000 N 
ATOM     26  H   UNL     1       1.865  10.425  19.750  0.00  0.00    +0.000 HD
BRANCH  25  27
ATOM     27  C   UNL     1       1.628   9.641  17.892  0.00  0.00    +0.000 C 
BRANCH  27  31
ATOM     28  C   UNL     1       3.433   5.887  19.147  0.00  0.00    +0.000 A 
ATOM     29  C   UNL     1       2.495   6.544  19.968  0.00  0.00    +0.000 A 
ATOM     30  C   UNL     1       1.895   7.746  19.567  0.00  0.00    +0.000 A 
ATOM     31  C   UNL     1       2.232   8.330  18.343  0.00  0.00    +0.000 A 
ATOM     32  C   UNL     1       3.161   7.670  17.525  0.00  0.00    +0.000 A 
ATOM     33  C   UNL     1       3.734   6.448  17.905  0.00  0.00    +0.000 A 
ATOM     34 CL   UNL     1       4.723   5.729  16.682  0.00  0.00    +0.000 Cl
BRANCH  28  36
ATOM     35  C   UNL     1       2.916   3.789  20.150  0.00  0.00    +0.000 C 
ATOM     36  O   UNL     1       3.897   4.709  19.679  0.00  0.00    +0.000 OA
ENDBRANCH  28  36
ENDBRANCH  27  31
ENDBRANCH  25  27
ENDBRANCH   1  25
TORSDOF 7
ENDMDL
