MODEL 1
REMARK VINA RESULT:      -7.9      0.000      0.000
REMARK  Name = 
REMARK  4 active torsions:
REMARK  status: ('A' for Active; 'I' for Inactive)
REMARK    1  A    between atoms: C_7  and  C_8
REMARK    2  A    between atoms: C_8  and  C_9
REMARK    3  A    between atoms: C_9  and  C_10
REMARK    4  A    between atoms: C_11  and  C_12
REMARK                            x       y       z     vdW  Elec       q    Type
REMARK                         _______ _______ _______ _____ _____    ______ ____
ROOT
ATOM      1  F   UNL     1       1.005   3.328  17.822  0.00  0.00    +0.000 F 
ATOM      2  C   UNL     1       2.265   3.638  18.177  0.00  0.00    +0.000 A 
ATOM      3  C   UNL     1       2.881   2.914  19.272  0.00  0.00    +0.000 A 
ATOM      4  C   UNL     1       4.142   3.186  19.665  0.00  0.00    +0.000 A 
ATOM      5  C   UNL     1       4.888   4.202  18.997  0.00  0.00    +0.000 A 
ATOM      6  N   UNL     1       6.113   4.655  19.175  0.00  0.00    +0.000 NA
ATOM      7  C   UNL     1       6.292   5.642  18.227  0.00  0.00    +0.000 A 
ATOM      8  C   UNL     1       5.147   5.785  17.467  0.00  0.00    +0.000 A 
ATOM      9  N   UNL     1       4.252   4.869  17.952  0.00  0.00    +0.000 N 
ATOM     10  C   UNL     1       2.952   4.596  17.539  0.00  0.00    +0.000 A 
ENDROOT
BRANCH   7  11
ATOM     11  C   UNL     1       7.567   6.414  18.092  0.00  0.00    +0.000 C 
BRANCH  11  12
ATOM     12  C   UNL     1       7.435   7.747  17.358  0.00  0.00    +0.000 C 
BRANCH  12  13
ATOM     13  C   UNL     1       8.160   8.830  18.057  0.00  0.00    +0.000 C 
ATOM     14  C   UNL     1       8.785   9.704  18.602  0.00  0.00    +0.000 C 
BRANCH  14  15
ATOM     15  C   UNL     1       9.581  10.721  19.221  0.00  0.00    +0.000 A 
ATOM     16  C   UNL     1       9.381  11.070  20.550  0.00  0.00    +0.000 A 
ATOM     17  C   UNL     1      10.144  12.107  21.084  0.00  0.00    +0.000 A 
ATOM     18  C   UNL     1      11.076  12.749  20.276  0.00  0.00    +0.000 A 
ATOM     19  C   UNL     1      11.212  12.320  18.964  0.00  0.00    +0.000 A 
ATOM     20  N   UNL     1      10.485  11.321  18.415  0.00  0.00    +0.000 NA
ENDBRANCH  14  15
ENDBRANCH  12  13
ENDBRANCH  11  12
ENDBRANCH   7  11
TORSDOF 4
ENDMDL
MODEL 2
REMARK VINA RESULT:      -7.7      4.047      6.145
REMARK  Name = 
REMARK  4 active torsions:
REMARK  status: ('A' for Active; 'I' for Inactive)
REMARK    1  A    between atoms: C_7  and  C_8
REMARK    2  A    between atoms: C_8  and  C_9
REMARK    3  A    between atoms: C_9  and  C_10
REMARK    4  A    between atoms: C_11  and  C_12
REMARK                            x       y       z     vdW  Elec       q    Type
REMARK                         _______ _______ _______ _____ _____    ______ ____
ROOT
ATOM      1  F   UNL     1       0.760   1.515  18.606  0.00  0.00    +0.000 F 
ATOM      2  C   UNL     1       1.624   2.508  18.889  0.00  0.00    +0.000 A 
ATOM      3  C   UNL     1       1.119   3.717  19.510  0.00  0.00    +0.000 A 
ATOM      4  C   UNL     1       1.943   4.741  19.815  0.00  0.00    +0.000 A 
ATOM      5  C   UNL     1       3.337   4.637  19.524  0.00  0.00    +0.000 A 
ATOM      6  N   UNL     1       4.340   5.470  19.717  0.00  0.00    +0.000 NA
ATOM      7  C   UNL     1       5.463   4.826  19.239  0.00  0.00    +0.000 A 
ATOM      8  C   UNL     1       5.123   3.581  18.745  0.00  0.00    +0.000 A 
ATOM      9  N   UNL     1       3.772   3.456  18.927  0.00  0.00    +0.000 N 
ATOM     10  C   UNL     1       2.930   2.395  18.609  0.00  0.00    +0.000 A 
ENDROOT
BRANCH   7  11
ATOM     11  C   UNL     1       6.827   5.441  19.276  0.00  0.00    +0.000 C 
BRANCH  11  12
ATOM     12  C   UNL     1       7.062   6.541  18.242  0.00  0.00    +0.000 C 
BRANCH  12  13
ATOM     13  C   UNL     1       6.938   6.029  16.861  0.00  0.00    +0.000 C 
ATOM     14  C   UNL     1       6.865   5.579  15.745  0.00  0.00    +0.000 C 
BRANCH  14  15
ATOM     15  C   UNL     1       6.825   5.005  14.434  0.00  0.00    +0.000 A 
ATOM     16  C   UNL     1       5.898   4.022  14.115  0.00  0.00    +0.000 A 
ATOM     17  C   UNL     1       5.943   3.457  12.842  0.00  0.00    +0.000 A 
ATOM     18  C   UNL     1       6.903   3.898  11.938  0.00  0.00    +0.000 A 
ATOM     19  C   UNL     1       7.777   4.894  12.344  0.00  0.00    +0.000 A 
ATOM     20  N   UNL     1       7.763   5.459  13.573  0.00  0.00    +0.000 NA
ENDBRANCH  14  15
ENDBRANCH  12  13
ENDBRANCH  11  12
ENDBRANCH   7  11
TORSDOF 4
ENDMDL
MODEL 3
REMARK VINA RESULT:      -7.7      0.885      1.242
REMARK  Name = 
REMARK  4 active torsions:
REMARK  status: ('A' for Active; 'I' for Inactive)
REMARK    1  A    between atoms: C_7  and  C_8
REMARK    2  A    between atoms: C_8  and  C_9
REMARK    3  A    between atoms: C_9  and  C_10
REMARK    4  A    between atoms: C_11  and  C_12
REMARK                            x       y       z     vdW  Elec       q    Type
REMARK                         _______ _______ _______ _____ _____    ______ ____
ROOT
ATOM      1  F   UNL     1       0.649   4.018  17.618  0.00  0.00    +0.000 F 
ATOM      2  C   UNL     1       1.978   4.051  17.825  0.00  0.00    +0.000 A 
ATOM      3  C   UNL     1       2.681   2.804  18.051  0.00  0.00    +0.000 A 
ATOM      4  C   UNL     1       4.014   2.783  18.264  0.00  0.00    +0.000 A 
ATOM      5  C   UNL     1       4.749   4.006  18.266  0.00  0.00    +0.000 A 
ATOM      6  N   UNL     1       6.030   4.262  18.441  0.00  0.00    +0.000 NA
ATOM      7  C   UNL     1       6.159   5.632  18.332  0.00  0.00    +0.000 A 
ATOM      8  C   UNL     1       4.927   6.208  18.089  0.00  0.00    +0.000 A 
ATOM      9  N   UNL     1       4.027   5.177  18.044  0.00  0.00    +0.000 N 
ATOM     10  C   UNL     1       2.654   5.209  17.825  0.00  0.00    +0.000 A 
ENDROOT
BRANCH   7  11
ATOM     11  C   UNL     1       7.474   6.334  18.468  0.00  0.00    +0.000 C 
BRANCH  11  12
ATOM     12  C   UNL     1       7.689   7.487  17.488  0.00  0.00    +0.000 C 
BRANCH  12  13
ATOM     13  C   UNL     1       8.310   8.655  18.148  0.00  0.00    +0.000 C 
ATOM     14  C   UNL     1       8.854   9.596  18.667  0.00  0.00    +0.000 C 
BRANCH  14  15
ATOM     15  C   UNL     1       9.557  10.691  19.266  0.00  0.00    +0.000 A 
ATOM     16  C   UNL     1      10.507  11.404  18.547  0.00  0.00    +0.000 A 
ATOM     17  C   UNL     1      11.202  12.422  19.197  0.00  0.00    +0.000 A 
ATOM     18  C   UNL     1      10.919  12.692  20.531  0.00  0.00    +0.000 A 
ATOM     19  C   UNL     1       9.943  11.934  21.160  0.00  0.00    +0.000 A 
ATOM     20  N   UNL     1       9.254  10.937  20.560  0.00  0.00    +0.000 NA
ENDBRANCH  14  15
ENDBRANCH  12  13
ENDBRANCH  11  12
ENDBRANCH   7  11
TORSDOF 4
ENDMDL
MODEL 4
REMARK VINA RESULT:      -7.6      1.236      1.911
REMARK  Name = 
REMARK  4 active torsions:
REMARK  status: ('A' for Active; 'I' for Inactive)
REMARK    1  A    between atoms: C_7  and  C_8
REMARK    2  A    between atoms: C_8  and  C_9
REMARK    3  A    between atoms: C_9  and  C_10
REMARK    4  A    between atoms: C_11  and  C_12
REMARK                            x       y       z     vdW  Elec       q    Type
REMARK                         _______ _______ _______ _____ _____    ______ ____
ROOT
ATOM      1  F   UNL     1       2.748   1.919  19.539  0.00  0.00    +0.000 F 
ATOM      2  C   UNL     1       3.551   2.767  18.870  0.00  0.00    +0.000 A 
ATOM      3  C   UNL     1       3.379   2.907  17.437  0.00  0.00    +0.000 A 
ATOM      4  C   UNL     1       4.158   3.744  16.721  0.00  0.00    +0.000 A 
ATOM      5  C   UNL     1       5.169   4.507  17.379  0.00  0.00    +0.000 A 
ATOM      6  N   UNL     1       6.045   5.381  16.926  0.00  0.00    +0.000 NA
ATOM      7  C   UNL     1       6.765   5.798  18.027  0.00  0.00    +0.000 A 
ATOM      8  C   UNL     1       6.311   5.157  19.163  0.00  0.00    +0.000 A 
ATOM      9  N   UNL     1       5.294   4.336  18.755  0.00  0.00    +0.000 N 
ATOM     10  C   UNL     1       4.496   3.475  19.503  0.00  0.00    +0.000 A 
ENDROOT
BRANCH   7  11
ATOM     11  C   UNL     1       7.869   6.805  17.939  0.00  0.00    +0.000 C 
BRANCH  11  12
ATOM     12  C   UNL     1       7.425   8.210  17.537  0.00  0.00    +0.000 C 
BRANCH  12  13
ATOM     13  C   UNL     1       8.315   9.247  18.102  0.00  0.00    +0.000 C 
ATOM     14  C   UNL     1       9.050  10.104  18.522  0.00  0.00    +0.000 C 
BRANCH  14  15
ATOM     15  C   UNL     1       9.944  11.133  18.962  0.00  0.00    +0.000 A 
ATOM     16  C   UNL     1      10.916  11.643  18.110  0.00  0.00    +0.000 A 
ATOM     17  C   UNL     1      11.796  12.601  18.609  0.00  0.00    +0.000 A 
ATOM     18  C   UNL     1      11.668  13.017  19.930  0.00  0.00    +0.000 A 
ATOM     19  C   UNL     1      10.657  12.460  20.698  0.00  0.00    +0.000 A 
ATOM     20  N   UNL     1       9.791  11.525  20.246  0.00  0.00    +0.000 NA
ENDBRANCH  14  15
ENDBRANCH  12  13
ENDBRANCH  11  12
ENDBRANCH   7  11
TORSDOF 4
ENDMDL
MODEL 5
REMARK VINA RESULT:      -7.5      5.329      5.907
REMARK  Name = 
REMARK  4 active torsions:
REMARK  status: ('A' for Active; 'I' for Inactive)
REMARK    1  A    between atoms: C_7  and  C_8
REMARK    2  A    between atoms: C_8  and  C_9
REMARK    3  A    between atoms: C_9  and  C_10
REMARK    4  A    between atoms: C_11  and  C_12
REMARK                            x       y       z     vdW  Elec       q    Type
REMARK                         _______ _______ _______ _____ _____    ______ ____
ROOT
ATOM      1  F   UNL     1       1.407   2.486  22.166  0.00  0.00    +0.000 F 
ATOM      2  C   UNL     1       1.766   2.762  20.899  0.00  0.00    +0.000 A 
ATOM      3  C   UNL     1       0.743   2.790  19.873  0.00  0.00    +0.000 A 
ATOM      4  C   UNL     1       1.051   3.061  18.588  0.00  0.00    +0.000 A 
ATOM      5  C   UNL     1       2.406   3.327  18.226  0.00  0.00    +0.000 A 
ATOM      6  N   UNL     1       2.966   3.618  17.069  0.00  0.00    +0.000 NA
ATOM      7  C   UNL     1       4.312   3.775  17.331  0.00  0.00    +0.000 A 
ATOM      8  C   UNL     1       4.562   3.571  18.674  0.00  0.00    +0.000 A 
ATOM      9  N   UNL     1       3.351   3.288  19.248  0.00  0.00    +0.000 N 
ATOM     10  C   UNL     1       3.044   3.008  20.576  0.00  0.00    +0.000 A 
ENDROOT
BRANCH   7  11
ATOM     11  C   UNL     1       5.309   4.117  16.269  0.00  0.00    +0.000 C 
BRANCH  11  12
ATOM     12  C   UNL     1       5.425   5.608  15.954  0.00  0.00    +0.000 C 
BRANCH  12  13
ATOM     13  C   UNL     1       4.506   6.414  16.785  0.00  0.00    +0.000 C 
ATOM     14  C   UNL     1       3.731   7.037  17.466  0.00  0.00    +0.000 C 
BRANCH  14  15
ATOM     15  C   UNL     1       2.770   7.728  18.272  0.00  0.00    +0.000 A 
ATOM     16  C   UNL     1       2.154   8.884  17.810  0.00  0.00    +0.000 A 
ATOM     17  C   UNL     1       1.270   9.547  18.660  0.00  0.00    +0.000 A 
ATOM     18  C   UNL     1       1.033   9.031  19.928  0.00  0.00    +0.000 A 
ATOM     19  C   UNL     1       1.685   7.863  20.294  0.00  0.00    +0.000 A 
ATOM     20  N   UNL     1       2.551   7.198  19.496  0.00  0.00    +0.000 NA
ENDBRANCH  14  15
ENDBRANCH  12  13
ENDBRANCH  11  12
ENDBRANCH   7  11
TORSDOF 4
ENDMDL
MODEL 6
REMARK VINA RESULT:      -7.5      1.189      1.642
REMARK  Name = 
REMARK  4 active torsions:
REMARK  status: ('A' for Active; 'I' for Inactive)
REMARK    1  A    between atoms: C_7  and  C_8
REMARK    2  A    between atoms: C_8  and  C_9
REMARK    3  A    between atoms: C_9  and  C_10
REMARK    4  A    between atoms: C_11  and  C_12
REMARK                            x       y       z     vdW  Elec       q    Type
REMARK                         _______ _______ _______ _____ _____    ______ ____
ROOT
ATOM      1  F   UNL     1       1.857   2.197  20.778  0.00  0.00    +0.000 F 
ATOM      2  C   UNL     1       2.525   3.165  20.124  0.00  0.00    +0.000 A 
ATOM      3  C   UNL     1       1.779   4.276  19.567  0.00  0.00    +0.000 A 
ATOM      4  C   UNL     1       2.402   5.272  18.903  0.00  0.00    +0.000 A 
ATOM      5  C   UNL     1       3.820   5.236  18.745  0.00  0.00    +0.000 A 
ATOM      6  N   UNL     1       4.660   6.065  18.156  0.00  0.00    +0.000 NA
ATOM      7  C   UNL     1       5.914   5.513  18.324  0.00  0.00    +0.000 A 
ATOM      8  C   UNL     1       5.822   4.327  19.026  0.00  0.00    +0.000 A 
ATOM      9  N   UNL     1       4.491   4.148  19.298  0.00  0.00    +0.000 N 
ATOM     10  C   UNL     1       3.858   3.116  19.983  0.00  0.00    +0.000 A 
ENDROOT
BRANCH   7  11
ATOM     11  C   UNL     1       7.158   6.156  17.797  0.00  0.00    +0.000 C 
BRANCH  11  12
ATOM     12  C   UNL     1       6.952   7.534  17.169  0.00  0.00    +0.000 C 
BRANCH  12  13
ATOM     13  C   UNL     1       7.821   8.554  17.794  0.00  0.00    +0.000 C 
ATOM     14  C   UNL     1       8.546   9.393  18.264  0.00  0.00    +0.000 C 
BRANCH  14  15
ATOM     15  C   UNL     1       9.438  10.394  18.767  0.00  0.00    +0.000 A 
ATOM     16  C   UNL     1       9.486  10.687  20.124  0.00  0.00    +0.000 A 
ATOM     17  C   UNL     1      10.330  11.711  20.550  0.00  0.00    +0.000 A 
ATOM     18  C   UNL     1      11.095  12.395  19.611  0.00  0.00    +0.000 A 
ATOM     19  C   UNL     1      10.989  12.020  18.281  0.00  0.00    +0.000 A 
ATOM     20  N   UNL     1      10.176  11.036  17.834  0.00  0.00    +0.000 NA
ENDBRANCH  14  15
ENDBRANCH  12  13
ENDBRANCH  11  12
ENDBRANCH   7  11
TORSDOF 4
ENDMDL
MODEL 7
REMARK VINA RESULT:      -7.5      4.610      7.930
REMARK  Name = 
REMARK  4 active torsions:
REMARK  status: ('A' for Active; 'I' for Inactive)
REMARK    1  A    between atoms: C_7  and  C_8
REMARK    2  A    between atoms: C_8  and  C_9
REMARK    3  A    between atoms: C_9  and  C_10
REMARK    4  A    between atoms: C_11  and  C_12
REMARK                            x       y       z     vdW  Elec       q    Type
REMARK                         _______ _______ _______ _____ _____    ______ ____
ROOT
ATOM      1  F   UNL     1       4.935   2.611  11.400  0.00  0.00    +0.000 F 
ATOM      2  C   UNL     1       5.630   3.359  12.276  0.00  0.00    +0.000 A 
ATOM      3  C   UNL     1       6.925   3.877  11.881  0.00  0.00    +0.000 A 
ATOM      4  C   UNL     1       7.660   4.632  12.722  0.00  0.00    +0.000 A 
ATOM      5  C   UNL     1       7.160   4.931  14.025  0.00  0.00    +0.000 A 
ATOM      6  N   UNL     1       7.663   5.633  15.021  0.00  0.00    +0.000 NA
ATOM      7  C   UNL     1       6.727   5.577  16.033  0.00  0.00    +0.000 A 
ATOM      8  C   UNL     1       5.641   4.821  15.635  0.00  0.00    +0.000 A 
ATOM      9  N   UNL     1       5.912   4.410  14.357  0.00  0.00    +0.000 N 
ATOM     10  C   UNL     1       5.145   3.629  13.497  0.00  0.00    +0.000 A 
ENDROOT
BRANCH   7  11
ATOM     11  C   UNL     1       6.918   6.258  17.352  0.00  0.00    +0.000 C 
BRANCH  11  12
ATOM     12  C   UNL     1       6.980   5.318  18.556  0.00  0.00    +0.000 C 
BRANCH  12  13
ATOM     13  C   UNL     1       5.639   4.825  18.933  0.00  0.00    +0.000 C 
ATOM     14  C   UNL     1       4.532   4.432  19.201  0.00  0.00    +0.000 C 
BRANCH  14  15
ATOM     15  C   UNL     1       3.195   3.990  19.464  0.00  0.00    +0.000 A 
ATOM     16  C   UNL     1       2.651   4.090  20.738  0.00  0.00    +0.000 A 
ATOM     17  C   UNL     1       1.368   3.590  20.950  0.00  0.00    +0.000 A 
ATOM     18  C   UNL     1       0.677   3.020  19.886  0.00  0.00    +0.000 A 
ATOM     19  C   UNL     1       1.299   2.979  18.648  0.00  0.00    +0.000 A 
ATOM     20  N   UNL     1       2.544   3.450  18.410  0.00  0.00    +0.000 NA
ENDBRANCH  14  15
ENDBRANCH  12  13
ENDBRANCH  11  12
ENDBRANCH   7  11
TORSDOF 4
ENDMDL
MODEL 8
REMARK VINA RESULT:      -7.5      5.268      5.808
REMARK  Name = 
REMARK  4 active torsions:
REMARK  status: ('A' for Active; 'I' for Inactive)
REMARK    1  A    between atoms: C_7  and  C_8
REMARK    2  A    between atoms: C_8  and  C_9
REMARK    3  A    between atoms: C_9  and  C_10
REMARK    4  A    between atoms: C_11  and  C_12
REMARK                            x       y       z     vdW  Elec       q    Type
REMARK                         _______ _______ _______ _____ _____    ______ ____
ROOT
ATOM      1  F   UNL     1       1.117   2.586  22.158  0.00  0.00    +0.000 F 
ATOM      2  C   UNL     1       1.582   2.811  20.916  0.00  0.00    +0.000 A 
ATOM      3  C   UNL     1       0.684   2.640  19.791  0.00  0.00    +0.000 A 
ATOM      4  C   UNL     1       1.101   2.854  18.526  0.00  0.00    +0.000 A 
ATOM      5  C   UNL     1       2.450   3.256  18.285  0.00  0.00    +0.000 A 
ATOM      6  N   UNL     1       3.100   3.528  17.172  0.00  0.00    +0.000 NA
ATOM      7  C   UNL     1       4.382   3.866  17.556  0.00  0.00    +0.000 A 
ATOM      8  C   UNL     1       4.501   3.792  18.931  0.00  0.00    +0.000 A 
ATOM      9  N   UNL     1       3.273   3.406  19.399  0.00  0.00    +0.000 N 
ATOM     10  C   UNL     1       2.852   3.188  20.707  0.00  0.00    +0.000 A 
ENDROOT
BRANCH   7  11
ATOM     11  C   UNL     1       5.447   4.249  16.577  0.00  0.00    +0.000 C 
BRANCH  11  12
ATOM     12  C   UNL     1       5.325   5.667  16.020  0.00  0.00    +0.000 C 
BRANCH  12  13
ATOM     13  C   UNL     1       4.429   6.504  16.846  0.00  0.00    +0.000 C 
ATOM     14  C   UNL     1       3.670   7.187  17.486  0.00  0.00    +0.000 C 
BRANCH  14  15
ATOM     15  C   UNL     1       2.733   8.006  18.195  0.00  0.00    +0.000 A 
ATOM     16  C   UNL     1       2.281   7.640  19.456  0.00  0.00    +0.000 A 
ATOM     17  C   UNL     1       1.325   8.444  20.074  0.00  0.00    +0.000 A 
ATOM     18  C   UNL     1       0.865   9.579  19.417  0.00  0.00    +0.000 A 
ATOM     19  C   UNL     1       1.388   9.869  18.165  0.00  0.00    +0.000 A 
ATOM     20  N   UNL     1       2.311   9.108  17.536  0.00  0.00    +0.000 NA
ENDBRANCH  14  15
ENDBRANCH  12  13
ENDBRANCH  11  12
ENDBRANCH   7  11
TORSDOF 4
ENDMDL
MODEL 9
REMARK VINA RESULT:      -7.5      1.351      2.060
REMARK  Name = 
REMARK  4 active torsions:
REMARK  status: ('A' for Active; 'I' for Inactive)
REMARK    1  A    between atoms: C_7  and  C_8
REMARK    2  A    between atoms: C_8  and  C_9
REMARK    3  A    between atoms: C_9  and  C_10
REMARK    4  A    between atoms: C_11  and  C_12
REMARK                            x       y       z     vdW  Elec       q    Type
REMARK                         _______ _______ _______ _____ _____    ______ ____
ROOT
ATOM      1  F   UNL     1       1.368   2.934  20.958  0.00  0.00    +0.000 F 
ATOM      2  C   UNL     1       2.017   3.595  19.982  0.00  0.00    +0.000 A 
ATOM      3  C   UNL     1       1.393   3.705  18.678  0.00  0.00    +0.000 A 
ATOM      4  C   UNL     1       2.002   4.358  17.666  0.00  0.00    +0.000 A 
ATOM      5  C   UNL     1       3.282   4.953  17.878  0.00  0.00    +0.000 A 
ATOM      6  N   UNL     1       4.077   5.636  17.079  0.00  0.00    +0.000 NA
ATOM      7  C   UNL     1       5.184   5.962  17.836  0.00  0.00    +0.000 A 
ATOM      8  C   UNL     1       5.049   5.460  19.116  0.00  0.00    +0.000 A 
ATOM      9  N   UNL     1       3.839   4.819  19.148  0.00  0.00    +0.000 N 
ATOM     10  C   UNL     1       3.219   4.147  20.197  0.00  0.00    +0.000 A 
ENDROOT
BRANCH   7  11
ATOM     11  C   UNL     1       6.335   6.748  17.292  0.00  0.00    +0.000 C 
BRANCH  11  12
ATOM     12  C   UNL     1       7.629   6.631  18.096  0.00  0.00    +0.000 C 
BRANCH  12  13
ATOM     13  C   UNL     1       8.177   7.959  18.444  0.00  0.00    +0.000 C 
ATOM     14  C   UNL     1       8.653   9.037  18.696  0.00  0.00    +0.000 C 
BRANCH  14  15
ATOM     15  C   UNL     1       9.264  10.306  18.954  0.00  0.00    +0.000 A 
ATOM     16  C   UNL     1       9.693  11.115  17.909  0.00  0.00    +0.000 A 
ATOM     17  C   UNL     1      10.334  12.312  18.219  0.00  0.00    +0.000 A 
ATOM     18  C   UNL     1      10.517  12.658  19.554  0.00  0.00    +0.000 A 
ATOM     19  C   UNL     1      10.041  11.792  20.526  0.00  0.00    +0.000 A 
ATOM     20  N   UNL     1       9.420  10.621  20.259  0.00  0.00    +0.000 NA
ENDBRANCH  14  15
ENDBRANCH  12  13
ENDBRANCH  11  12
ENDBRANCH   7  11
TORSDOF 4
ENDMDL
