MODEL 1
REMARK VINA RESULT:      -7.9      0.000      0.000
REMARK  Name = 
REMARK  6 active torsions:
REMARK  status: ('A' for Active; 'I' for Inactive)
REMARK    1  A    between atoms: N_2  and  C_4
REMARK    2  A    between atoms: C_7  and  S_8
REMARK    3  A    between atoms: S_8  and  O_11
REMARK    4  A    between atoms: O_11  and  C_12
REMARK    5  A    between atoms: C_15  and  C_16
REMARK    6  A    between atoms: C_16  and  N_17
REMARK                            x       y       z     vdW  Elec       q    Type
REMARK                         _______ _______ _______ _____ _____    ______ ____
ROOT
ATOM      1  O   UNL     1       3.181   6.503  19.398  0.00  0.00    +0.000 OA
ENDROOT
BRANCH   1   2
ATOM      2  C   UNL     1       2.376   7.597  19.198  0.00  0.00    +0.000 A 
ATOM      3  C   UNL     1       2.271   8.292  17.995  0.00  0.00    +0.000 A 
ATOM      4  C   UNL     1       1.468   9.430  17.908  0.00  0.00    +0.000 A 
ATOM      5  C   UNL     1       0.736   9.876  19.017  0.00  0.00    +0.000 A 
ATOM      6  C   UNL     1       0.808   9.143  20.211  0.00  0.00    +0.000 A 
ATOM      7  C   UNL     1       1.623   8.010  20.299  0.00  0.00    +0.000 A 
BRANCH   5   8
ATOM      8  C   UNL     1      -0.104  11.122  18.915  0.00  0.00    +0.000 C 
BRANCH   8   9
ATOM      9  N   UNL     1      -1.444  10.842  18.435  0.00  0.00    +0.000 N 
ATOM     10  C   UNL     1      -1.799   9.889  17.519  0.00  0.00    +0.000 A 
ATOM     11  C   UNL     1      -3.132  10.116  17.271  0.00  0.00    +0.000 A 
ATOM     12  N   UNL     1      -3.596  11.165  18.022  0.00  0.00    +0.000 NA
ATOM     13  C   UNL     1      -2.560  11.578  18.717  0.00  0.00    +0.000 A 
ENDBRANCH   8   9
ENDBRANCH   5   8
ENDBRANCH   1   2
BRANCH   1  14
ATOM     14  S   UNL     1       2.862   5.069  18.685  0.00  0.00    +0.000 S 
ATOM     15  O   UNL     1       1.546   5.127  18.072  0.00  0.00    +0.000 OA
ATOM     16  O   UNL     1       3.222   3.997  19.591  0.00  0.00    +0.000 OA
BRANCH  14  20
ATOM     17  C   UNL     1       5.915   4.893  15.302  0.00  0.00    +0.000 A 
ATOM     18  C   UNL     1       5.364   3.700  15.803  0.00  0.00    +0.000 A 
ATOM     19  C   UNL     1       4.418   3.751  16.830  0.00  0.00    +0.000 A 
ATOM     20  C   UNL     1       4.030   4.994  17.343  0.00  0.00    +0.000 A 
ATOM     21  C   UNL     1       4.574   6.185  16.843  0.00  0.00    +0.000 A 
ATOM     22  C   UNL     1       5.520   6.136  15.818  0.00  0.00    +0.000 A 
BRANCH  17  24
ATOM     23  O   UNL     1       7.952   5.510  14.382  0.00  0.00    +0.000 OA
ATOM     24  N   UNL     1       6.922   4.839  14.235  0.00  0.00    +0.000 N 
ATOM     25  O   UNL     1       6.678   4.129  13.248  0.00  0.00    +0.000 OA
ENDBRANCH  17  24
ENDBRANCH  14  20
ENDBRANCH   1  14
TORSDOF 6
ENDMDL
MODEL 2
REMARK VINA RESULT:      -7.8      1.517      2.584
REMARK  Name = 
REMARK  6 active torsions:
REMARK  status: ('A' for Active; 'I' for Inactive)
REMARK    1  A    between atoms: N_2  and  C_4
REMARK    2  A    between atoms: C_7  and  S_8
REMARK    3  A    between atoms: S_8  and  O_11
REMARK    4  A    between atoms: O_11  and  C_12
REMARK    5  A    between atoms: C_15  and  C_16
REMARK    6  A    between atoms: C_16  and  N_17
REMARK                            x       y       z     vdW  Elec       q    Type
REMARK                         _______ _______ _______ _____ _____    ______ ____
ROOT
ATOM      1  O   UNL     1       3.240   6.457  19.382  0.00  0.00    +0.000 OA
ENDROOT
BRANCH   1   2
ATOM      2  C   UNL     1       2.386   7.529  19.291  0.00  0.00    +0.000 A 
ATOM      3  C   UNL     1       2.191   8.288  18.139  0.00  0.00    +0.000 A 
ATOM      4  C   UNL     1       1.344   9.397  18.164  0.00  0.00    +0.000 A 
ATOM      5  C   UNL     1       0.660   9.749  19.334  0.00  0.00    +0.000 A 
ATOM      6  C   UNL     1       0.823   8.952  20.477  0.00  0.00    +0.000 A 
ATOM      7  C   UNL     1       1.682   7.848  20.453  0.00  0.00    +0.000 A 
BRANCH   5   8
ATOM      8  C   UNL     1      -0.228  10.966  19.352  0.00  0.00    +0.000 C 
BRANCH   8   9
ATOM      9  N   UNL     1       0.405  12.098  20.003  0.00  0.00    +0.000 N 
ATOM     10  C   UNL     1       1.431  12.855  19.505  0.00  0.00    +0.000 A 
ATOM     11  C   UNL     1       1.791  13.687  20.539  0.00  0.00    +0.000 A 
ATOM     12  N   UNL     1       1.003  13.467  21.639  0.00  0.00    +0.000 NA
ATOM     13  C   UNL     1       0.175  12.509  21.285  0.00  0.00    +0.000 A 
ENDBRANCH   8   9
ENDBRANCH   5   8
ENDBRANCH   1   2
BRANCH   1  14
ATOM     14  S   UNL     1       2.917   5.045  18.627  0.00  0.00    +0.000 S 
ATOM     15  O   UNL     1       1.622   5.142  17.977  0.00  0.00    +0.000 OA
ATOM     16  O   UNL     1       3.229   3.947  19.520  0.00  0.00    +0.000 OA
BRANCH  14  20
ATOM     17  C   UNL     1       5.948   4.854  15.226  0.00  0.00    +0.000 A 
ATOM     18  C   UNL     1       5.511   6.104  15.697  0.00  0.00    +0.000 A 
ATOM     19  C   UNL     1       4.593   6.167  16.748  0.00  0.00    +0.000 A 
ATOM     20  C   UNL     1       4.124   4.978  17.320  0.00  0.00    +0.000 A 
ATOM     21  C   UNL     1       4.561   3.730  16.856  0.00  0.00    +0.000 A 
ATOM     22  C   UNL     1       5.477   3.667  15.805  0.00  0.00    +0.000 A 
BRANCH  17  24
ATOM     23  O   UNL     1       6.645   4.007  13.183  0.00  0.00    +0.000 OA
ATOM     24  N   UNL     1       6.901   4.788  14.110  0.00  0.00    +0.000 N 
ATOM     25  O   UNL     1       7.904   5.513  14.165  0.00  0.00    +0.000 OA
ENDBRANCH  17  24
ENDBRANCH  14  20
ENDBRANCH   1  14
TORSDOF 6
ENDMDL
MODEL 3
REMARK VINA RESULT:      -7.8      2.072      2.912
REMARK  Name = 
REMARK  6 active torsions:
REMARK  status: ('A' for Active; 'I' for Inactive)
REMARK    1  A    between atoms: N_2  and  C_4
REMARK    2  A    between atoms: C_7  and  S_8
REMARK    3  A    between atoms: S_8  and  O_11
REMARK    4  A    between atoms: O_11  and  C_12
REMARK    5  A    between atoms: C_15  and  C_16
REMARK    6  A    between atoms: C_16  and  N_17
REMARK                            x       y       z     vdW  Elec       q    Type
REMARK                         _______ _______ _______ _____ _____    ______ ____
ROOT
ATOM      1  O   UNL     1       3.433   4.786  18.869  0.00  0.00    +0.000 OA
ENDROOT
BRANCH   1   2
ATOM      2  C   UNL     1       2.929   6.062  18.916  0.00  0.00    +0.000 A 
ATOM      3  C   UNL     1       2.285   6.616  20.021  0.00  0.00    +0.000 A 
ATOM      4  C   UNL     1       1.753   7.905  19.950  0.00  0.00    +0.000 A 
ATOM      5  C   UNL     1       1.880   8.669  18.782  0.00  0.00    +0.000 A 
ATOM      6  C   UNL     1       2.573   8.123  17.691  0.00  0.00    +0.000 A 
ATOM      7  C   UNL     1       3.094   6.826  17.760  0.00  0.00    +0.000 A 
BRANCH   5   8
ATOM      8  C   UNL     1       1.276  10.047  18.713  0.00  0.00    +0.000 C 
BRANCH   8   9
ATOM      9  N   UNL     1       0.723  10.468  19.986  0.00  0.00    +0.000 N 
ATOM     10  C   UNL     1      -0.449  10.039  20.547  0.00  0.00    +0.000 A 
ATOM     11  C   UNL     1      -0.623  10.834  21.656  0.00  0.00    +0.000 A 
ATOM     12  N   UNL     1       0.418  11.717  21.790  0.00  0.00    +0.000 NA
ATOM     13  C   UNL     1       1.215  11.470  20.774  0.00  0.00    +0.000 A 
ENDBRANCH   8   9
ENDBRANCH   5   8
ENDBRANCH   1   2
BRANCH   1  14
ATOM     14  S   UNL     1       5.030   4.493  19.054  0.00  0.00    +0.000 S 
ATOM     15  O   UNL     1       5.209   3.138  19.545  0.00  0.00    +0.000 OA
ATOM     16  O   UNL     1       5.645   5.623  19.721  0.00  0.00    +0.000 OA
BRANCH  14  20
ATOM     17  C   UNL     1       6.590   4.585  14.770  0.00  0.00    +0.000 A 
ATOM     18  C   UNL     1       7.421   5.012  15.821  0.00  0.00    +0.000 A 
ATOM     19  C   UNL     1       6.951   4.972  17.136  0.00  0.00    +0.000 A 
ATOM     20  C   UNL     1       5.657   4.502  17.387  0.00  0.00    +0.000 A 
ATOM     21  C   UNL     1       4.827   4.072  16.342  0.00  0.00    +0.000 A 
ATOM     22  C   UNL     1       5.295   4.113  15.028  0.00  0.00    +0.000 A 
BRANCH  17  24
ATOM     23  O   UNL     1       6.633   3.809  12.585  0.00  0.00    +0.000 OA
ATOM     24  N   UNL     1       7.078   4.643  13.386  0.00  0.00    +0.000 N 
ATOM     25  O   UNL     1       7.908   5.518  13.103  0.00  0.00    +0.000 OA
ENDBRANCH  17  24
ENDBRANCH  14  20
ENDBRANCH   1  14
TORSDOF 6
ENDMDL
MODEL 4
REMARK VINA RESULT:      -7.8      0.172      1.157
REMARK  Name = 
REMARK  6 active torsions:
REMARK  status: ('A' for Active; 'I' for Inactive)
REMARK    1  A    between atoms: N_2  and  C_4
REMARK    2  A    between atoms: C_7  and  S_8
REMARK    3  A    between atoms: S_8  and  O_11
REMARK    4  A    between atoms: O_11  and  C_12
REMARK    5  A    between atoms: C_15  and  C_16
REMARK    6  A    between atoms: C_16  and  N_17
REMARK                            x       y       z     vdW  Elec       q    Type
REMARK                         _______ _______ _______ _____ _____    ______ ____
ROOT
ATOM      1  O   UNL     1       3.156   6.496  19.412  0.00  0.00    +0.000 OA
ENDROOT
BRANCH   1   2
ATOM      2  C   UNL     1       2.380   7.626  19.323  0.00  0.00    +0.000 A 
ATOM      3  C   UNL     1       1.537   8.086  20.333  0.00  0.00    +0.000 A 
ATOM      4  C   UNL     1       0.742   9.214  20.124  0.00  0.00    +0.000 A 
ATOM      5  C   UNL     1       0.797   9.915  18.913  0.00  0.00    +0.000 A 
ATOM      6  C   UNL     1       1.684   9.475  17.919  0.00  0.00    +0.000 A 
ATOM      7  C   UNL     1       2.471   8.336  18.125  0.00  0.00    +0.000 A 
BRANCH   5   8
ATOM      8  C   UNL     1      -0.088  11.114  18.693  0.00  0.00    +0.000 C 
BRANCH   8   9
ATOM      9  N   UNL     1      -1.417  10.740  18.245  0.00  0.00    +0.000 N 
ATOM     10  C   UNL     1      -1.721   9.845  17.255  0.00  0.00    +0.000 A 
ATOM     11  C   UNL     1      -3.081   9.952  17.087  0.00  0.00    +0.000 A 
ATOM     12  N   UNL     1      -3.609  10.870  17.958  0.00  0.00    +0.000 NA
ATOM     13  C   UNL     1      -2.584  11.324  18.646  0.00  0.00    +0.000 A 
ENDBRANCH   8   9
ENDBRANCH   5   8
ENDBRANCH   1   2
BRANCH   1  14
ATOM     14  S   UNL     1       2.758   5.126  18.618  0.00  0.00    +0.000 S 
ATOM     15  O   UNL     1       1.470   5.310  17.972  0.00  0.00    +0.000 OA
ATOM     16  O   UNL     1       3.011   3.987  19.478  0.00  0.00    +0.000 OA
BRANCH  14  20
ATOM     17  C   UNL     1       5.897   4.903  15.318  0.00  0.00    +0.000 A 
ATOM     18  C   UNL     1       5.358   3.717  15.844  0.00  0.00    +0.000 A 
ATOM     19  C   UNL     1       4.386   3.781  16.846  0.00  0.00    +0.000 A 
ATOM     20  C   UNL     1       3.960   5.032  17.307  0.00  0.00    +0.000 A 
ATOM     21  C   UNL     1       4.492   6.217  16.781  0.00  0.00    +0.000 A 
ATOM     22  C   UNL     1       5.463   6.154  15.782  0.00  0.00    +0.000 A 
BRANCH  17  24
ATOM     23  O   UNL     1       6.730   4.081  13.315  0.00  0.00    +0.000 OA
ATOM     24  N   UNL     1       6.931   4.836  14.277  0.00  0.00    +0.000 N 
ATOM     25  O   UNL     1       7.944   5.534  14.425  0.00  0.00    +0.000 OA
ENDBRANCH  17  24
ENDBRANCH  14  20
ENDBRANCH   1  14
TORSDOF 6
ENDMDL
MODEL 5
REMARK VINA RESULT:      -7.8      1.563      2.240
REMARK  Name = 
REMARK  6 active torsions:
REMARK  status: ('A' for Active; 'I' for Inactive)
REMARK    1  A    between atoms: N_2  and  C_4
REMARK    2  A    between atoms: C_7  and  S_8
REMARK    3  A    between atoms: S_8  and  O_11
REMARK    4  A    between atoms: O_11  and  C_12
REMARK    5  A    between atoms: C_15  and  C_16
REMARK    6  A    between atoms: C_16  and  N_17
REMARK                            x       y       z     vdW  Elec       q    Type
REMARK                         _______ _______ _______ _____ _____    ______ ____
ROOT
ATOM      1  O   UNL     1       3.267   6.627  19.418  0.00  0.00    +0.000 OA
ENDROOT
BRANCH   1   2
ATOM      2  C   UNL     1       2.335   7.632  19.350  0.00  0.00    +0.000 A 
ATOM      3  C   UNL     1       2.104   8.420  18.224  0.00  0.00    +0.000 A 
ATOM      4  C   UNL     1       1.173   9.459  18.273  0.00  0.00    +0.000 A 
ATOM      5  C   UNL     1       0.440   9.710  19.440  0.00  0.00    +0.000 A 
ATOM      6  C   UNL     1       0.642   8.882  20.554  0.00  0.00    +0.000 A 
ATOM      7  C   UNL     1       1.585   7.849  20.507  0.00  0.00    +0.000 A 
BRANCH   5   8
ATOM      8  C   UNL     1      -0.540  10.853  19.485  0.00  0.00    +0.000 C 
BRANCH   8   9
ATOM      9  N   UNL     1      -0.258  11.775  20.570  0.00  0.00    +0.000 N 
ATOM     10  C   UNL     1      -1.103  12.112  21.592  0.00  0.00    +0.000 A 
ATOM     11  C   UNL     1      -0.460  13.126  22.262  0.00  0.00    +0.000 A 
ATOM     12  N   UNL     1       0.754  13.398  21.686  0.00  0.00    +0.000 NA
ATOM     13  C   UNL     1       0.851  12.565  20.673  0.00  0.00    +0.000 A 
ENDBRANCH   8   9
ENDBRANCH   5   8
ENDBRANCH   1   2
BRANCH   1  14
ATOM     14  S   UNL     1       2.973   5.149  18.789  0.00  0.00    +0.000 S 
ATOM     15  O   UNL     1       1.633   5.131  18.227  0.00  0.00    +0.000 OA
ATOM     16  O   UNL     1       3.406   4.136  19.731  0.00  0.00    +0.000 OA
BRANCH  14  20
ATOM     17  C   UNL     1       5.898   4.909  15.299  0.00  0.00    +0.000 A 
ATOM     18  C   UNL     1       5.399   3.725  15.869  0.00  0.00    +0.000 A 
ATOM     19  C   UNL     1       4.492   3.795  16.929  0.00  0.00    +0.000 A 
ATOM     20  C   UNL     1       4.090   5.048  17.406  0.00  0.00    +0.000 A 
ATOM     21  C   UNL     1       4.582   6.231  16.836  0.00  0.00    +0.000 A 
ATOM     22  C   UNL     1       5.489   6.162  15.778  0.00  0.00    +0.000 A 
BRANCH  17  24
ATOM     23  O   UNL     1       7.863   5.566  14.257  0.00  0.00    +0.000 OA
ATOM     24  N   UNL     1       6.864   4.836  14.195  0.00  0.00    +0.000 N 
ATOM     25  O   UNL     1       6.620   4.053  13.266  0.00  0.00    +0.000 OA
ENDBRANCH  17  24
ENDBRANCH  14  20
ENDBRANCH   1  14
TORSDOF 6
ENDMDL
MODEL 6
REMARK VINA RESULT:      -7.7      0.652      1.286
REMARK  Name = 
REMARK  6 active torsions:
REMARK  status: ('A' for Active; 'I' for Inactive)
REMARK    1  A    between atoms: N_2  and  C_4
REMARK    2  A    between atoms: C_7  and  S_8
REMARK    3  A    between atoms: S_8  and  O_11
REMARK    4  A    between atoms: O_11  and  C_12
REMARK    5  A    between atoms: C_15  and  C_16
REMARK    6  A    between atoms: C_16  and  N_17
REMARK                            x       y       z     vdW  Elec       q    Type
REMARK                         _______ _______ _______ _____ _____    ______ ____
ROOT
ATOM      1  O   UNL     1       2.975   6.577  19.865  0.00  0.00    +0.000 OA
ENDROOT
BRANCH   1   2
ATOM      2  C   UNL     1       2.230   7.658  19.466  0.00  0.00    +0.000 A 
ATOM      3  C   UNL     1       2.274   8.221  18.192  0.00  0.00    +0.000 A 
ATOM      4  C   UNL     1       1.520   9.359  17.900  0.00  0.00    +0.000 A 
ATOM      5  C   UNL     1       0.691   9.937  18.870  0.00  0.00    +0.000 A 
ATOM      6  C   UNL     1       0.614   9.337  20.136  0.00  0.00    +0.000 A 
ATOM      7  C   UNL     1       1.380   8.203  20.430  0.00  0.00    +0.000 A 
BRANCH   5   8
ATOM      8  C   UNL     1      -0.094  11.182  18.548  0.00  0.00    +0.000 C 
BRANCH   8   9
ATOM      9  N   UNL     1      -1.429  10.879  18.066  0.00  0.00    +0.000 N 
ATOM     10  C   UNL     1      -2.598  11.450  18.491  0.00  0.00    +0.000 A 
ATOM     11  C   UNL     1      -3.590  10.730  17.869  0.00  0.00    +0.000 A 
ATOM     12  N   UNL     1      -3.055   9.754  17.069  0.00  0.00    +0.000 NA
ATOM     13  C   UNL     1      -1.753   9.871  17.203  0.00  0.00    +0.000 A 
ENDBRANCH   8   9
ENDBRANCH   5   8
ENDBRANCH   1   2
BRANCH   1  14
ATOM     14  S   UNL     1       2.747   5.097  19.212  0.00  0.00    +0.000 S 
ATOM     15  O   UNL     1       1.463   5.073  18.533  0.00  0.00    +0.000 OA
ATOM     16  O   UNL     1       3.099   4.087  20.189  0.00  0.00    +0.000 OA
BRANCH  14  20
ATOM     17  C   UNL     1       5.859   4.882  15.887  0.00  0.00    +0.000 A 
ATOM     18  C   UNL     1       5.886   5.955  16.793  0.00  0.00    +0.000 A 
ATOM     19  C   UNL     1       4.942   6.017  17.822  0.00  0.00    +0.000 A 
ATOM     20  C   UNL     1       3.984   5.003  17.935  0.00  0.00    +0.000 A 
ATOM     21  C   UNL     1       3.958   3.929  17.035  0.00  0.00    +0.000 A 
ATOM     22  C   UNL     1       4.899   3.867  16.007  0.00  0.00    +0.000 A 
BRANCH  17  24
ATOM     23  O   UNL     1       7.795   5.613  14.839  0.00  0.00    +0.000 OA
ATOM     24  N   UNL     1       6.840   4.825  14.795  0.00  0.00    +0.000 N 
ATOM     25  O   UNL     1       6.651   3.996  13.893  0.00  0.00    +0.000 OA
ENDBRANCH  17  24
ENDBRANCH  14  20
ENDBRANCH   1  14
TORSDOF 6
ENDMDL
MODEL 7
REMARK VINA RESULT:      -7.6      2.018      2.631
REMARK  Name = 
REMARK  6 active torsions:
REMARK  status: ('A' for Active; 'I' for Inactive)
REMARK    1  A    between atoms: N_2  and  C_4
REMARK    2  A    between atoms: C_7  and  S_8
REMARK    3  A    between atoms: S_8  and  O_11
REMARK    4  A    between atoms: O_11  and  C_12
REMARK    5  A    between atoms: C_15  and  C_16
REMARK    6  A    between atoms: C_16  and  N_17
REMARK                            x       y       z     vdW  Elec       q    Type
REMARK                         _______ _______ _______ _____ _____    ______ ____
ROOT
ATOM      1  O   UNL     1       4.123   5.426  19.726  0.00  0.00    +0.000 OA
ENDROOT
BRANCH   1   2
ATOM      2  C   UNL     1       3.342   6.466  19.287  0.00  0.00    +0.000 A 
ATOM      3  C   UNL     1       3.455   7.064  18.033  0.00  0.00    +0.000 A 
ATOM      4  C   UNL     1       2.652   8.158  17.701  0.00  0.00    +0.000 A 
ATOM      5  C   UNL     1       1.707   8.653  18.609  0.00  0.00    +0.000 A 
ATOM      6  C   UNL     1       1.565   8.016  19.850  0.00  0.00    +0.000 A 
ATOM      7  C   UNL     1       2.379   6.928  20.185  0.00  0.00    +0.000 A 
BRANCH   5   8
ATOM      8  C   UNL     1       0.869   9.851  18.246  0.00  0.00    +0.000 C 
BRANCH   8   9
ATOM      9  N   UNL     1       1.415  11.085  18.780  0.00  0.00    +0.000 N 
ATOM     10  C   UNL     1       1.023  11.720  19.928  0.00  0.00    +0.000 A 
ATOM     11  C   UNL     1       1.708  12.912  19.923  0.00  0.00    +0.000 A 
ATOM     12  N   UNL     1       2.512  13.008  18.818  0.00  0.00    +0.000 NA
ATOM     13  C   UNL     1       2.320  11.892  18.151  0.00  0.00    +0.000 A 
ENDBRANCH   8   9
ENDBRANCH   5   8
ENDBRANCH   1   2
BRANCH   1  14
ATOM     14  S   UNL     1       4.129   3.983  18.961  0.00  0.00    +0.000 S 
ATOM     15  O   UNL     1       2.775   3.666  18.539  0.00  0.00    +0.000 OA
ATOM     16  O   UNL     1       4.917   3.041  19.729  0.00  0.00    +0.000 OA
BRANCH  14  20
ATOM     17  C   UNL     1       6.534   4.723  15.158  0.00  0.00    +0.000 A 
ATOM     18  C   UNL     1       5.233   4.198  15.065  0.00  0.00    +0.000 A 
ATOM     19  C   UNL     1       4.488   3.983  16.228  0.00  0.00    +0.000 A 
ATOM     20  C   UNL     1       5.050   4.299  17.470  0.00  0.00    +0.000 A 
ATOM     21  C   UNL     1       6.346   4.827  17.565  0.00  0.00    +0.000 A 
ATOM     22  C   UNL     1       7.091   5.040  16.406  0.00  0.00    +0.000 A 
BRANCH  17  24
ATOM     23  O   UNL     1       8.287   5.709  14.004  0.00  0.00    +0.000 OA
ATOM     24  N   UNL     1       7.324   4.933  13.938  0.00  0.00    +0.000 N 
ATOM     25  O   UNL     1       6.977   4.326  12.915  0.00  0.00    +0.000 OA
ENDBRANCH  17  24
ENDBRANCH  14  20
ENDBRANCH   1  14
TORSDOF 6
ENDMDL
MODEL 8
REMARK VINA RESULT:      -7.6      1.989      2.598
REMARK  Name = 
REMARK  6 active torsions:
REMARK  status: ('A' for Active; 'I' for Inactive)
REMARK    1  A    between atoms: N_2  and  C_4
REMARK    2  A    between atoms: C_7  and  S_8
REMARK    3  A    between atoms: S_8  and  O_11
REMARK    4  A    between atoms: O_11  and  C_12
REMARK    5  A    between atoms: C_15  and  C_16
REMARK    6  A    between atoms: C_16  and  N_17
REMARK                            x       y       z     vdW  Elec       q    Type
REMARK                         _______ _______ _______ _____ _____    ______ ____
ROOT
ATOM      1  O   UNL     1       4.338   5.399  19.548  0.00  0.00    +0.000 OA
ENDROOT
BRANCH   1   2
ATOM      2  C   UNL     1       3.507   6.408  19.131  0.00  0.00    +0.000 A 
ATOM      3  C   UNL     1       3.575   7.022  17.881  0.00  0.00    +0.000 A 
ATOM      4  C   UNL     1       2.722   8.083  17.572  0.00  0.00    +0.000 A 
ATOM      5  C   UNL     1       1.770   8.529  18.498  0.00  0.00    +0.000 A 
ATOM      6  C   UNL     1       1.674   7.875  19.735  0.00  0.00    +0.000 A 
ATOM      7  C   UNL     1       2.538   6.820  20.048  0.00  0.00    +0.000 A 
BRANCH   5   8
ATOM      8  C   UNL     1       0.876   9.694  18.159  0.00  0.00    +0.000 C 
BRANCH   8   9
ATOM      9  N   UNL     1       1.102  10.830  19.032  0.00  0.00    +0.000 N 
ATOM     10  C   UNL     1       0.492  11.068  20.235  0.00  0.00    +0.000 A 
ATOM     11  C   UNL     1       0.904  12.328  20.597  0.00  0.00    +0.000 A 
ATOM     12  N   UNL     1       1.757  12.851  19.660  0.00  0.00    +0.000 NA
ATOM     13  C   UNL     1       1.862  11.925  18.733  0.00  0.00    +0.000 A 
ENDBRANCH   8   9
ENDBRANCH   5   8
ENDBRANCH   1   2
BRANCH   1  14
ATOM     14  S   UNL     1       4.329   3.934  18.825  0.00  0.00    +0.000 S 
ATOM     15  O   UNL     1       2.975   3.623  18.403  0.00  0.00    +0.000 OA
ATOM     16  O   UNL     1       5.099   3.004  19.626  0.00  0.00    +0.000 OA
BRANCH  14  20
ATOM     17  C   UNL     1       6.686   4.672  14.992  0.00  0.00    +0.000 A 
ATOM     18  C   UNL     1       7.300   4.890  16.236  0.00  0.00    +0.000 A 
ATOM     19  C   UNL     1       6.586   4.651  17.413  0.00  0.00    +0.000 A 
ATOM     20  C   UNL     1       5.265   4.195  17.332  0.00  0.00    +0.000 A 
ATOM     21  C   UNL     1       4.651   3.972  16.092  0.00  0.00    +0.000 A 
ATOM     22  C   UNL     1       5.363   4.211  14.917  0.00  0.00    +0.000 A 
BRANCH  17  24
ATOM     23  O   UNL     1       8.377   5.736  13.814  0.00  0.00    +0.000 OA
ATOM     24  N   UNL     1       7.431   4.939  13.754  0.00  0.00    +0.000 N 
ATOM     25  O   UNL     1       7.064   4.354  12.724  0.00  0.00    +0.000 OA
ENDBRANCH  17  24
ENDBRANCH  14  20
ENDBRANCH   1  14
TORSDOF 6
ENDMDL
MODEL 9
REMARK VINA RESULT:      -7.6      0.727      1.270
REMARK  Name = 
REMARK  6 active torsions:
REMARK  status: ('A' for Active; 'I' for Inactive)
REMARK    1  A    between atoms: N_2  and  C_4
REMARK    2  A    between atoms: C_7  and  S_8
REMARK    3  A    between atoms: S_8  and  O_11
REMARK    4  A    between atoms: O_11  and  C_12
REMARK    5  A    between atoms: C_15  and  C_16
REMARK    6  A    between atoms: C_16  and  N_17
REMARK                            x       y       z     vdW  Elec       q    Type
REMARK                         _______ _______ _______ _____ _____    ______ ____
ROOT
ATOM      1  O   UNL     1       3.277   7.078  19.081  0.00  0.00    +0.000 OA
ENDROOT
BRANCH   1   2
ATOM      2  C   UNL     1       2.256   7.984  19.226  0.00  0.00    +0.000 A 
ATOM      3  C   UNL     1       1.539   8.183  20.405  0.00  0.00    +0.000 A 
ATOM      4  C   UNL     1       0.476   9.088  20.435  0.00  0.00    +0.000 A 
ATOM      5  C   UNL     1       0.131   9.826  19.296  0.00  0.00    +0.000 A 
ATOM      6  C   UNL     1       0.888   9.656  18.127  0.00  0.00    +0.000 A 
ATOM      7  C   UNL     1       1.945   8.739  18.095  0.00  0.00    +0.000 A 
BRANCH   5   8
ATOM      8  C   UNL     1      -1.037  10.777  19.337  0.00  0.00    +0.000 C 
BRANCH   8   9
ATOM      9  N   UNL     1      -1.869  10.676  18.153  0.00  0.00    +0.000 N 
ATOM     10  C   UNL     1      -2.006  11.621  17.172  0.00  0.00    +0.000 A 
ATOM     11  C   UNL     1      -3.011  11.145  16.362  0.00  0.00    +0.000 A 
ATOM     12  N   UNL     1      -3.471   9.936  16.814  0.00  0.00    +0.000 NA
ATOM     13  C   UNL     1      -2.761   9.676  17.890  0.00  0.00    +0.000 A 
ENDBRANCH   8   9
ENDBRANCH   5   8
ENDBRANCH   1   2
BRANCH   1  14
ATOM     14  S   UNL     1       2.991   5.539  18.615  0.00  0.00    +0.000 S 
ATOM     15  O   UNL     1       1.649   5.453  18.065  0.00  0.00    +0.000 OA
ATOM     16  O   UNL     1       3.435   4.636  19.658  0.00  0.00    +0.000 OA
BRANCH  14  20
ATOM     17  C   UNL     1       5.903   4.942  15.158  0.00  0.00    +0.000 A 
ATOM     18  C   UNL     1       5.363   3.821  15.811  0.00  0.00    +0.000 A 
ATOM     19  C   UNL     1       4.460   4.000  16.862  0.00  0.00    +0.000 A 
ATOM     20  C   UNL     1       4.103   5.298  17.245  0.00  0.00    +0.000 A 
ATOM     21  C   UNL     1       4.637   6.418  16.592  0.00  0.00    +0.000 A 
ATOM     22  C   UNL     1       5.540   6.241  15.544  0.00  0.00    +0.000 A 
BRANCH  17  24
ATOM     23  O   UNL     1       7.876   5.472  14.059  0.00  0.00    +0.000 OA
ATOM     24  N   UNL     1       6.866   4.755  14.064  0.00  0.00    +0.000 N 
ATOM     25  O   UNL     1       6.607   3.896  13.209  0.00  0.00    +0.000 OA
ENDBRANCH  17  24
ENDBRANCH  14  20
ENDBRANCH   1  14
TORSDOF 6
ENDMDL
