MODEL 1
REMARK VINA RESULT:      -8.3      0.000      0.000
REMARK  Name = 
REMARK  3 active torsions:
REMARK  status: ('A' for Active; 'I' for Inactive)
REMARK    1  A    between atoms: C_1  and  N_2
REMARK    2  A    between atoms: N_5  and  C_6
REMARK    3  A    between atoms: C_8  and  C_9
REMARK                            x       y       z     vdW  Elec       q    Type
REMARK                         _______ _______ _______ _____ _____    ______ ____
ROOT
ATOM      1  C   UNL     1       4.080   4.374  17.806  0.00  0.00    +0.000 C 
ATOM      2  C   UNL     1       3.998   4.443  16.249  0.00  0.00    +0.000 C 
ATOM      3  C   UNL     1       5.048   5.446  15.708  0.00  0.00    +0.000 C 
ATOM      4  C   UNL     1       5.903   5.697  16.921  0.00  0.00    +0.000 A 
ATOM      5  C   UNL     1       7.012   6.534  17.006  0.00  0.00    +0.000 A 
ATOM      6  C   UNL     1       7.742   6.545  18.192  0.00  0.00    +0.000 A 
ATOM      7  C   UNL     1       7.384   5.690  19.236  0.00  0.00    +0.000 A 
ATOM      8  F   UNL     1       8.115   5.684  20.358  0.00  0.00    +0.000 F 
ATOM      9  C   UNL     1       6.260   4.874  19.154  0.00  0.00    +0.000 A 
ATOM     10  C   UNL     1       5.466   4.948  18.018  0.00  0.00    +0.000 A 
ENDROOT
BRANCH   1  15
ATOM     11  C   UNL     1       1.341   2.575  21.520  0.00  0.00    +0.000 C 
ATOM     12  N   UNL     1       1.580   3.753  20.690  0.00  0.00    +0.000 NA
ATOM     13  C   UNL     1       1.266   3.481  19.278  0.00  0.00    +0.000 C 
ATOM     14  C   UNL     1       1.656   4.630  18.311  0.00  0.00    +0.000 C 
ATOM     15  N   UNL     1       3.024   5.189  18.456  0.00  0.00    +0.000 NA
ATOM     16  C   UNL     1       3.225   5.443  19.903  0.00  0.00    +0.000 C 
ATOM     17  C   UNL     1       2.966   4.228  20.822  0.00  0.00    +0.000 C 
ENDBRANCH   1  15
BRANCH   3  18
ATOM     18  C   UNL     1       5.795   4.841  14.512  0.00  0.00    +0.000 A 
ATOM     19  C   UNL     1       7.075   5.314  14.182  0.00  0.00    +0.000 A 
ATOM     20  C   UNL     1       7.756   4.810  13.069  0.00  0.00    +0.000 A 
ATOM     21  C   UNL     1       7.163   3.832  12.280  0.00  0.00    +0.000 A 
ATOM     22  F   UNL     1       7.815   3.350  11.215  0.00  0.00    +0.000 F 
ATOM     23  C   UNL     1       5.895   3.353  12.579  0.00  0.00    +0.000 A 
ATOM     24  C   UNL     1       5.212   3.861  13.687  0.00  0.00    +0.000 A 
ENDBRANCH   3  18
TORSDOF 2
ENDMDL
MODEL 2
REMARK VINA RESULT:      -8.3      1.906      4.877
REMARK  Name = 
REMARK  3 active torsions:
REMARK  status: ('A' for Active; 'I' for Inactive)
REMARK    1  A    between atoms: C_1  and  N_2
REMARK    2  A    between atoms: N_5  and  C_6
REMARK    3  A    between atoms: C_8  and  C_9
REMARK                            x       y       z     vdW  Elec       q    Type
REMARK                         _______ _______ _______ _____ _____    ______ ____
ROOT
ATOM      1  C   UNL     1       4.190   4.179  17.547  0.00  0.00    +0.000 C 
ATOM      2  C   UNL     1       5.170   4.919  18.510  0.00  0.00    +0.000 C 
ATOM      3  C   UNL     1       6.581   4.995  17.874  0.00  0.00    +0.000 C 
ATOM      4  C   UNL     1       6.312   4.578  16.453  0.00  0.00    +0.000 A 
ATOM      5  C   UNL     1       7.240   4.466  15.422  0.00  0.00    +0.000 A 
ATOM      6  C   UNL     1       6.775   4.174  14.142  0.00  0.00    +0.000 A 
ATOM      7  C   UNL     1       5.403   4.052  13.913  0.00  0.00    +0.000 A 
ATOM      8  F   UNL     1       4.965   3.805  12.671  0.00  0.00    +0.000 F 
ATOM      9  C   UNL     1       4.482   4.140  14.952  0.00  0.00    +0.000 A 
ATOM     10  C   UNL     1       4.953   4.317  16.246  0.00  0.00    +0.000 A 
ENDROOT
BRANCH   1  15
ATOM     11  C   UNL     1       1.077   2.919  21.188  0.00  0.00    +0.000 C 
ATOM     12  N   UNL     1       2.002   2.393  20.187  0.00  0.00    +0.000 NA
ATOM     13  C   UNL     1       3.380   2.838  20.450  0.00  0.00    +0.000 C 
ATOM     14  C   UNL     1       4.389   2.458  19.334  0.00  0.00    +0.000 C 
ATOM     15  N   UNL     1       3.987   2.763  17.938  0.00  0.00    +0.000 NA
ATOM     16  C   UNL     1       2.602   2.257  17.778  0.00  0.00    +0.000 C 
ATOM     17  C   UNL     1       1.592   2.775  18.827  0.00  0.00    +0.000 C 
ENDBRANCH   1  15
BRANCH   3  18
ATOM     18  C   UNL     1       7.158   6.409  18.027  0.00  0.00    +0.000 A 
ATOM     19  C   UNL     1       6.687   7.443  17.204  0.00  0.00    +0.000 A 
ATOM     20  C   UNL     1       7.230   8.729  17.294  0.00  0.00    +0.000 A 
ATOM     21  C   UNL     1       8.247   8.988  18.204  0.00  0.00    +0.000 A 
ATOM     22  F   UNL     1       8.767  10.219  18.289  0.00  0.00    +0.000 F 
ATOM     23  C   UNL     1       8.738   7.980  19.023  0.00  0.00    +0.000 A 
ATOM     24  C   UNL     1       8.200   6.695  18.929  0.00  0.00    +0.000 A 
ENDBRANCH   3  18
TORSDOF 2
ENDMDL
MODEL 3
REMARK VINA RESULT:      -8.2      3.074      5.600
REMARK  Name = 
REMARK  3 active torsions:
REMARK  status: ('A' for Active; 'I' for Inactive)
REMARK    1  A    between atoms: C_1  and  N_2
REMARK    2  A    between atoms: N_5  and  C_6
REMARK    3  A    between atoms: C_8  and  C_9
REMARK                            x       y       z     vdW  Elec       q    Type
REMARK                         _______ _______ _______ _____ _____    ______ ____
ROOT
ATOM      1  C   UNL     1       3.020   4.001  17.249  0.00  0.00    +0.000 C 
ATOM      2  C   UNL     1       2.240   4.908  18.250  0.00  0.00    +0.000 C 
ATOM      3  C   UNL     1       3.197   5.956  18.872  0.00  0.00    +0.000 C 
ATOM      4  C   UNL     1       4.417   5.829  17.999  0.00  0.00    +0.000 A 
ATOM      5  C   UNL     1       5.605   6.546  18.110  0.00  0.00    +0.000 A 
ATOM      6  C   UNL     1       6.580   6.365  17.133  0.00  0.00    +0.000 A 
ATOM      7  C   UNL     1       6.329   5.520  16.050  0.00  0.00    +0.000 A 
ATOM      8  F   UNL     1       7.261   5.380  15.098  0.00  0.00    +0.000 F 
ATOM      9  C   UNL     1       5.151   4.787  15.958  0.00  0.00    +0.000 A 
ATOM     10  C   UNL     1       4.227   4.879  16.991  0.00  0.00    +0.000 A 
ENDROOT
BRANCH   1  15
ATOM     11  C   UNL     1       1.375   2.654  21.723  0.00  0.00    +0.000 C 
ATOM     12  N   UNL     1       2.179   2.227  20.580  0.00  0.00    +0.000 NA
ATOM     13  C   UNL     1       3.355   3.095  20.403  0.00  0.00    +0.000 C 
ATOM     14  C   UNL     1       4.163   2.807  19.110  0.00  0.00    +0.000 C 
ATOM     15  N   UNL     1       3.387   2.695  17.849  0.00  0.00    +0.000 NA
ATOM     16  C   UNL     1       2.248   1.789  18.134  0.00  0.00    +0.000 C 
ATOM     17  C   UNL     1       1.379   2.193  19.346  0.00  0.00    +0.000 C 
ENDBRANCH   1  15
BRANCH   3  18
ATOM     18  C   UNL     1       2.545   7.345  18.861  0.00  0.00    +0.000 A 
ATOM     19  C   UNL     1       1.871   7.804  20.004  0.00  0.00    +0.000 A 
ATOM     20  C   UNL     1       1.230   9.047  20.002  0.00  0.00    +0.000 A 
ATOM     21  C   UNL     1       1.256   9.837  18.860  0.00  0.00    +0.000 A 
ATOM     22  F   UNL     1       0.641  11.026  18.859  0.00  0.00    +0.000 F 
ATOM     23  C   UNL     1       1.907   9.403  17.713  0.00  0.00    +0.000 A 
ATOM     24  C   UNL     1       2.542   8.159  17.712  0.00  0.00    +0.000 A 
ENDBRANCH   3  18
TORSDOF 2
ENDMDL
MODEL 4
REMARK VINA RESULT:      -8.2      0.908      1.468
REMARK  Name = 
REMARK  3 active torsions:
REMARK  status: ('A' for Active; 'I' for Inactive)
REMARK    1  A    between atoms: C_1  and  N_2
REMARK    2  A    between atoms: N_5  and  C_6
REMARK    3  A    between atoms: C_8  and  C_9
REMARK                            x       y       z     vdW  Elec       q    Type
REMARK                         _______ _______ _______ _____ _____    ______ ____
ROOT
ATOM      1  C   UNL     1       4.843   4.385  18.110  0.00  0.00    +0.000 C 
ATOM      2  C   UNL     1       4.459   4.219  16.607  0.00  0.00    +0.000 C 
ATOM      3  C   UNL     1       5.089   5.361  15.770  0.00  0.00    +0.000 C 
ATOM      4  C   UNL     1       6.057   5.973  16.747  0.00  0.00    +0.000 A 
ATOM      5  C   UNL     1       6.902   7.057  16.522  0.00  0.00    +0.000 A 
ATOM      6  C   UNL     1       7.810   7.405  17.518  0.00  0.00    +0.000 A 
ATOM      7  C   UNL     1       7.889   6.639  18.684  0.00  0.00    +0.000 A 
ATOM      8  F   UNL     1       8.791   6.963  19.620  0.00  0.00    +0.000 F 
ATOM      9  C   UNL     1       7.025   5.574  18.913  0.00  0.00    +0.000 A 
ATOM     10  C   UNL     1       6.043   5.298  17.971  0.00  0.00    +0.000 A 
ENDROOT
BRANCH   1  15
ATOM     11  C   UNL     1       0.531   2.054  18.825  0.00  0.00    +0.000 C 
ATOM     12  N   UNL     1       1.283   3.270  19.126  0.00  0.00    +0.000 NA
ATOM     13  C   UNL     1       1.569   4.035  17.902  0.00  0.00    +0.000 C 
ATOM     14  C   UNL     1       2.509   5.250  18.122  0.00  0.00    +0.000 C 
ATOM     15  N   UNL     1       3.749   5.002  18.900  0.00  0.00    +0.000 NA
ATOM     16  C   UNL     1       3.344   4.249  20.112  0.00  0.00    +0.000 C 
ATOM     17  C   UNL     1       2.531   2.963  19.841  0.00  0.00    +0.000 C 
ENDBRANCH   1  15
BRANCH   3  18
ATOM     18  C   UNL     1       5.734   4.796  14.498  0.00  0.00    +0.000 A 
ATOM     19  C   UNL     1       5.021   3.884  13.705  0.00  0.00    +0.000 A 
ATOM     20  C   UNL     1       5.607   3.320  12.566  0.00  0.00    +0.000 A 
ATOM     21  C   UNL     1       6.906   3.663  12.215  0.00  0.00    +0.000 A 
ATOM     22  F   UNL     1       7.466   3.122  11.126  0.00  0.00    +0.000 F 
ATOM     23  C   UNL     1       7.637   4.555  12.988  0.00  0.00    +0.000 A 
ATOM     24  C   UNL     1       7.055   5.114  14.128  0.00  0.00    +0.000 A 
ENDBRANCH   3  18
TORSDOF 2
ENDMDL
MODEL 5
REMARK VINA RESULT:      -7.8      3.665      7.342
REMARK  Name = 
REMARK  3 active torsions:
REMARK  status: ('A' for Active; 'I' for Inactive)
REMARK    1  A    between atoms: C_1  and  N_2
REMARK    2  A    between atoms: N_5  and  C_6
REMARK    3  A    between atoms: C_8  and  C_9
REMARK                            x       y       z     vdW  Elec       q    Type
REMARK                         _______ _______ _______ _____ _____    ______ ____
ROOT
ATOM      1  C   UNL     1       4.930   5.151  19.177  0.00  0.00    +0.000 C 
ATOM      2  C   UNL     1       4.432   6.626  19.064  0.00  0.00    +0.000 C 
ATOM      3  C   UNL     1       3.036   6.664  18.391  0.00  0.00    +0.000 C 
ATOM      4  C   UNL     1       2.635   5.213  18.412  0.00  0.00    +0.000 A 
ATOM      5  C   UNL     1       1.452   4.664  17.924  0.00  0.00    +0.000 A 
ATOM      6  C   UNL     1       1.215   3.309  18.139  0.00  0.00    +0.000 A 
ATOM      7  C   UNL     1       2.129   2.552  18.874  0.00  0.00    +0.000 A 
ATOM      8  F   UNL     1       1.873   1.257  19.104  0.00  0.00    +0.000 F 
ATOM      9  C   UNL     1       3.321   3.100  19.336  0.00  0.00    +0.000 A 
ATOM     10  C   UNL     1       3.612   4.421  19.023  0.00  0.00    +0.000 A 
ENDROOT
BRANCH   1  15
ATOM     11  C   UNL     1       8.170   8.474  17.446  0.00  0.00    +0.000 C 
ATOM     12  N   UNL     1       7.718   7.089  17.329  0.00  0.00    +0.000 NA
ATOM     13  C   UNL     1       6.329   7.022  16.848  0.00  0.00    +0.000 C 
ATOM     14  C   UNL     1       5.725   5.592  16.860  0.00  0.00    +0.000 C 
ATOM     15  N   UNL     1       5.897   4.806  18.108  0.00  0.00    +0.000 NA
ATOM     16  C   UNL     1       7.326   4.925  18.487  0.00  0.00    +0.000 C 
ATOM     17  C   UNL     1       7.852   6.373  18.606  0.00  0.00    +0.000 C 
ENDBRANCH   1  15
BRANCH   3  18
ATOM     18  C   UNL     1       2.098   7.598  19.165  0.00  0.00    +0.000 A 
ATOM     19  C   UNL     1       1.634   8.775  18.556  0.00  0.00    +0.000 A 
ATOM     20  C   UNL     1       0.814   9.665  19.258  0.00  0.00    +0.000 A 
ATOM     21  C   UNL     1       0.455   9.387  20.571  0.00  0.00    +0.000 A 
ATOM     22  F   UNL     1      -0.328  10.239  21.242  0.00  0.00    +0.000 F 
ATOM     23  C   UNL     1       0.908   8.234  21.200  0.00  0.00    +0.000 A 
ATOM     24  C   UNL     1       1.731   7.348  20.501  0.00  0.00    +0.000 A 
ENDBRANCH   3  18
TORSDOF 2
ENDMDL
MODEL 6
REMARK VINA RESULT:      -7.2      3.561      6.889
REMARK  Name = 
REMARK  3 active torsions:
REMARK  status: ('A' for Active; 'I' for Inactive)
REMARK    1  A    between atoms: C_1  and  N_2
REMARK    2  A    between atoms: N_5  and  C_6
REMARK    3  A    between atoms: C_8  and  C_9
REMARK                            x       y       z     vdW  Elec       q    Type
REMARK                         _______ _______ _______ _____ _____    ______ ____
ROOT
ATOM      1  C   UNL     1       4.829   4.903  19.662  0.00  0.00    +0.000 C 
ATOM      2  C   UNL     1       4.446   6.198  18.879  0.00  0.00    +0.000 C 
ATOM      3  C   UNL     1       2.959   6.133  18.446  0.00  0.00    +0.000 C 
ATOM      4  C   UNL     1       2.447   4.963  19.241  0.00  0.00    +0.000 A 
ATOM      5  C   UNL     1       1.153   4.449  19.238  0.00  0.00    +0.000 A 
ATOM      6  C   UNL     1       0.845   3.428  20.133  0.00  0.00    +0.000 A 
ATOM      7  C   UNL     1       1.811   2.983  21.037  0.00  0.00    +0.000 A 
ATOM      8  F   UNL     1       1.493   2.023  21.917  0.00  0.00    +0.000 F 
ATOM      9  C   UNL     1       3.109   3.482  21.019  0.00  0.00    +0.000 A 
ATOM     10  C   UNL     1       3.448   4.418  20.051  0.00  0.00    +0.000 A 
ENDROOT
BRANCH   1  15
ATOM     11  C   UNL     1       5.498   5.699  14.818  0.00  0.00    +0.000 C 
ATOM     12  N   UNL     1       5.771   4.772  15.914  0.00  0.00    +0.000 NA
ATOM     13  C   UNL     1       4.525   4.203  16.453  0.00  0.00    +0.000 C 
ATOM     14  C   UNL     1       4.724   3.341  17.727  0.00  0.00    +0.000 C 
ATOM     15  N   UNL     1       5.553   3.930  18.809  0.00  0.00    +0.000 NA
ATOM     16  C   UNL     1       6.783   4.449  18.162  0.00  0.00    +0.000 C 
ATOM     17  C   UNL     1       6.541   5.422  16.985  0.00  0.00    +0.000 C 
ENDBRANCH   1  15
BRANCH   3  18
ATOM     18  C   UNL     1       2.260   7.466  18.745  0.00  0.00    +0.000 A 
ATOM     19  C   UNL     1       1.841   7.751  20.054  0.00  0.00    +0.000 A 
ATOM     20  C   UNL     1       1.160   8.938  20.342  0.00  0.00    +0.000 A 
ATOM     21  C   UNL     1       0.894   9.847  19.325  0.00  0.00    +0.000 A 
ATOM     22  F   UNL     1       0.242  10.983  19.601  0.00  0.00    +0.000 F 
ATOM     23  C   UNL     1       1.289   9.585  18.020  0.00  0.00    +0.000 A 
ATOM     24  C   UNL     1       1.963   8.396  17.731  0.00  0.00    +0.000 A 
ENDBRANCH   3  18
TORSDOF 2
ENDMDL
MODEL 7
REMARK VINA RESULT:      -7.2      9.777     11.711
REMARK  Name = 
REMARK  3 active torsions:
REMARK  status: ('A' for Active; 'I' for Inactive)
REMARK    1  A    between atoms: C_1  and  N_2
REMARK    2  A    between atoms: N_5  and  C_6
REMARK    3  A    between atoms: C_8  and  C_9
REMARK                            x       y       z     vdW  Elec       q    Type
REMARK                         _______ _______ _______ _____ _____    ______ ____
ROOT
ATOM      1  C   UNL     1      -2.561  12.943  22.076  0.00  0.00    +0.000 C 
ATOM      2  C   UNL     1      -2.764  13.103  20.537  0.00  0.00    +0.000 C 
ATOM      3  C   UNL     1      -1.632  12.369  19.775  0.00  0.00    +0.000 C 
ATOM      4  C   UNL     1      -0.987  11.558  20.867  0.00  0.00    +0.000 A 
ATOM      5  C   UNL     1       0.101  10.698  20.742  0.00  0.00    +0.000 A 
ATOM      6  C   UNL     1       0.481   9.947  21.851  0.00  0.00    +0.000 A 
ATOM      7  C   UNL     1      -0.258  10.031  23.033  0.00  0.00    +0.000 A 
ATOM      8  F   UNL     1       0.096   9.278  24.083  0.00  0.00    +0.000 F 
ATOM      9  C   UNL     1      -1.329  10.910  23.159  0.00  0.00    +0.000 A 
ATOM     10  C   UNL     1      -1.636  11.743  22.092  0.00  0.00    +0.000 A 
ENDROOT
BRANCH   1  15
ATOM     11  C   UNL     1      -5.289  16.399  24.346  0.00  0.00    +0.000 C 
ATOM     12  N   UNL     1      -3.926  16.014  23.989  0.00  0.00    +0.000 NA
ATOM     13  C   UNL     1      -3.745  15.988  22.528  0.00  0.00    +0.000 C 
ATOM     14  C   UNL     1      -2.374  15.425  22.071  0.00  0.00    +0.000 C 
ATOM     15  N   UNL     1      -1.940  14.144  22.685  0.00  0.00    +0.000 NA
ATOM     16  C   UNL     1      -2.143  14.288  24.147  0.00  0.00    +0.000 C 
ATOM     17  C   UNL     1      -3.568  14.711  24.570  0.00  0.00    +0.000 C 
ENDBRANCH   1  15
BRANCH   3  18
ATOM     18  C   UNL     1      -2.216  11.540  18.623  0.00  0.00    +0.000 A 
ATOM     19  C   UNL     1      -1.393  10.641  17.927  0.00  0.00    +0.000 A 
ATOM     20  C   UNL     1      -1.892   9.910  16.845  0.00  0.00    +0.000 A 
ATOM     21  C   UNL     1      -3.214  10.073  16.450  0.00  0.00    +0.000 A 
ATOM     22  F   UNL     1      -3.690   9.373  15.413  0.00  0.00    +0.000 F 
ATOM     23  C   UNL     1      -4.047  10.962  17.116  0.00  0.00    +0.000 A 
ATOM     24  C   UNL     1      -3.548  11.697  18.193  0.00  0.00    +0.000 A 
ENDBRANCH   3  18
TORSDOF 2
ENDMDL
MODEL 8
REMARK VINA RESULT:      -7.2      9.652     11.609
REMARK  Name = 
REMARK  3 active torsions:
REMARK  status: ('A' for Active; 'I' for Inactive)
REMARK    1  A    between atoms: C_1  and  N_2
REMARK    2  A    between atoms: N_5  and  C_6
REMARK    3  A    between atoms: C_8  and  C_9
REMARK                            x       y       z     vdW  Elec       q    Type
REMARK                         _______ _______ _______ _____ _____    ______ ____
ROOT
ATOM      1  C   UNL     1      -2.280  13.015  22.000  0.00  0.00    +0.000 C 
ATOM      2  C   UNL     1      -2.431  13.169  20.455  0.00  0.00    +0.000 C 
ATOM      3  C   UNL     1      -1.336  12.344  19.732  0.00  0.00    +0.000 C 
ATOM      4  C   UNL     1      -0.781  11.504  20.850  0.00  0.00    +0.000 A 
ATOM      5  C   UNL     1       0.245  10.566  20.764  0.00  0.00    +0.000 A 
ATOM      6  C   UNL     1       0.540   9.805  21.892  0.00  0.00    +0.000 A 
ATOM      7  C   UNL     1      -0.221   9.958  23.052  0.00  0.00    +0.000 A 
ATOM      8  F   UNL     1       0.050   9.196  24.120  0.00  0.00    +0.000 F 
ATOM      9  C   UNL     1      -1.228  10.914  23.140  0.00  0.00    +0.000 A 
ATOM     10  C   UNL     1      -1.446  11.752  22.055  0.00  0.00    +0.000 A 
ENDROOT
BRANCH   1  15
ATOM     11  C   UNL     1      -4.765  16.451  24.562  0.00  0.00    +0.000 C 
ATOM     12  N   UNL     1      -3.438  16.045  24.105  0.00  0.00    +0.000 NA
ATOM     13  C   UNL     1      -3.350  16.071  22.636  0.00  0.00    +0.000 C 
ATOM     14  C   UNL     1      -2.026  15.491  22.073  0.00  0.00    +0.000 C 
ATOM     15  N   UNL     1      -1.590  14.177  22.611  0.00  0.00    +0.000 NA
ATOM     16  C   UNL     1      -1.697  14.270  24.088  0.00  0.00    +0.000 C 
ATOM     17  C   UNL     1      -3.081  14.713  24.615  0.00  0.00    +0.000 C 
ENDBRANCH   1  15
BRANCH   3  18
ATOM     18  C   UNL     1      -1.949  11.545  18.574  0.00  0.00    +0.000 A 
ATOM     19  C   UNL     1      -3.297  11.739  18.235  0.00  0.00    +0.000 A 
ATOM     20  C   UNL     1      -3.890  10.988  17.214  0.00  0.00    +0.000 A 
ATOM     21  C   UNL     1      -3.142  10.041  16.528  0.00  0.00    +0.000 A 
ATOM     22  F   UNL     1      -3.710   9.322  15.552  0.00  0.00    +0.000 F 
ATOM     23  C   UNL     1      -1.808   9.823  16.850  0.00  0.00    +0.000 A 
ATOM     24  C   UNL     1      -1.218  10.567  17.874  0.00  0.00    +0.000 A 
ENDBRANCH   3  18
TORSDOF 2
ENDMDL
MODEL 9
REMARK VINA RESULT:      -7.0      3.490      6.858
REMARK  Name = 
REMARK  3 active torsions:
REMARK  status: ('A' for Active; 'I' for Inactive)
REMARK    1  A    between atoms: C_1  and  N_2
REMARK    2  A    between atoms: N_5  and  C_6
REMARK    3  A    between atoms: C_8  and  C_9
REMARK                            x       y       z     vdW  Elec       q    Type
REMARK                         _______ _______ _______ _____ _____    ______ ____
ROOT
ATOM      1  C   UNL     1       4.942   4.744  19.409  0.00  0.00    +0.000 C 
ATOM      2  C   UNL     1       4.657   6.211  18.957  0.00  0.00    +0.000 C 
ATOM      3  C   UNL     1       3.343   6.266  18.138  0.00  0.00    +0.000 C 
ATOM      4  C   UNL     1       2.751   4.907  18.394  0.00  0.00    +0.000 A 
ATOM      5  C   UNL     1       1.552   4.406  17.893  0.00  0.00    +0.000 A 
ATOM      6  C   UNL     1       1.118   3.161  18.339  0.00  0.00    +0.000 A 
ATOM      7  C   UNL     1       1.856   2.473  19.304  0.00  0.00    +0.000 A 
ATOM      8  F   UNL     1       1.410   1.291  19.751  0.00  0.00    +0.000 F 
ATOM      9  C   UNL     1       3.065   2.966  19.782  0.00  0.00    +0.000 A 
ATOM     10  C   UNL     1       3.556   4.152  19.253  0.00  0.00    +0.000 A 
ENDROOT
BRANCH   1  15
ATOM     11  C   UNL     1       5.632   6.138  14.706  0.00  0.00    +0.000 C 
ATOM     12  N   UNL     1       6.083   5.216  15.745  0.00  0.00    +0.000 NA
ATOM     13  C   UNL     1       5.007   4.293  16.142  0.00  0.00    +0.000 C 
ATOM     14  C   UNL     1       5.361   3.397  17.359  0.00  0.00    +0.000 C 
ATOM     15  N   UNL     1       5.944   4.078  18.542  0.00  0.00    +0.000 NA
ATOM     16  C   UNL     1       7.023   4.960  18.033  0.00  0.00    +0.000 C 
ATOM     17  C   UNL     1       6.593   5.941  16.919  0.00  0.00    +0.000 C 
ENDBRANCH   1  15
BRANCH   3  18
ATOM     18  C   UNL     1       2.474   7.441  18.605  0.00  0.00    +0.000 A 
ATOM     19  C   UNL     1       2.156   8.471  17.706  0.00  0.00    +0.000 A 
ATOM     20  C   UNL     1       1.405   9.575  18.122  0.00  0.00    +0.000 A 
ATOM     21  C   UNL     1       0.967   9.657  19.438  0.00  0.00    +0.000 A 
ATOM     22  F   UNL     1       0.248  10.713  19.835  0.00  0.00    +0.000 F 
ATOM     23  C   UNL     1       1.274   8.656  20.350  0.00  0.00    +0.000 A 
ATOM     24  C   UNL     1       2.031   7.557  19.937  0.00  0.00    +0.000 A 
ENDBRANCH   3  18
TORSDOF 2
ENDMDL
