MODEL 1
REMARK VINA RESULT:      -7.5      0.000      0.000
REMARK  Name = 
REMARK  8 active torsions:
REMARK  status: ('A' for Active; 'I' for Inactive)
REMARK    1  A    between atoms: C_1  and  O_2
REMARK    2  A    between atoms: O_2  and  C_3
REMARK    3  A    between atoms: C_3  and  C_5
REMARK    4  A    between atoms: C_5  and  N_6
REMARK    5  A    between atoms: C_7  and  C_9
REMARK    6  A    between atoms: C_9  and  N_10
REMARK    7  A    between atoms: N_13  and  C_14
REMARK    8  A    between atoms: C_14  and  C_15
REMARK                            x       y       z     vdW  Elec       q    Type
REMARK                         _______ _______ _______ _____ _____    ______ ____
ROOT
ATOM      1  N   UNL     1       3.586   4.642  17.372  0.00  0.00    +0.000 N 
ATOM      2  C   UNL     1       3.566   5.973  17.805  0.00  0.00    +0.000 A 
ATOM      3  O   UNL     1       4.136   6.848  17.144  0.00  0.00    +0.000 OA
ATOM      4  N   UNL     1       2.884   6.266  18.987  0.00  0.00    +0.000 N 
ATOM      5  C   UNL     1       2.235   5.325  19.793  0.00  0.00    +0.000 A 
ATOM      6  O   UNL     1       1.681   5.622  20.850  0.00  0.00    +0.000 OA
ATOM      7  C   UNL     1       2.308   3.984  19.281  0.00  0.00    +0.000 A 
ATOM      8  S   UNL     1       1.638   2.646  20.084  0.00  0.00    +0.000 S 
ATOM      9  C   UNL     1       2.175   1.582  18.855  0.00  0.00    +0.000 A 
ATOM     10  C   UNL     1       2.850   2.251  17.852  0.00  0.00    +0.000 A 
ATOM     11  C   UNL     1       2.947   3.651  18.116  0.00  0.00    +0.000 A 
ENDROOT
BRANCH   1  12
ATOM     12  C   UNL     1       4.288   4.339  16.119  0.00  0.00    +0.000 C 
BRANCH  12  14
ATOM     13  N   UNL     1       6.222   4.607  17.602  0.00  0.00    +0.000 N 
ATOM     14  C   UNL     1       5.797   4.471  16.302  0.00  0.00    +0.000 C 
ATOM     15  O   UNL     1       6.574   4.412  15.350  0.00  0.00    +0.000 OA
ATOM     16  H   UNL     1       5.548   4.523  18.362  0.00  0.00    +0.000 HD
BRANCH  13  17
ATOM     17  C   UNL     1       7.623   4.762  17.950  0.00  0.00    +0.000 C 
BRANCH  17  18
ATOM     18  C   UNL     1       7.778   5.722  19.119  0.00  0.00    +0.000 C 
ATOM     19  O   UNL     1       7.483   5.454  20.277  0.00  0.00    +0.000 OA
BRANCH  18  21
ATOM     20  C   UNL     1       7.601   7.537  17.646  0.00  0.00    +0.000 C 
ATOM     21  O   UNL     1       8.326   6.896  18.698  0.00  0.00    +0.000 OA
ENDBRANCH  18  21
ENDBRANCH  17  18
ENDBRANCH  13  17
ENDBRANCH  12  14
ENDBRANCH   1  12
BRANCH   4  22
ATOM     22  C   UNL     1       2.955   7.631  19.488  0.00  0.00    +0.000 C 
BRANCH  22  23
ATOM     23  C   UNL     1       1.705   8.463  19.283  0.00  0.00    +0.000 A 
ATOM     24  C   UNL     1       0.932   8.886  20.376  0.00  0.00    +0.000 A 
ATOM     25  C   UNL     1      -0.126   9.781  20.194  0.00  0.00    +0.000 A 
ATOM     26  C   UNL     1      -0.423  10.245  18.919  0.00  0.00    +0.000 A 
ATOM     27  F   UNL     1      -1.406  11.139  18.752  0.00  0.00    +0.000 F 
ATOM     28  C   UNL     1       0.299   9.804  17.818  0.00  0.00    +0.000 A 
ATOM     29  C   UNL     1       1.355   8.908  17.997  0.00  0.00    +0.000 A 
ENDBRANCH  22  23
ENDBRANCH   4  22
TORSDOF 7
ENDMDL
MODEL 2
REMARK VINA RESULT:      -7.2      3.774      7.078
REMARK  Name = 
REMARK  8 active torsions:
REMARK  status: ('A' for Active; 'I' for Inactive)
REMARK    1  A    between atoms: C_1  and  O_2
REMARK    2  A    between atoms: O_2  and  C_3
REMARK    3  A    between atoms: C_3  and  C_5
REMARK    4  A    between atoms: C_5  and  N_6
REMARK    5  A    between atoms: C_7  and  C_9
REMARK    6  A    between atoms: C_9  and  N_10
REMARK    7  A    between atoms: N_13  and  C_14
REMARK    8  A    between atoms: C_14  and  C_15
REMARK                            x       y       z     vdW  Elec       q    Type
REMARK                         _______ _______ _______ _____ _____    ______ ____
ROOT
ATOM      1  N   UNL     1       5.259   5.083  18.555  0.00  0.00    +0.000 N 
ATOM      2  C   UNL     1       6.135   4.963  17.469  0.00  0.00    +0.000 A 
ATOM      3  O   UNL     1       7.064   4.150  17.511  0.00  0.00    +0.000 OA
ATOM      4  N   UNL     1       5.916   5.779  16.359  0.00  0.00    +0.000 N 
ATOM      5  C   UNL     1       4.898   6.733  16.252  0.00  0.00    +0.000 A 
ATOM      6  O   UNL     1       4.767   7.460  15.270  0.00  0.00    +0.000 OA
ATOM      7  C   UNL     1       4.049   6.797  17.410  0.00  0.00    +0.000 A 
ATOM      8  S   UNL     1       2.762   7.894  17.558  0.00  0.00    +0.000 S 
ATOM      9  C   UNL     1       2.374   7.300  19.116  0.00  0.00    +0.000 A 
ATOM     10  C   UNL     1       3.219   6.278  19.503  0.00  0.00    +0.000 A 
ATOM     11  C   UNL     1       4.211   6.003  18.514  0.00  0.00    +0.000 A 
ENDROOT
BRANCH   1  12
ATOM     12  C   UNL     1       5.481   4.212  19.715  0.00  0.00    +0.000 C 
BRANCH  12  14
ATOM     13  N   UNL     1       3.669   2.966  18.631  0.00  0.00    +0.000 N 
ATOM     14  C   UNL     1       4.638   2.944  19.606  0.00  0.00    +0.000 C 
ATOM     15  O   UNL     1       4.851   1.961  20.313  0.00  0.00    +0.000 OA
ATOM     16  H   UNL     1       3.619   3.757  17.990  0.00  0.00    +0.000 HD
BRANCH  13  17
ATOM     17  C   UNL     1       2.770   1.849  18.404  0.00  0.00    +0.000 C 
BRANCH  17  18
ATOM     18  C   UNL     1       1.412   2.121  19.033  0.00  0.00    +0.000 C 
ATOM     19  O   UNL     1       0.366   2.219  18.403  0.00  0.00    +0.000 OA
BRANCH  18  21
ATOM     20  C   UNL     1       1.164   3.470  20.935  0.00  0.00    +0.000 C 
ATOM     21  O   UNL     1       1.526   2.200  20.388  0.00  0.00    +0.000 OA
ENDBRANCH  18  21
ENDBRANCH  17  18
ENDBRANCH  13  17
ENDBRANCH  12  14
ENDBRANCH   1  12
BRANCH   4  22
ATOM     22  C   UNL     1       6.890   5.726  15.278  0.00  0.00    +0.000 C 
BRANCH  22  23
ATOM     23  C   UNL     1       6.574   4.742  14.168  0.00  0.00    +0.000 A 
ATOM     24  C   UNL     1       5.375   4.010  14.173  0.00  0.00    +0.000 A 
ATOM     25  C   UNL     1       5.017   3.225  13.074  0.00  0.00    +0.000 A 
ATOM     26  C   UNL     1       5.861   3.160  11.972  0.00  0.00    +0.000 A 
ATOM     27  F   UNL     1       5.495   2.445  10.899  0.00  0.00    +0.000 F 
ATOM     28  C   UNL     1       7.072   3.837  11.965  0.00  0.00    +0.000 A 
ATOM     29  C   UNL     1       7.434   4.620  13.064  0.00  0.00    +0.000 A 
ENDBRANCH  22  23
ENDBRANCH   4  22
TORSDOF 7
ENDMDL
MODEL 3
REMARK VINA RESULT:      -7.1      3.215      6.786
REMARK  Name = 
REMARK  8 active torsions:
REMARK  status: ('A' for Active; 'I' for Inactive)
REMARK    1  A    between atoms: C_1  and  O_2
REMARK    2  A    between atoms: O_2  and  C_3
REMARK    3  A    between atoms: C_3  and  C_5
REMARK    4  A    between atoms: C_5  and  N_6
REMARK    5  A    between atoms: C_7  and  C_9
REMARK    6  A    between atoms: C_9  and  N_10
REMARK    7  A    between atoms: N_13  and  C_14
REMARK    8  A    between atoms: C_14  and  C_15
REMARK                            x       y       z     vdW  Elec       q    Type
REMARK                         _______ _______ _______ _____ _____    ______ ____
ROOT
ATOM      1  N   UNL     1       2.592   6.184  18.707  0.00  0.00    +0.000 N 
ATOM      2  C   UNL     1       3.866   6.368  18.154  0.00  0.00    +0.000 A 
ATOM      3  O   UNL     1       4.086   7.334  17.416  0.00  0.00    +0.000 OA
ATOM      4  N   UNL     1       4.857   5.438  18.471  0.00  0.00    +0.000 N 
ATOM      5  C   UNL     1       4.672   4.313  19.281  0.00  0.00    +0.000 A 
ATOM      6  O   UNL     1       5.565   3.496  19.500  0.00  0.00    +0.000 OA
ATOM      7  C   UNL     1       3.338   4.195  19.802  0.00  0.00    +0.000 A 
ATOM      8  S   UNL     1       2.835   2.903  20.782  0.00  0.00    +0.000 S 
ATOM      9  C   UNL     1       1.251   3.544  20.894  0.00  0.00    +0.000 A 
ATOM     10  C   UNL     1       1.124   4.728  20.194  0.00  0.00    +0.000 A 
ATOM     11  C   UNL     1       2.338   5.093  19.538  0.00  0.00    +0.000 A 
ENDROOT
BRANCH   1  12
ATOM     12  C   UNL     1       1.556   7.173  18.387  0.00  0.00    +0.000 C 
BRANCH  12  14
ATOM     13  N   UNL     1       1.359   8.124  20.638  0.00  0.00    +0.000 N 
ATOM     14  C   UNL     1       1.655   8.377  19.320  0.00  0.00    +0.000 C 
ATOM     15  O   UNL     1       2.020   9.480  18.918  0.00  0.00    +0.000 OA
ATOM     16  H   UNL     1       1.186   7.166  20.939  0.00  0.00    +0.000 HD
BRANCH  13  17
ATOM     17  C   UNL     1       1.387   9.161  21.654  0.00  0.00    +0.000 C 
BRANCH  17  18
ATOM     18  C   UNL     1       0.043   9.255  22.357  0.00  0.00    +0.000 C 
ATOM     19  O   UNL     1      -0.783   8.351  22.393  0.00  0.00    +0.000 OA
BRANCH  18  21
ATOM     20  C   UNL     1      -0.207  11.568  22.065  0.00  0.00    +0.000 C 
ATOM     21  O   UNL     1      -0.089  10.466  22.967  0.00  0.00    +0.000 OA
ENDBRANCH  18  21
ENDBRANCH  17  18
ENDBRANCH  13  17
ENDBRANCH  12  14
ENDBRANCH   1  12
BRANCH   4  22
ATOM     22  C   UNL     1       6.148   5.574  17.811  0.00  0.00    +0.000 C 
BRANCH  22  23
ATOM     23  C   UNL     1       6.235   4.964  16.426  0.00  0.00    +0.000 A 
ATOM     24  C   UNL     1       5.219   4.123  15.942  0.00  0.00    +0.000 A 
ATOM     25  C   UNL     1       5.227   3.691  14.613  0.00  0.00    +0.000 A 
ATOM     26  C   UNL     1       6.254   4.089  13.767  0.00  0.00    +0.000 A 
ATOM     27  F   UNL     1       6.236   3.714  12.481  0.00  0.00    +0.000 F 
ATOM     28  C   UNL     1       7.293   4.881  14.236  0.00  0.00    +0.000 A 
ATOM     29  C   UNL     1       7.290   5.311  15.565  0.00  0.00    +0.000 A 
ENDBRANCH  22  23
ENDBRANCH   4  22
TORSDOF 7
ENDMDL
MODEL 4
REMARK VINA RESULT:      -7.0      0.508      1.044
REMARK  Name = 
REMARK  8 active torsions:
REMARK  status: ('A' for Active; 'I' for Inactive)
REMARK    1  A    between atoms: C_1  and  O_2
REMARK    2  A    between atoms: O_2  and  C_3
REMARK    3  A    between atoms: C_3  and  C_5
REMARK    4  A    between atoms: C_5  and  N_6
REMARK    5  A    between atoms: C_7  and  C_9
REMARK    6  A    between atoms: C_9  and  N_10
REMARK    7  A    between atoms: N_13  and  C_14
REMARK    8  A    between atoms: C_14  and  C_15
REMARK                            x       y       z     vdW  Elec       q    Type
REMARK                         _______ _______ _______ _____ _____    ______ ____
ROOT
ATOM      1  N   UNL     1       3.326   4.592  17.410  0.00  0.00    +0.000 N 
ATOM      2  C   UNL     1       3.423   5.935  17.799  0.00  0.00    +0.000 A 
ATOM      3  O   UNL     1       4.048   6.738  17.098  0.00  0.00    +0.000 OA
ATOM      4  N   UNL     1       2.792   6.320  18.982  0.00  0.00    +0.000 N 
ATOM      5  C   UNL     1       2.086   5.461  19.832  0.00  0.00    +0.000 A 
ATOM      6  O   UNL     1       1.581   5.837  20.888  0.00  0.00    +0.000 OA
ATOM      7  C   UNL     1       2.040   4.103  19.364  0.00  0.00    +0.000 A 
ATOM      8  S   UNL     1       1.281   2.851  20.224  0.00  0.00    +0.000 S 
ATOM      9  C   UNL     1       1.704   1.707  19.022  0.00  0.00    +0.000 A 
ATOM     10  C   UNL     1       2.409   2.287  17.985  0.00  0.00    +0.000 A 
ATOM     11  C   UNL     1       2.624   3.682  18.200  0.00  0.00    +0.000 A 
ENDROOT
BRANCH   1  12
ATOM     12  C   UNL     1       3.974   4.193  16.156  0.00  0.00    +0.000 C 
BRANCH  12  14
ATOM     13  N   UNL     1       6.041   4.268  17.473  0.00  0.00    +0.000 N 
ATOM     14  C   UNL     1       5.480   4.430  16.229  0.00  0.00    +0.000 C 
ATOM     15  O   UNL     1       6.143   4.700  15.229  0.00  0.00    +0.000 OA
ATOM     16  H   UNL     1       5.468   3.920  18.241  0.00  0.00    +0.000 HD
BRANCH  13  17
ATOM     17  C   UNL     1       7.457   4.472  17.721  0.00  0.00    +0.000 C 
BRANCH  17  18
ATOM     18  C   UNL     1       7.707   5.869  18.264  0.00  0.00    +0.000 C 
ATOM     19  O   UNL     1       7.845   6.134  19.452  0.00  0.00    +0.000 OA
BRANCH  18  21
ATOM     20  C   UNL     1       7.741   8.133  17.656  0.00  0.00    +0.000 C 
ATOM     21  O   UNL     1       7.794   6.766  17.243  0.00  0.00    +0.000 OA
ENDBRANCH  18  21
ENDBRANCH  17  18
ENDBRANCH  13  17
ENDBRANCH  12  14
ENDBRANCH   1  12
BRANCH   4  22
ATOM     22  C   UNL     1       2.984   7.690  19.436  0.00  0.00    +0.000 C 
BRANCH  22  23
ATOM     23  C   UNL     1       1.800   8.614  19.227  0.00  0.00    +0.000 A 
ATOM     24  C   UNL     1       1.379   8.967  17.935  0.00  0.00    +0.000 A 
ATOM     25  C   UNL     1       0.197   9.688  17.745  0.00  0.00    +0.000 A 
ATOM     26  C   UNL     1      -0.560  10.069  18.845  0.00  0.00    +0.000 A 
ATOM     27  F   UNL     1      -1.717  10.718  18.660  0.00  0.00    +0.000 F 
ATOM     28  C   UNL     1      -0.139   9.771  20.134  0.00  0.00    +0.000 A 
ATOM     29  C   UNL     1       1.044   9.054  20.327  0.00  0.00    +0.000 A 
ENDBRANCH  22  23
ENDBRANCH   4  22
TORSDOF 7
ENDMDL
MODEL 5
REMARK VINA RESULT:      -7.0      1.890      3.085
REMARK  Name = 
REMARK  8 active torsions:
REMARK  status: ('A' for Active; 'I' for Inactive)
REMARK    1  A    between atoms: C_1  and  O_2
REMARK    2  A    between atoms: O_2  and  C_3
REMARK    3  A    between atoms: C_3  and  C_5
REMARK    4  A    between atoms: C_5  and  N_6
REMARK    5  A    between atoms: C_7  and  C_9
REMARK    6  A    between atoms: C_9  and  N_10
REMARK    7  A    between atoms: N_13  and  C_14
REMARK    8  A    between atoms: C_14  and  C_15
REMARK                            x       y       z     vdW  Elec       q    Type
REMARK                         _______ _______ _______ _____ _____    ______ ____
ROOT
ATOM      1  N   UNL     1       5.075   5.103  18.555  0.00  0.00    +0.000 N 
ATOM      2  C   UNL     1       4.522   6.306  18.097  0.00  0.00    +0.000 A 
ATOM      3  O   UNL     1       5.241   7.298  17.943  0.00  0.00    +0.000 OA
ATOM      4  N   UNL     1       3.154   6.333  17.821  0.00  0.00    +0.000 N 
ATOM      5  C   UNL     1       2.279   5.254  17.990  0.00  0.00    +0.000 A 
ATOM      6  O   UNL     1       1.072   5.336  17.773  0.00  0.00    +0.000 OA
ATOM      7  C   UNL     1       2.925   4.063  18.469  0.00  0.00    +0.000 A 
ATOM      8  S   UNL     1       2.088   2.622  18.797  0.00  0.00    +0.000 S 
ATOM      9  C   UNL     1       3.533   1.840  19.281  0.00  0.00    +0.000 A 
ATOM     10  C   UNL     1       4.628   2.676  19.185  0.00  0.00    +0.000 A 
ATOM     11  C   UNL     1       4.266   3.981  18.733  0.00  0.00    +0.000 A 
ENDROOT
BRANCH   1  12
ATOM     12  C   UNL     1       6.516   5.071  18.828  0.00  0.00    +0.000 C 
BRANCH  12  14
ATOM     13  N   UNL     1       6.738   5.095  16.387  0.00  0.00    +0.000 N 
ATOM     14  C   UNL     1       7.293   4.681  17.574  0.00  0.00    +0.000 C 
ATOM     15  O   UNL     1       8.364   4.081  17.635  0.00  0.00    +0.000 OA
ATOM     16  H   UNL     1       5.916   5.698  16.399  0.00  0.00    +0.000 HD
BRANCH  13  17
ATOM     17  C   UNL     1       7.340   4.794  15.100  0.00  0.00    +0.000 C 
BRANCH  17  18
ATOM     18  C   UNL     1       6.290   4.281  14.127  0.00  0.00    +0.000 C 
ATOM     19  O   UNL     1       5.093   4.209  14.378  0.00  0.00    +0.000 OA
BRANCH  18  21
ATOM     20  C   UNL     1       6.027   3.189  12.069  0.00  0.00    +0.000 C 
ATOM     21  O   UNL     1       6.866   3.954  12.937  0.00  0.00    +0.000 OA
ENDBRANCH  18  21
ENDBRANCH  17  18
ENDBRANCH  13  17
ENDBRANCH  12  14
ENDBRANCH   1  12
BRANCH   4  22
ATOM     22  C   UNL     1       2.565   7.611  17.446  0.00  0.00    +0.000 C 
BRANCH  22  23
ATOM     23  C   UNL     1       1.812   8.326  18.551  0.00  0.00    +0.000 A 
ATOM     24  C   UNL     1       1.893   7.884  19.882  0.00  0.00    +0.000 A 
ATOM     25  C   UNL     1       1.327   8.635  20.915  0.00  0.00    +0.000 A 
ATOM     26  C   UNL     1       0.669   9.823  20.622  0.00  0.00    +0.000 A 
ATOM     27  F   UNL     1       0.169  10.567  21.617  0.00  0.00    +0.000 F 
ATOM     28  C   UNL     1       0.537  10.255  19.309  0.00  0.00    +0.000 A 
ATOM     29  C   UNL     1       1.099   9.504  18.274  0.00  0.00    +0.000 A 
ENDBRANCH  22  23
ENDBRANCH   4  22
TORSDOF 7
ENDMDL
MODEL 6
REMARK VINA RESULT:      -7.0      6.717     10.086
REMARK  Name = 
REMARK  8 active torsions:
REMARK  status: ('A' for Active; 'I' for Inactive)
REMARK    1  A    between atoms: C_1  and  O_2
REMARK    2  A    between atoms: O_2  and  C_3
REMARK    3  A    between atoms: C_3  and  C_5
REMARK    4  A    between atoms: C_5  and  N_6
REMARK    5  A    between atoms: C_7  and  C_9
REMARK    6  A    between atoms: C_9  and  N_10
REMARK    7  A    between atoms: N_13  and  C_14
REMARK    8  A    between atoms: C_14  and  C_15
REMARK                            x       y       z     vdW  Elec       q    Type
REMARK                         _______ _______ _______ _____ _____    ______ ____
ROOT
ATOM      1  N   UNL     1      -0.984  11.859  19.452  0.00  0.00    +0.000 N 
ATOM      2  C   UNL     1      -1.616  12.698  20.380  0.00  0.00    +0.000 A 
ATOM      3  O   UNL     1      -2.279  13.664  19.989  0.00  0.00    +0.000 OA
ATOM      4  N   UNL     1      -1.473  12.398  21.735  0.00  0.00    +0.000 N 
ATOM      5  C   UNL     1      -0.723  11.333  22.247  0.00  0.00    +0.000 A 
ATOM      6  O   UNL     1      -0.592  11.131  23.453  0.00  0.00    +0.000 OA
ATOM      7  C   UNL     1      -0.104  10.528  21.231  0.00  0.00    +0.000 A 
ATOM      8  S   UNL     1       0.892   9.198  21.580  0.00  0.00    +0.000 S 
ATOM      9  C   UNL     1       1.153   8.898  19.914  0.00  0.00    +0.000 A 
ATOM     10  C   UNL     1       0.481   9.804  19.117  0.00  0.00    +0.000 A 
ATOM     11  C   UNL     1      -0.233  10.769  19.889  0.00  0.00    +0.000 A 
ENDROOT
BRANCH   1  12
ATOM     12  C   UNL     1      -1.150  12.166  18.027  0.00  0.00    +0.000 C 
BRANCH  12  14
ATOM     13  N   UNL     1      -3.561  12.049  17.601  0.00  0.00    +0.000 N 
ATOM     14  C   UNL     1      -2.350  11.419  17.451  0.00  0.00    +0.000 C 
ATOM     15  O   UNL     1      -2.223  10.351  16.855  0.00  0.00    +0.000 OA
ATOM     16  H   UNL     1      -3.594  12.991  17.990  0.00  0.00    +0.000 HD
BRANCH  13  17
ATOM     17  C   UNL     1      -4.804  11.468  17.126  0.00  0.00    +0.000 C 
BRANCH  17  18
ATOM     18  C   UNL     1      -5.979  12.370  17.468  0.00  0.00    +0.000 C 
ATOM     19  O   UNL     1      -6.303  13.358  16.820  0.00  0.00    +0.000 OA
BRANCH  18  21
ATOM     20  C   UNL     1      -6.677  10.474  18.657  0.00  0.00    +0.000 C 
ATOM     21  O   UNL     1      -6.634  11.900  18.565  0.00  0.00    +0.000 OA
ENDBRANCH  18  21
ENDBRANCH  17  18
ENDBRANCH  13  17
ENDBRANCH  12  14
ENDBRANCH   1  12
BRANCH   4  22
ATOM     22  C   UNL     1      -2.042  13.331  22.698  0.00  0.00    +0.000 C 
BRANCH  22  23
ATOM     23  C   UNL     1      -3.480  13.058  23.092  0.00  0.00    +0.000 A 
ATOM     24  C   UNL     1      -3.785  12.359  24.272  0.00  0.00    +0.000 A 
ATOM     25  C   UNL     1      -5.107  12.247  24.710  0.00  0.00    +0.000 A 
ATOM     26  C   UNL     1      -6.129  12.823  23.966  0.00  0.00    +0.000 A 
ATOM     27  F   UNL     1      -7.391  12.757  24.412  0.00  0.00    +0.000 F 
ATOM     28  C   UNL     1      -5.856  13.478  22.774  0.00  0.00    +0.000 A 
ATOM     29  C   UNL     1      -4.536  13.588  22.331  0.00  0.00    +0.000 A 
ENDBRANCH  22  23
ENDBRANCH   4  22
TORSDOF 7
ENDMDL
MODEL 7
REMARK VINA RESULT:      -7.0      1.940      3.216
REMARK  Name = 
REMARK  8 active torsions:
REMARK  status: ('A' for Active; 'I' for Inactive)
REMARK    1  A    between atoms: C_1  and  O_2
REMARK    2  A    between atoms: O_2  and  C_3
REMARK    3  A    between atoms: C_3  and  C_5
REMARK    4  A    between atoms: C_5  and  N_6
REMARK    5  A    between atoms: C_7  and  C_9
REMARK    6  A    between atoms: C_9  and  N_10
REMARK    7  A    between atoms: N_13  and  C_14
REMARK    8  A    between atoms: C_14  and  C_15
REMARK                            x       y       z     vdW  Elec       q    Type
REMARK                         _______ _______ _______ _____ _____    ______ ____
ROOT
ATOM      1  N   UNL     1       5.190   5.467  18.515  0.00  0.00    +0.000 N 
ATOM      2  C   UNL     1       4.361   6.483  18.023  0.00  0.00    +0.000 A 
ATOM      3  O   UNL     1       4.857   7.522  17.574  0.00  0.00    +0.000 OA
ATOM      4  N   UNL     1       2.982   6.275  18.055  0.00  0.00    +0.000 N 
ATOM      5  C   UNL     1       2.354   5.135  18.567  0.00  0.00    +0.000 A 
ATOM      6  O   UNL     1       1.131   5.012  18.613  0.00  0.00    +0.000 OA
ATOM      7  C   UNL     1       3.273   4.145  19.056  0.00  0.00    +0.000 A 
ATOM      8  S   UNL     1       2.775   2.684  19.763  0.00  0.00    +0.000 S 
ATOM      9  C   UNL     1       4.398   2.203  20.023  0.00  0.00    +0.000 A 
ATOM     10  C   UNL     1       5.295   3.150  19.568  0.00  0.00    +0.000 A 
ATOM     11  C   UNL     1       4.634   4.294  19.026  0.00  0.00    +0.000 A 
ENDROOT
BRANCH   1  12
ATOM     12  C   UNL     1       6.641   5.679  18.464  0.00  0.00    +0.000 C 
BRANCH  12  14
ATOM     13  N   UNL     1       6.789   5.592  16.019  0.00  0.00    +0.000 N 
ATOM     14  C   UNL     1       7.233   5.056  17.203  0.00  0.00    +0.000 C 
ATOM     15  O   UNL     1       8.082   4.168  17.256  0.00  0.00    +0.000 OA
ATOM     16  H   UNL     1       6.180   6.410  16.034  0.00  0.00    +0.000 HD
BRANCH  13  17
ATOM     17  C   UNL     1       7.238   5.105  14.727  0.00  0.00    +0.000 C 
BRANCH  17  18
ATOM     18  C   UNL     1       6.206   4.166  14.123  0.00  0.00    +0.000 C 
ATOM     19  O   UNL     1       5.151   3.857  14.665  0.00  0.00    +0.000 OA
BRANCH  18  21
ATOM     20  C   UNL     1       5.554   3.224  12.077  0.00  0.00    +0.000 C 
ATOM     21  O   UNL     1       6.605   3.755  12.887  0.00  0.00    +0.000 OA
ENDBRANCH  18  21
ENDBRANCH  17  18
ENDBRANCH  13  17
ENDBRANCH  12  14
ENDBRANCH   1  12
BRANCH   4  22
ATOM     22  C   UNL     1       2.122   7.376  17.642  0.00  0.00    +0.000 C 
BRANCH  22  23
ATOM     23  C   UNL     1       1.776   8.372  18.731  0.00  0.00    +0.000 A 
ATOM     24  C   UNL     1       1.433   9.697  18.415  0.00  0.00    +0.000 A 
ATOM     25  C   UNL     1       0.963  10.564  19.405  0.00  0.00    +0.000 A 
ATOM     26  C   UNL     1       0.846  10.115  20.714  0.00  0.00    +0.000 A 
ATOM     27  F   UNL     1       0.351  10.933  21.653  0.00  0.00    +0.000 F 
ATOM     28  C   UNL     1       1.223   8.824  21.057  0.00  0.00    +0.000 A 
ATOM     29  C   UNL     1       1.696   7.956  20.071  0.00  0.00    +0.000 A 
ENDBRANCH  22  23
ENDBRANCH   4  22
TORSDOF 7
ENDMDL
MODEL 8
REMARK VINA RESULT:      -7.0      3.327      6.963
REMARK  Name = 
REMARK  8 active torsions:
REMARK  status: ('A' for Active; 'I' for Inactive)
REMARK    1  A    between atoms: C_1  and  O_2
REMARK    2  A    between atoms: O_2  and  C_3
REMARK    3  A    between atoms: C_3  and  C_5
REMARK    4  A    between atoms: C_5  and  N_6
REMARK    5  A    between atoms: C_7  and  C_9
REMARK    6  A    between atoms: C_9  and  N_10
REMARK    7  A    between atoms: N_13  and  C_14
REMARK    8  A    between atoms: C_14  and  C_15
REMARK                            x       y       z     vdW  Elec       q    Type
REMARK                         _______ _______ _______ _____ _____    ______ ____
ROOT
ATOM      1  N   UNL     1       2.658   6.131  18.578  0.00  0.00    +0.000 N 
ATOM      2  C   UNL     1       3.952   6.267  18.060  0.00  0.00    +0.000 A 
ATOM      3  O   UNL     1       4.224   7.216  17.317  0.00  0.00    +0.000 OA
ATOM      4  N   UNL     1       4.903   5.310  18.415  0.00  0.00    +0.000 N 
ATOM      5  C   UNL     1       4.659   4.201  19.234  0.00  0.00    +0.000 A 
ATOM      6  O   UNL     1       5.518   3.359  19.487  0.00  0.00    +0.000 OA
ATOM      7  C   UNL     1       3.307   4.133  19.717  0.00  0.00    +0.000 A 
ATOM      8  S   UNL     1       2.735   2.870  20.697  0.00  0.00    +0.000 S 
ATOM      9  C   UNL     1       1.171   3.563  20.757  0.00  0.00    +0.000 A 
ATOM     10  C   UNL     1       1.102   4.742  20.039  0.00  0.00    +0.000 A 
ATOM     11  C   UNL     1       2.345   5.059  19.414  0.00  0.00    +0.000 A 
ENDROOT
BRANCH   1  12
ATOM     12  C   UNL     1       1.664   7.148  18.217  0.00  0.00    +0.000 C 
BRANCH  12  14
ATOM     13  N   UNL     1       1.167   9.471  18.822  0.00  0.00    +0.000 N 
ATOM     14  C   UNL     1       1.617   8.253  19.269  0.00  0.00    +0.000 C 
ATOM     15  O   UNL     1       1.919   8.043  20.443  0.00  0.00    +0.000 OA
ATOM     16  H   UNL     1       0.810   9.557  17.871  0.00  0.00    +0.000 HD
BRANCH  13  17
ATOM     17  C   UNL     1       1.076  10.633  19.688  0.00  0.00    +0.000 C 
BRANCH  17  18
ATOM     18  C   UNL     1      -0.370  10.900  20.073  0.00  0.00    +0.000 C 
ATOM     19  O   UNL     1      -0.723  11.381  21.143  0.00  0.00    +0.000 OA
BRANCH  18  21
ATOM     20  C   UNL     1      -1.736  11.684  18.336  0.00  0.00    +0.000 C 
ATOM     21  O   UNL     1      -1.203  10.565  19.048  0.00  0.00    +0.000 OA
ENDBRANCH  18  21
ENDBRANCH  17  18
ENDBRANCH  13  17
ENDBRANCH  12  14
ENDBRANCH   1  12
BRANCH   4  22
ATOM     22  C   UNL     1       6.216   5.396  17.791  0.00  0.00    +0.000 C 
BRANCH  22  23
ATOM     23  C   UNL     1       6.299   4.851  16.379  0.00  0.00    +0.000 A 
ATOM     24  C   UNL     1       5.264   4.064  15.847  0.00  0.00    +0.000 A 
ATOM     25  C   UNL     1       5.272   3.697  14.498  0.00  0.00    +0.000 A 
ATOM     26  C   UNL     1       6.318   4.106  13.681  0.00  0.00    +0.000 A 
ATOM     27  F   UNL     1       6.301   3.794  12.378  0.00  0.00    +0.000 F 
ATOM     28  C   UNL     1       7.374   4.845  14.196  0.00  0.00    +0.000 A 
ATOM     29  C   UNL     1       7.370   5.210  15.544  0.00  0.00    +0.000 A 
ENDBRANCH  22  23
ENDBRANCH   4  22
TORSDOF 7
ENDMDL
MODEL 9
REMARK VINA RESULT:      -6.9      3.344      6.969
REMARK  Name = 
REMARK  8 active torsions:
REMARK  status: ('A' for Active; 'I' for Inactive)
REMARK    1  A    between atoms: C_1  and  O_2
REMARK    2  A    between atoms: O_2  and  C_3
REMARK    3  A    between atoms: C_3  and  C_5
REMARK    4  A    between atoms: C_5  and  N_6
REMARK    5  A    between atoms: C_7  and  C_9
REMARK    6  A    between atoms: C_9  and  N_10
REMARK    7  A    between atoms: N_13  and  C_14
REMARK    8  A    between atoms: C_14  and  C_15
REMARK                            x       y       z     vdW  Elec       q    Type
REMARK                         _______ _______ _______ _____ _____    ______ ____
ROOT
ATOM      1  N   UNL     1       2.565   6.251  18.817  0.00  0.00    +0.000 N 
ATOM      2  C   UNL     1       3.827   6.447  18.241  0.00  0.00    +0.000 A 
ATOM      3  O   UNL     1       4.041   7.445  17.545  0.00  0.00    +0.000 OA
ATOM      4  N   UNL     1       4.813   5.491  18.486  0.00  0.00    +0.000 N 
ATOM      5  C   UNL     1       4.634   4.330  19.246  0.00  0.00    +0.000 A 
ATOM      6  O   UNL     1       5.520   3.493  19.402  0.00  0.00    +0.000 OA
ATOM      7  C   UNL     1       3.312   4.202  19.795  0.00  0.00    +0.000 A 
ATOM      8  S   UNL     1       2.816   2.870  20.722  0.00  0.00    +0.000 S 
ATOM      9  C   UNL     1       1.244   3.524  20.907  0.00  0.00    +0.000 A 
ATOM     10  C   UNL     1       1.116   4.743  20.269  0.00  0.00    +0.000 A 
ATOM     11  C   UNL     1       2.318   5.124  19.600  0.00  0.00    +0.000 A 
ENDROOT
BRANCH   1  12
ATOM     12  C   UNL     1       1.535   7.267  18.572  0.00  0.00    +0.000 C 
BRANCH  12  14
ATOM     13  N   UNL     1       1.225   9.615  19.208  0.00  0.00    +0.000 N 
ATOM     14  C   UNL     1       1.595   8.362  19.634  0.00  0.00    +0.000 C 
ATOM     15  O   UNL     1       1.908   8.120  20.798  0.00  0.00    +0.000 OA
ATOM     16  H   UNL     1       0.854   9.736  18.266  0.00  0.00    +0.000 HD
BRANCH  13  17
ATOM     17  C   UNL     1       1.241  10.771  20.084  0.00  0.00    +0.000 C 
BRANCH  17  18
ATOM     18  C   UNL     1      -0.049  10.852  20.885  0.00  0.00    +0.000 C 
ATOM     19  O   UNL     1      -1.166  10.926  20.389  0.00  0.00    +0.000 OA
BRANCH  18  21
ATOM     20  C   UNL     1      -0.928  10.536  23.036  0.00  0.00    +0.000 C 
ATOM     21  O   UNL     1       0.218  10.790  22.220  0.00  0.00    +0.000 OA
ENDBRANCH  18  21
ENDBRANCH  17  18
ENDBRANCH  13  17
ENDBRANCH  12  14
ENDBRANCH   1  12
BRANCH   4  22
ATOM     22  C   UNL     1       6.089   5.644  17.801  0.00  0.00    +0.000 C 
BRANCH  22  23
ATOM     23  C   UNL     1       6.115   5.159  16.364  0.00  0.00    +0.000 A 
ATOM     24  C   UNL     1       7.191   5.470  15.518  0.00  0.00    +0.000 A 
ATOM     25  C   UNL     1       7.286   4.893  14.248  0.00  0.00    +0.000 A 
ATOM     26  C   UNL     1       6.301   4.014  13.817  0.00  0.00    +0.000 A 
ATOM     27  F   UNL     1       6.417   3.424  12.620  0.00  0.00    +0.000 F 
ATOM     28  C   UNL     1       5.205   3.728  14.619  0.00  0.00    +0.000 A 
ATOM     29  C   UNL     1       5.106   4.306  15.887  0.00  0.00    +0.000 A 
ENDBRANCH  22  23
ENDBRANCH   4  22
TORSDOF 7
ENDMDL
