MODEL 1
REMARK VINA RESULT:      -7.6      0.000      0.000
REMARK  Name = 
REMARK  7 active torsions:
REMARK  status: ('A' for Active; 'I' for Inactive)
REMARK    1  A    between atoms: C_1  and  N_2
REMARK    2  A    between atoms: N_2  and  C_15
REMARK    3  A    between atoms: C_3  and  C_5
REMARK    4  A    between atoms: C_8  and  C_9
REMARK    5  A    between atoms: C_17  and  C_18
REMARK    6  A    between atoms: C_25  and  C_26
REMARK    7  A    between atoms: C_26  and  O_28
REMARK                            x       y       z     vdW  Elec       q    Type
REMARK                         _______ _______ _______ _____ _____    ______ ____
ROOT
ATOM      1  C   UNL     1       0.120  10.485  19.076  0.00  0.00    +0.000 A 
ATOM      2  C   UNL     1      -1.304  10.394  18.951  0.00  0.00    +0.000 A 
ATOM      3  C   UNL     1      -1.939  11.607  18.790  0.00  0.00    +0.000 A 
ATOM      4  S   UNL     1      -0.792  12.869  18.724  0.00  0.00    +0.000 S 
ATOM      5  C   UNL     1       0.543  11.797  18.917  0.00  0.00    +0.000 A 
ENDROOT
BRANCH   3   6
ATOM      6  C   UNL     1      -3.385  11.859  18.722  0.00  0.00    +0.000 A 
ATOM      7  C   UNL     1      -4.102  11.493  17.570  0.00  0.00    +0.000 A 
ATOM      8  C   UNL     1      -5.473  11.738  17.468  0.00  0.00    +0.000 A 
ATOM      9  C   UNL     1      -6.148  12.355  18.516  0.00  0.00    +0.000 A 
ATOM     10  C   UNL     1      -5.451  12.730  19.664  0.00  0.00    +0.000 A 
ATOM     11  C   UNL     1      -4.079  12.488  19.764  0.00  0.00    +0.000 A 
ENDBRANCH   3   6
BRANCH   1  13
ATOM     12  C   UNL     1       1.259   9.071  20.749  0.00  0.00    +0.000 C 
ATOM     13  N   UNL     1       0.929   9.349  19.343  0.00  0.00    +0.000 N 
ATOM     14  C   UNL     1       1.532   8.717  18.230  0.00  0.00    +0.000 C 
ATOM     15  O   UNL     1       1.385   9.108  17.067  0.00  0.00    +0.000 OA
BRANCH  14  16
ATOM     16  C   UNL     1       2.526   7.615  18.425  0.00  0.00    +0.000 A 
ATOM     17  C   UNL     1       2.419   6.658  19.435  0.00  0.00    +0.000 A 
ATOM     18  C   UNL     1       3.444   5.728  19.642  0.00  0.00    +0.000 A 
ATOM     19  C   UNL     1       4.551   5.675  18.782  0.00  0.00    +0.000 A 
ATOM     20  C   UNL     1       4.614   6.579  17.712  0.00  0.00    +0.000 A 
ATOM     21  C   UNL     1       3.615   7.544  17.540  0.00  0.00    +0.000 A 
BRANCH  19  22
ATOM     22  C   UNL     1       5.635   4.640  18.976  0.00  0.00    +0.000 C 
ATOM     23  F   UNL     1       6.215   4.240  17.809  0.00  0.00    +0.000 F 
ATOM     24  F   UNL     1       6.649   5.091  19.763  0.00  0.00    +0.000 F 
ATOM     25  F   UNL     1       5.176   3.503  19.569  0.00  0.00    +0.000 F 
ENDBRANCH  19  22
ENDBRANCH  14  16
ENDBRANCH   1  13
BRANCH   5  26
ATOM     26  C   UNL     1       1.893  12.316  18.789  0.00  0.00    +0.000 C 
ATOM     27  O   UNL     1       2.506  12.941  19.644  0.00  0.00    +0.000 OA
BRANCH  26  28
ATOM     28  O   UNL     1       2.479  11.971  17.604  0.00  0.00    +0.000 OA
ATOM     29  H   UNL     1       1.875  11.428  17.063  0.00  0.00    +0.000 HD
ENDBRANCH  26  28
ENDBRANCH   5  26
TORSDOF 6
ENDMDL
MODEL 2
REMARK VINA RESULT:      -7.3      0.445      1.175
REMARK  Name = 
REMARK  7 active torsions:
REMARK  status: ('A' for Active; 'I' for Inactive)
REMARK    1  A    between atoms: C_1  and  N_2
REMARK    2  A    between atoms: N_2  and  C_15
REMARK    3  A    between atoms: C_3  and  C_5
REMARK    4  A    between atoms: C_8  and  C_9
REMARK    5  A    between atoms: C_17  and  C_18
REMARK    6  A    between atoms: C_25  and  C_26
REMARK    7  A    between atoms: C_26  and  O_28
REMARK                            x       y       z     vdW  Elec       q    Type
REMARK                         _______ _______ _______ _____ _____    ______ ____
ROOT
ATOM      1  C   UNL     1       0.011  10.471  19.338  0.00  0.00    +0.000 A 
ATOM      2  C   UNL     1      -1.365  10.383  18.950  0.00  0.00    +0.000 A 
ATOM      3  C   UNL     1      -2.020  11.595  18.906  0.00  0.00    +0.000 A 
ATOM      4  S   UNL     1      -0.940  12.865  19.277  0.00  0.00    +0.000 S 
ATOM      5  C   UNL     1       0.392  11.795  19.500  0.00  0.00    +0.000 A 
ENDROOT
BRANCH   3   6
ATOM      6  C   UNL     1      -3.444  11.835  18.633  0.00  0.00    +0.000 A 
ATOM      7  C   UNL     1      -4.260  12.394  19.633  0.00  0.00    +0.000 A 
ATOM      8  C   UNL     1      -5.620  12.615  19.410  0.00  0.00    +0.000 A 
ATOM      9  C   UNL     1      -6.187  12.278  18.185  0.00  0.00    +0.000 A 
ATOM     10  C   UNL     1      -5.394  11.719  17.184  0.00  0.00    +0.000 A 
ATOM     11  C   UNL     1      -4.034  11.494  17.409  0.00  0.00    +0.000 A 
ENDBRANCH   3   6
BRANCH   1  13
ATOM     12  C   UNL     1       1.086   8.903  20.915  0.00  0.00    +0.000 C 
ATOM     13  N   UNL     1       0.816   9.317  19.529  0.00  0.00    +0.000 N 
ATOM     14  C   UNL     1       1.473   8.798  18.388  0.00  0.00    +0.000 C 
ATOM     15  O   UNL     1       1.375   9.301  17.264  0.00  0.00    +0.000 OA
BRANCH  14  16
ATOM     16  C   UNL     1       2.466   7.686  18.519  0.00  0.00    +0.000 A 
ATOM     17  C   UNL     1       2.394   6.710  19.514  0.00  0.00    +0.000 A 
ATOM     18  C   UNL     1       3.419   5.768  19.659  0.00  0.00    +0.000 A 
ATOM     19  C   UNL     1       4.490   5.726  18.753  0.00  0.00    +0.000 A 
ATOM     20  C   UNL     1       4.515   6.650  17.699  0.00  0.00    +0.000 A 
ATOM     21  C   UNL     1       3.516   7.626  17.588  0.00  0.00    +0.000 A 
BRANCH  19  22
ATOM     22  C   UNL     1       5.573   4.680  18.881  0.00  0.00    +0.000 C 
ATOM     23  F   UNL     1       6.115   4.315  17.684  0.00  0.00    +0.000 F 
ATOM     24  F   UNL     1       6.613   5.099  19.650  0.00  0.00    +0.000 F 
ATOM     25  F   UNL     1       5.125   3.526  19.450  0.00  0.00    +0.000 F 
ENDBRANCH  19  22
ENDBRANCH  14  16
ENDBRANCH   1  13
BRANCH   5  26
ATOM     26  C   UNL     1       1.718  12.348  19.710  0.00  0.00    +0.000 C 
ATOM     27  O   UNL     1       2.521  12.639  18.833  0.00  0.00    +0.000 OA
BRANCH  26  28
ATOM     28  O   UNL     1       1.983  12.597  21.026  0.00  0.00    +0.000 OA
ATOM     29  H   UNL     1       1.652  11.871  21.589  0.00  0.00    +0.000 HD
ENDBRANCH  26  28
ENDBRANCH   5  26
TORSDOF 6
ENDMDL
MODEL 3
REMARK VINA RESULT:      -7.3      0.458      1.038
REMARK  Name = 
REMARK  7 active torsions:
REMARK  status: ('A' for Active; 'I' for Inactive)
REMARK    1  A    between atoms: C_1  and  N_2
REMARK    2  A    between atoms: N_2  and  C_15
REMARK    3  A    between atoms: C_3  and  C_5
REMARK    4  A    between atoms: C_8  and  C_9
REMARK    5  A    between atoms: C_17  and  C_18
REMARK    6  A    between atoms: C_25  and  C_26
REMARK    7  A    between atoms: C_26  and  O_28
REMARK                            x       y       z     vdW  Elec       q    Type
REMARK                         _______ _______ _______ _____ _____    ______ ____
ROOT
ATOM      1  C   UNL     1       0.014  10.464  19.343  0.00  0.00    +0.000 A 
ATOM      2  C   UNL     1      -1.363  10.374  18.958  0.00  0.00    +0.000 A 
ATOM      3  C   UNL     1      -2.021  11.585  18.915  0.00  0.00    +0.000 A 
ATOM      4  S   UNL     1      -0.943  12.856  19.286  0.00  0.00    +0.000 S 
ATOM      5  C   UNL     1       0.392  11.789  19.506  0.00  0.00    +0.000 A 
ENDROOT
BRANCH   3   6
ATOM      6  C   UNL     1      -3.445  11.821  18.644  0.00  0.00    +0.000 A 
ATOM      7  C   UNL     1      -3.977  11.498  17.383  0.00  0.00    +0.000 A 
ATOM      8  C   UNL     1      -5.322  11.729  17.089  0.00  0.00    +0.000 A 
ATOM      9  C   UNL     1      -6.157  12.289  18.051  0.00  0.00    +0.000 A 
ATOM     10  C   UNL     1      -5.645  12.621  19.304  0.00  0.00    +0.000 A 
ATOM     11  C   UNL     1      -4.298  12.393  19.597  0.00  0.00    +0.000 A 
ENDBRANCH   3   6
BRANCH   1  13
ATOM     12  C   UNL     1       1.098   8.900  20.917  0.00  0.00    +0.000 C 
ATOM     13  N   UNL     1       0.822   9.312  19.533  0.00  0.00    +0.000 N 
ATOM     14  C   UNL     1       1.475   8.794  18.390  0.00  0.00    +0.000 C 
ATOM     15  O   UNL     1       1.372   9.296  17.265  0.00  0.00    +0.000 OA
BRANCH  14  16
ATOM     16  C   UNL     1       2.471   7.684  18.518  0.00  0.00    +0.000 A 
ATOM     17  C   UNL     1       2.400   6.704  19.509  0.00  0.00    +0.000 A 
ATOM     18  C   UNL     1       3.427   5.764  19.652  0.00  0.00    +0.000 A 
ATOM     19  C   UNL     1       4.499   5.728  18.747  0.00  0.00    +0.000 A 
ATOM     20  C   UNL     1       4.524   6.656  17.696  0.00  0.00    +0.000 A 
ATOM     21  C   UNL     1       3.523   7.630  17.588  0.00  0.00    +0.000 A 
BRANCH  19  22
ATOM     22  C   UNL     1       5.585   4.684  18.872  0.00  0.00    +0.000 C 
ATOM     23  F   UNL     1       6.634   5.086  19.646  0.00  0.00    +0.000 F 
ATOM     24  F   UNL     1       5.132   3.528  19.427  0.00  0.00    +0.000 F 
ATOM     25  F   UNL     1       6.124   4.339  17.670  0.00  0.00    +0.000 F 
ENDBRANCH  19  22
ENDBRANCH  14  16
ENDBRANCH   1  13
BRANCH   5  26
ATOM     26  C   UNL     1       1.717  12.346  19.714  0.00  0.00    +0.000 C 
ATOM     27  O   UNL     1       2.520  12.635  18.837  0.00  0.00    +0.000 OA
BRANCH  26  28
ATOM     28  O   UNL     1       1.981  12.599  21.030  0.00  0.00    +0.000 OA
ATOM     29  H   UNL     1       1.719  11.842  21.587  0.00  0.00    +0.000 HD
ENDBRANCH  26  28
ENDBRANCH   5  26
TORSDOF 6
ENDMDL
MODEL 4
REMARK VINA RESULT:      -7.3      5.406      9.734
REMARK  Name = 
REMARK  7 active torsions:
REMARK  status: ('A' for Active; 'I' for Inactive)
REMARK    1  A    between atoms: C_1  and  N_2
REMARK    2  A    between atoms: N_2  and  C_15
REMARK    3  A    between atoms: C_3  and  C_5
REMARK    4  A    between atoms: C_8  and  C_9
REMARK    5  A    between atoms: C_17  and  C_18
REMARK    6  A    between atoms: C_25  and  C_26
REMARK    7  A    between atoms: C_26  and  O_28
REMARK                            x       y       z     vdW  Elec       q    Type
REMARK                         _______ _______ _______ _____ _____    ______ ____
ROOT
ATOM      1  C   UNL     1       4.578   5.316  17.226  0.00  0.00    +0.000 A 
ATOM      2  C   UNL     1       4.652   5.115  15.810  0.00  0.00    +0.000 A 
ATOM      3  C   UNL     1       5.830   4.545  15.378  0.00  0.00    +0.000 A 
ATOM      4  S   UNL     1       6.837   4.190  16.710  0.00  0.00    +0.000 S 
ATOM      5  C   UNL     1       5.702   4.801  17.854  0.00  0.00    +0.000 A 
ENDROOT
BRANCH   3   6
ATOM      6  C   UNL     1       6.248   4.292  13.992  0.00  0.00    +0.000 A 
ATOM      7  C   UNL     1       7.317   5.023  13.444  0.00  0.00    +0.000 A 
ATOM      8  C   UNL     1       7.725   4.819  12.124  0.00  0.00    +0.000 A 
ATOM      9  C   UNL     1       7.068   3.883  11.331  0.00  0.00    +0.000 A 
ATOM     10  C   UNL     1       6.003   3.154  11.857  0.00  0.00    +0.000 A 
ATOM     11  C   UNL     1       5.593   3.361  13.177  0.00  0.00    +0.000 A 
ENDBRANCH   3   6
BRANCH   1  13
ATOM     12  C   UNL     1       2.252   5.196  18.046  0.00  0.00    +0.000 C 
ATOM     13  N   UNL     1       3.480   5.977  17.838  0.00  0.00    +0.000 N 
ATOM     14  C   UNL     1       3.581   7.380  17.988  0.00  0.00    +0.000 C 
ATOM     15  O   UNL     1       4.562   8.032  17.615  0.00  0.00    +0.000 OA
BRANCH  14  16
ATOM     16  C   UNL     1       2.413   8.181  18.472  0.00  0.00    +0.000 A 
ATOM     17  C   UNL     1       1.654   9.006  17.641  0.00  0.00    +0.000 A 
ATOM     18  C   UNL     1       0.652   9.824  18.176  0.00  0.00    +0.000 A 
ATOM     19  C   UNL     1       0.327   9.763  19.540  0.00  0.00    +0.000 A 
ATOM     20  C   UNL     1       1.029   8.867  20.359  0.00  0.00    +0.000 A 
ATOM     21  C   UNL     1       2.068   8.090  19.831  0.00  0.00    +0.000 A 
BRANCH  19  22
ATOM     22  C   UNL     1      -0.787  10.611  20.111  0.00  0.00    +0.000 C 
ATOM     23  F   UNL     1      -1.928  10.576  19.366  0.00  0.00    +0.000 F 
ATOM     24  F   UNL     1      -1.145  10.223  21.364  0.00  0.00    +0.000 F 
ATOM     25  F   UNL     1      -0.449  11.927  20.206  0.00  0.00    +0.000 F 
ENDBRANCH  19  22
ENDBRANCH  14  16
ENDBRANCH   1  13
BRANCH   5  26
ATOM     26  C   UNL     1       5.962   4.628  19.272  0.00  0.00    +0.000 C 
ATOM     27  O   UNL     1       6.684   5.336  19.961  0.00  0.00    +0.000 OA
BRANCH  26  28
ATOM     28  O   UNL     1       5.246   3.601  19.817  0.00  0.00    +0.000 OA
ATOM     29  H   UNL     1       5.633   3.322  20.669  0.00  0.00    +0.000 HD
ENDBRANCH  26  28
ENDBRANCH   5  26
TORSDOF 6
ENDMDL
MODEL 5
REMARK VINA RESULT:      -7.3      0.305      1.458
REMARK  Name = 
REMARK  7 active torsions:
REMARK  status: ('A' for Active; 'I' for Inactive)
REMARK    1  A    between atoms: C_1  and  N_2
REMARK    2  A    between atoms: N_2  and  C_15
REMARK    3  A    between atoms: C_3  and  C_5
REMARK    4  A    between atoms: C_8  and  C_9
REMARK    5  A    between atoms: C_17  and  C_18
REMARK    6  A    between atoms: C_25  and  C_26
REMARK    7  A    between atoms: C_26  and  O_28
REMARK                            x       y       z     vdW  Elec       q    Type
REMARK                         _______ _______ _______ _____ _____    ______ ____
ROOT
ATOM      1  C   UNL     1       0.173  10.567  19.105  0.00  0.00    +0.000 A 
ATOM      2  C   UNL     1      -1.253  10.471  19.013  0.00  0.00    +0.000 A 
ATOM      3  C   UNL     1      -1.895  11.682  18.871  0.00  0.00    +0.000 A 
ATOM      4  S   UNL     1      -0.754  12.949  18.785  0.00  0.00    +0.000 S 
ATOM      5  C   UNL     1       0.588  11.880  18.943  0.00  0.00    +0.000 A 
ENDROOT
BRANCH   3   6
ATOM      6  C   UNL     1      -3.343  11.930  18.837  0.00  0.00    +0.000 A 
ATOM      7  C   UNL     1      -3.964  12.572  19.923  0.00  0.00    +0.000 A 
ATOM      8  C   UNL     1      -5.341  12.804  19.929  0.00  0.00    +0.000 A 
ATOM      9  C   UNL     1      -6.119  12.396  18.849  0.00  0.00    +0.000 A 
ATOM     10  C   UNL     1      -5.520  11.753  17.767  0.00  0.00    +0.000 A 
ATOM     11  C   UNL     1      -4.143  11.518  17.763  0.00  0.00    +0.000 A 
ENDBRANCH   3   6
BRANCH   1  13
ATOM     12  C   UNL     1       1.343   9.141  20.747  0.00  0.00    +0.000 C 
ATOM     13  N   UNL     1       0.992   9.432  19.350  0.00  0.00    +0.000 N 
ATOM     14  C   UNL     1       1.583   8.816  18.222  0.00  0.00    +0.000 C 
ATOM     15  O   UNL     1       1.418   9.219  17.065  0.00  0.00    +0.000 OA
BRANCH  14  16
ATOM     16  C   UNL     1       2.585   7.718  18.391  0.00  0.00    +0.000 A 
ATOM     17  C   UNL     1       3.726   7.593  17.595  0.00  0.00    +0.000 A 
ATOM     18  C   UNL     1       4.560   6.477  17.721  0.00  0.00    +0.000 A 
ATOM     19  C   UNL     1       4.323   5.510  18.710  0.00  0.00    +0.000 A 
ATOM     20  C   UNL     1       3.228   5.682  19.569  0.00  0.00    +0.000 A 
ATOM     21  C   UNL     1       2.364   6.772  19.406  0.00  0.00    +0.000 A 
BRANCH  19  22
ATOM     22  C   UNL     1       5.251   4.328  18.878  0.00  0.00    +0.000 C 
ATOM     23  F   UNL     1       6.500   4.678  19.297  0.00  0.00    +0.000 F 
ATOM     24  F   UNL     1       4.788   3.430  19.788  0.00  0.00    +0.000 F 
ATOM     25  F   UNL     1       5.431   3.633  17.721  0.00  0.00    +0.000 F 
ENDBRANCH  19  22
ENDBRANCH  14  16
ENDBRANCH   1  13
BRANCH   5  26
ATOM     26  C   UNL     1       1.933  12.404  18.787  0.00  0.00    +0.000 C 
ATOM     27  O   UNL     1       2.564  13.027  19.631  0.00  0.00    +0.000 OA
BRANCH  26  28
ATOM     28  O   UNL     1       2.493  12.070  17.587  0.00  0.00    +0.000 OA
ATOM     29  H   UNL     1       3.239  11.453  17.713  0.00  0.00    +0.000 HD
ENDBRANCH  26  28
ENDBRANCH   5  26
TORSDOF 6
ENDMDL
MODEL 6
REMARK VINA RESULT:      -7.3      2.502      3.384
REMARK  Name = 
REMARK  7 active torsions:
REMARK  status: ('A' for Active; 'I' for Inactive)
REMARK    1  A    between atoms: C_1  and  N_2
REMARK    2  A    between atoms: N_2  and  C_15
REMARK    3  A    between atoms: C_3  and  C_5
REMARK    4  A    between atoms: C_8  and  C_9
REMARK    5  A    between atoms: C_17  and  C_18
REMARK    6  A    between atoms: C_25  and  C_26
REMARK    7  A    between atoms: C_26  and  O_28
REMARK                            x       y       z     vdW  Elec       q    Type
REMARK                         _______ _______ _______ _____ _____    ______ ____
ROOT
ATOM      1  C   UNL     1       0.093  11.184  20.480  0.00  0.00    +0.000 A 
ATOM      2  C   UNL     1      -1.257  11.161  20.957  0.00  0.00    +0.000 A 
ATOM      3  C   UNL     1      -1.618  12.267  21.695  0.00  0.00    +0.000 A 
ATOM      4  S   UNL     1      -0.325  13.380  21.762  0.00  0.00    +0.000 S 
ATOM      5  C   UNL     1       0.709  12.382  20.811  0.00  0.00    +0.000 A 
ENDROOT
BRANCH   3   6
ATOM      6  C   UNL     1      -2.890  12.504  22.391  0.00  0.00    +0.000 A 
ATOM      7  C   UNL     1      -2.975  12.290  23.778  0.00  0.00    +0.000 A 
ATOM      8  C   UNL     1      -4.175  12.487  24.465  0.00  0.00    +0.000 A 
ATOM      9  C   UNL     1      -5.310  12.901  23.774  0.00  0.00    +0.000 A 
ATOM     10  C   UNL     1      -5.244  13.113  22.398  0.00  0.00    +0.000 A 
ATOM     11  C   UNL     1      -4.045  12.911  21.711  0.00  0.00    +0.000 A 
ENDBRANCH   3   6
BRANCH   1  13
ATOM     12  C   UNL     1       0.361   9.962  18.351  0.00  0.00    +0.000 C 
ATOM     13  N   UNL     1       0.667  10.088  19.784  0.00  0.00    +0.000 N 
ATOM     14  C   UNL     1       1.293   9.090  20.567  0.00  0.00    +0.000 C 
ATOM     15  O   UNL     1       1.356   9.137  21.801  0.00  0.00    +0.000 OA
BRANCH  14  16
ATOM     16  C   UNL     1       1.783   7.823  19.940  0.00  0.00    +0.000 A 
ATOM     17  C   UNL     1       2.412   7.780  18.694  0.00  0.00    +0.000 A 
ATOM     18  C   UNL     1       2.737   6.552  18.106  0.00  0.00    +0.000 A 
ATOM     19  C   UNL     1       2.524   5.347  18.793  0.00  0.00    +0.000 A 
ATOM     20  C   UNL     1       1.975   5.396  20.082  0.00  0.00    +0.000 A 
ATOM     21  C   UNL     1       1.601   6.622  20.646  0.00  0.00    +0.000 A 
BRANCH  19  22
ATOM     22  C   UNL     1       2.918   4.023  18.178  0.00  0.00    +0.000 C 
ATOM     23  F   UNL     1       4.225   3.974  17.794  0.00  0.00    +0.000 F 
ATOM     24  F   UNL     1       2.738   2.980  19.031  0.00  0.00    +0.000 F 
ATOM     25  F   UNL     1       2.194   3.726  17.063  0.00  0.00    +0.000 F 
ENDBRANCH  19  22
ENDBRANCH  14  16
ENDBRANCH   1  13
BRANCH   5  26
ATOM     26  C   UNL     1       1.996  12.901  20.382  0.00  0.00    +0.000 C 
ATOM     27  O   UNL     1       2.386  12.986  19.225  0.00  0.00    +0.000 OA
BRANCH  26  28
ATOM     28  O   UNL     1       2.745  13.376  21.420  0.00  0.00    +0.000 OA
ATOM     29  H   UNL     1       3.578  13.768  21.095  0.00  0.00    +0.000 HD
ENDBRANCH  26  28
ENDBRANCH   5  26
TORSDOF 6
ENDMDL
MODEL 7
REMARK VINA RESULT:      -7.2      2.481      3.244
REMARK  Name = 
REMARK  7 active torsions:
REMARK  status: ('A' for Active; 'I' for Inactive)
REMARK    1  A    between atoms: C_1  and  N_2
REMARK    2  A    between atoms: N_2  and  C_15
REMARK    3  A    between atoms: C_3  and  C_5
REMARK    4  A    between atoms: C_8  and  C_9
REMARK    5  A    between atoms: C_17  and  C_18
REMARK    6  A    between atoms: C_25  and  C_26
REMARK    7  A    between atoms: C_26  and  O_28
REMARK                            x       y       z     vdW  Elec       q    Type
REMARK                         _______ _______ _______ _____ _____    ______ ____
ROOT
ATOM      1  C   UNL     1       0.117  11.111  20.488  0.00  0.00    +0.000 A 
ATOM      2  C   UNL     1      -1.230  11.086  20.978  0.00  0.00    +0.000 A 
ATOM      3  C   UNL     1      -1.592  12.204  21.697  0.00  0.00    +0.000 A 
ATOM      4  S   UNL     1      -0.308  13.328  21.729  0.00  0.00    +0.000 S 
ATOM      5  C   UNL     1       0.726  12.320  20.789  0.00  0.00    +0.000 A 
ENDROOT
BRANCH   3   6
ATOM      6  C   UNL     1      -2.860  12.445  22.400  0.00  0.00    +0.000 A 
ATOM      7  C   UNL     1      -3.980  12.894  21.680  0.00  0.00    +0.000 A 
ATOM      8  C   UNL     1      -5.193  13.150  22.323  0.00  0.00    +0.000 A 
ATOM      9  C   UNL     1      -5.303  12.964  23.697  0.00  0.00    +0.000 A 
ATOM     10  C   UNL     1      -4.200  12.524  24.428  0.00  0.00    +0.000 A 
ATOM     11  C   UNL     1      -2.986  12.271  23.785  0.00  0.00    +0.000 A 
ENDBRANCH   3   6
BRANCH   1  13
ATOM     12  C   UNL     1       0.397   9.865  18.374  0.00  0.00    +0.000 C 
ATOM     13  N   UNL     1       0.693  10.005  19.808  0.00  0.00    +0.000 N 
ATOM     14  C   UNL     1       1.310   9.014  20.607  0.00  0.00    +0.000 C 
ATOM     15  O   UNL     1       1.363   9.075  21.840  0.00  0.00    +0.000 OA
BRANCH  14  16
ATOM     16  C   UNL     1       1.801   7.739  19.997  0.00  0.00    +0.000 A 
ATOM     17  C   UNL     1       2.471   7.685  18.774  0.00  0.00    +0.000 A 
ATOM     18  C   UNL     1       2.796   6.451  18.197  0.00  0.00    +0.000 A 
ATOM     19  C   UNL     1       2.542   5.250  18.878  0.00  0.00    +0.000 A 
ATOM     20  C   UNL     1       1.951   5.310  20.148  0.00  0.00    +0.000 A 
ATOM     21  C   UNL     1       1.577   6.542  20.698  0.00  0.00    +0.000 A 
BRANCH  19  22
ATOM     22  C   UNL     1       2.936   3.920  18.277  0.00  0.00    +0.000 C 
ATOM     23  F   UNL     1       3.101   3.966  16.925  0.00  0.00    +0.000 F 
ATOM     24  F   UNL     1       4.108   3.449  18.781  0.00  0.00    +0.000 F 
ATOM     25  F   UNL     1       2.011   2.947  18.504  0.00  0.00    +0.000 F 
ENDBRANCH  19  22
ENDBRANCH  14  16
ENDBRANCH   1  13
BRANCH   5  26
ATOM     26  C   UNL     1       2.004  12.840  20.337  0.00  0.00    +0.000 C 
ATOM     27  O   UNL     1       2.376  12.919  19.174  0.00  0.00    +0.000 OA
BRANCH  26  28
ATOM     28  O   UNL     1       2.767  13.324  21.361  0.00  0.00    +0.000 OA
ATOM     29  H   UNL     1       3.035  12.605  21.963  0.00  0.00    +0.000 HD
ENDBRANCH  26  28
ENDBRANCH   5  26
TORSDOF 6
ENDMDL
MODEL 8
REMARK VINA RESULT:      -7.2      2.522      3.320
REMARK  Name = 
REMARK  7 active torsions:
REMARK  status: ('A' for Active; 'I' for Inactive)
REMARK    1  A    between atoms: C_1  and  N_2
REMARK    2  A    between atoms: N_2  and  C_15
REMARK    3  A    between atoms: C_3  and  C_5
REMARK    4  A    between atoms: C_8  and  C_9
REMARK    5  A    between atoms: C_17  and  C_18
REMARK    6  A    between atoms: C_25  and  C_26
REMARK    7  A    between atoms: C_26  and  O_28
REMARK                            x       y       z     vdW  Elec       q    Type
REMARK                         _______ _______ _______ _____ _____    ______ ____
ROOT
ATOM      1  C   UNL     1       0.007  11.228  20.592  0.00  0.00    +0.000 A 
ATOM      2  C   UNL     1      -1.352  11.195  21.043  0.00  0.00    +0.000 A 
ATOM      3  C   UNL     1      -1.725  12.285  21.800  0.00  0.00    +0.000 A 
ATOM      4  S   UNL     1      -0.433  13.394  21.916  0.00  0.00    +0.000 S 
ATOM      5  C   UNL     1       0.618  12.417  20.963  0.00  0.00    +0.000 A 
ENDROOT
BRANCH   3   6
ATOM      6  C   UNL     1      -3.010  12.508  22.477  0.00  0.00    +0.000 A 
ATOM      7  C   UNL     1      -4.127  12.921  21.731  0.00  0.00    +0.000 A 
ATOM      8  C   UNL     1      -5.357  13.161  22.349  0.00  0.00    +0.000 A 
ATOM      9  C   UNL     1      -5.487  12.992  23.724  0.00  0.00    +0.000 A 
ATOM     10  C   UNL     1      -4.388  12.587  24.480  0.00  0.00    +0.000 A 
ATOM     11  C   UNL     1      -3.157  12.352  23.862  0.00  0.00    +0.000 A 
ENDBRANCH   3   6
BRANCH   1  13
ATOM     12  C   UNL     1       0.285  10.035  18.448  0.00  0.00    +0.000 C 
ATOM     13  N   UNL     1       0.593  10.147  19.882  0.00  0.00    +0.000 N 
ATOM     14  C   UNL     1       1.233   9.147  20.652  0.00  0.00    +0.000 C 
ATOM     15  O   UNL     1       1.298   9.181  21.885  0.00  0.00    +0.000 OA
BRANCH  14  16
ATOM     16  C   UNL     1       1.736   7.894  20.008  0.00  0.00    +0.000 A 
ATOM     17  C   UNL     1       2.343   7.870  18.750  0.00  0.00    +0.000 A 
ATOM     18  C   UNL     1       2.681   6.653  18.149  0.00  0.00    +0.000 A 
ATOM     19  C   UNL     1       2.507   5.440  18.833  0.00  0.00    +0.000 A 
ATOM     20  C   UNL     1       1.981   5.471  20.133  0.00  0.00    +0.000 A 
ATOM     21  C   UNL     1       1.593   6.686  20.711  0.00  0.00    +0.000 A 
BRANCH  19  22
ATOM     22  C   UNL     1       2.915   4.128  18.203  0.00  0.00    +0.000 C 
ATOM     23  F   UNL     1       2.775   3.060  19.040  0.00  0.00    +0.000 F 
ATOM     24  F   UNL     1       2.185   3.834  17.095  0.00  0.00    +0.000 F 
ATOM     25  F   UNL     1       4.219   4.118  17.809  0.00  0.00    +0.000 F 
ENDBRANCH  19  22
ENDBRANCH  14  16
ENDBRANCH   1  13
BRANCH   5  26
ATOM     26  C   UNL     1       1.913  12.944  20.569  0.00  0.00    +0.000 C 
ATOM     27  O   UNL     1       2.842  13.201  21.323  0.00  0.00    +0.000 OA
BRANCH  26  28
ATOM     28  O   UNL     1       2.041  13.069  19.215  0.00  0.00    +0.000 OA
ATOM     29  H   UNL     1       1.252  12.720  18.759  0.00  0.00    +0.000 HD
ENDBRANCH  26  28
ENDBRANCH   5  26
TORSDOF 6
ENDMDL
MODEL 9
REMARK VINA RESULT:      -7.2      5.791      9.241
REMARK  Name = 
REMARK  7 active torsions:
REMARK  status: ('A' for Active; 'I' for Inactive)
REMARK    1  A    between atoms: C_1  and  N_2
REMARK    2  A    between atoms: N_2  and  C_15
REMARK    3  A    between atoms: C_3  and  C_5
REMARK    4  A    between atoms: C_8  and  C_9
REMARK    5  A    between atoms: C_17  and  C_18
REMARK    6  A    between atoms: C_25  and  C_26
REMARK    7  A    between atoms: C_26  and  O_28
REMARK                            x       y       z     vdW  Elec       q    Type
REMARK                         _______ _______ _______ _____ _____    ______ ____
ROOT
ATOM      1  C   UNL     1       0.599   9.837  19.964  0.00  0.00    +0.000 A 
ATOM      2  C   UNL     1       1.261   9.143  18.899  0.00  0.00    +0.000 A 
ATOM      3  C   UNL     1       1.895   7.982  19.286  0.00  0.00    +0.000 A 
ATOM      4  S   UNL     1       1.636   7.693  20.949  0.00  0.00    +0.000 S 
ATOM      5  C   UNL     1       0.684   9.116  21.146  0.00  0.00    +0.000 A 
ENDROOT
BRANCH   3   6
ATOM      6  C   UNL     1       2.728   7.098  18.460  0.00  0.00    +0.000 A 
ATOM      7  C   UNL     1       2.526   5.707  18.508  0.00  0.00    +0.000 A 
ATOM      8  C   UNL     1       3.315   4.839  17.750  0.00  0.00    +0.000 A 
ATOM      9  C   UNL     1       4.319   5.349  16.932  0.00  0.00    +0.000 A 
ATOM     10  C   UNL     1       4.536   6.725  16.876  0.00  0.00    +0.000 A 
ATOM     11  C   UNL     1       3.750   7.593  17.638  0.00  0.00    +0.000 A 
ENDBRANCH   3   6
BRANCH   1  13
ATOM     12  C   UNL     1      -1.175  11.147  18.853  0.00  0.00    +0.000 C 
ATOM     13  N   UNL     1      -0.026  11.097  19.769  0.00  0.00    +0.000 N 
ATOM     14  C   UNL     1       0.643  12.230  20.290  0.00  0.00    +0.000 C 
ATOM     15  O   UNL     1       1.722  12.163  20.890  0.00  0.00    +0.000 OA
BRANCH  14  16
ATOM     16  C   UNL     1       0.147  13.610  19.997  0.00  0.00    +0.000 A 
ATOM     17  C   UNL     1      -0.889  14.218  20.709  0.00  0.00    +0.000 A 
ATOM     18  C   UNL     1      -1.390  15.462  20.308  0.00  0.00    +0.000 A 
ATOM     19  C   UNL     1      -0.802  16.166  19.245  0.00  0.00    +0.000 A 
ATOM     20  C   UNL     1       0.297  15.595  18.588  0.00  0.00    +0.000 A 
ATOM     21  C   UNL     1       0.762  14.326  18.956  0.00  0.00    +0.000 A 
BRANCH  19  22
ATOM     22  C   UNL     1      -1.313  17.530  18.842  0.00  0.00    +0.000 C 
ATOM     23  F   UNL     1      -1.038  17.848  17.545  0.00  0.00    +0.000 F 
ATOM     24  F   UNL     1      -2.661  17.641  18.977  0.00  0.00    +0.000 F 
ATOM     25  F   UNL     1      -0.776  18.534  19.590  0.00  0.00    +0.000 F 
ENDBRANCH  19  22
ENDBRANCH  14  16
ENDBRANCH   1  13
BRANCH   5  26
ATOM     26  C   UNL     1       0.015   9.351  22.413  0.00  0.00    +0.000 C 
ATOM     27  O   UNL     1       0.267  10.252  23.202  0.00  0.00    +0.000 OA
BRANCH  26  28
ATOM     28  O   UNL     1      -1.018   8.484  22.631  0.00  0.00    +0.000 OA
ATOM     29  H   UNL     1      -0.730   7.562  22.498  0.00  0.00    +0.000 HD
ENDBRANCH  26  28
ENDBRANCH   5  26
TORSDOF 6
ENDMDL
