MODEL 1
REMARK VINA RESULT:      -6.7      0.000      0.000
REMARK  Name = 
REMARK  13 active torsions:
REMARK  status: ('A' for Active; 'I' for Inactive)
REMARK    1  A    between atoms: C_1  and  C_2
REMARK    2  A    between atoms: C_2  and  C_3
REMARK    3  A    between atoms: C_3  and  C_4
REMARK    4  A    between atoms: C_4  and  C_5
REMARK    5  A    between atoms: C_5  and  C_6
REMARK    6  A    between atoms: C_6  and  C_7
REMARK    7  A    between atoms: C_7  and  C_8
REMARK    8  A    between atoms: C_8  and  C_9
REMARK    9  A    between atoms: C_9  and  C_10
REMARK   10  A    between atoms: C_10  and  O_11
REMARK   11  A    between atoms: C_16  and  C_17
REMARK   12  A    between atoms: C_17  and  C_18
REMARK   13  A    between atoms: C_18  and  O_19
REMARK                            x       y       z     vdW  Elec       q    Type
REMARK                         _______ _______ _______ _____ _____    ______ ____
ROOT
ATOM      1  C   UNL     1       5.607   4.883  18.373  0.00  0.00    +0.000 C 
ATOM      2  C   UNL     1       6.726   5.616  18.323  0.00  0.00    +0.000 C 
ATOM      3  C   UNL     1       7.698   5.807  19.422  0.00  0.00    +0.000 C 
ATOM      4  O   UNL     1       7.925   5.109  20.390  0.00  0.00    +0.000 OA
ATOM      5  N   UNL     1       8.348   6.993  19.130  0.00  0.00    +0.000 N 
ATOM      6  C   UNL     1       8.151   7.529  17.795  0.00  0.00    +0.000 C 
ATOM      7  C   UNL     1       7.108   6.565  17.246  0.00  0.00    +0.000 C 
ATOM      8  O   UNL     1       6.672   6.576  16.111  0.00  0.00    +0.000 OA
ATOM      9  H   UNL     1       9.078   7.297  19.761  0.00  0.00    +0.000 HD
ENDROOT
BRANCH   1  10
ATOM     10  O   UNL     1       5.335   4.113  19.494  0.00  0.00    +0.000 OA
ATOM     11  H   UNL     1       4.993   4.663  20.217  0.00  0.00    +0.000 HD
ENDBRANCH   1  10
BRANCH   1  12
ATOM     12  C   UNL     1       4.498   5.009  17.352  0.00  0.00    +0.000 C 
BRANCH  12  13
ATOM     13  C   UNL     1       3.845   3.688  16.960  0.00  0.00    +0.000 C 
BRANCH  13  14
ATOM     14  C   UNL     1       2.395   3.625  17.452  0.00  0.00    +0.000 C 
BRANCH  14  15
ATOM     15  C   UNL     1       2.138   2.285  18.134  0.00  0.00    +0.000 C 
BRANCH  15  16
ATOM     16  C   UNL     1       0.759   2.237  18.778  0.00  0.00    +0.000 C 
BRANCH  16  17
ATOM     17  C   UNL     1       0.619   3.345  19.819  0.00  0.00    +0.000 C 
BRANCH  17  18
ATOM     18  C   UNL     1       1.469   3.046  21.048  0.00  0.00    +0.000 C 
BRANCH  18  20
ATOM     19  C   UNL     1       1.990   5.450  20.559  0.00  0.00    +0.000 C 
ATOM     20  C   UNL     1       2.322   4.252  21.432  0.00  0.00    +0.000 C 
ENDBRANCH  18  20
ENDBRANCH  17  18
ENDBRANCH  16  17
ENDBRANCH  15  16
ENDBRANCH  14  15
ENDBRANCH  13  14
ENDBRANCH  12  13
ENDBRANCH   1  12
BRANCH   6  21
ATOM     21  C   UNL     1       7.617   8.952  17.776  0.00  0.00    +0.000 C 
BRANCH  21  22
ATOM     22  C   UNL     1       8.686   9.964  18.152  0.00  0.00    +0.000 C 
BRANCH  22  23
ATOM     23  O   UNL     1       9.200   9.664  19.441  0.00  0.00    +0.000 OA
ATOM     24  H   UNL     1       8.532   9.135  19.910  0.00  0.00    +0.000 HD
ENDBRANCH  22  23
ENDBRANCH  21  22
ENDBRANCH   6  21
TORSDOF 12
ENDMDL
MODEL 2
REMARK VINA RESULT:      -6.4      2.633      3.695
REMARK  Name = 
REMARK  13 active torsions:
REMARK  status: ('A' for Active; 'I' for Inactive)
REMARK    1  A    between atoms: C_1  and  C_2
REMARK    2  A    between atoms: C_2  and  C_3
REMARK    3  A    between atoms: C_3  and  C_4
REMARK    4  A    between atoms: C_4  and  C_5
REMARK    5  A    between atoms: C_5  and  C_6
REMARK    6  A    between atoms: C_6  and  C_7
REMARK    7  A    between atoms: C_7  and  C_8
REMARK    8  A    between atoms: C_8  and  C_9
REMARK    9  A    between atoms: C_9  and  C_10
REMARK   10  A    between atoms: C_10  and  O_11
REMARK   11  A    between atoms: C_16  and  C_17
REMARK   12  A    between atoms: C_17  and  C_18
REMARK   13  A    between atoms: C_18  and  O_19
REMARK                            x       y       z     vdW  Elec       q    Type
REMARK                         _______ _______ _______ _____ _____    ______ ____
ROOT
ATOM      1  C   UNL     1       5.078   5.094  18.599  0.00  0.00    +0.000 C 
ATOM      2  C   UNL     1       5.869   4.581  17.648  0.00  0.00    +0.000 C 
ATOM      3  C   UNL     1       7.348   4.588  17.642  0.00  0.00    +0.000 C 
ATOM      4  O   UNL     1       8.129   4.673  18.569  0.00  0.00    +0.000 OA
ATOM      5  N   UNL     1       7.707   4.465  16.312  0.00  0.00    +0.000 N 
ATOM      6  C   UNL     1       6.653   4.083  15.389  0.00  0.00    +0.000 C 
ATOM      7  C   UNL     1       5.439   4.107  16.307  0.00  0.00    +0.000 C 
ATOM      8  O   UNL     1       4.311   3.785  15.988  0.00  0.00    +0.000 OA
ATOM      9  H   UNL     1       8.694   4.429  16.092  0.00  0.00    +0.000 HD
ENDROOT
BRANCH   1  10
ATOM     10  O   UNL     1       5.634   5.590  19.768  0.00  0.00    +0.000 OA
ATOM     11  H   UNL     1       6.023   6.467  19.622  0.00  0.00    +0.000 HD
ENDBRANCH   1  10
BRANCH   1  12
ATOM     12  C   UNL     1       3.605   5.363  18.382  0.00  0.00    +0.000 C 
BRANCH  12  13
ATOM     13  C   UNL     1       3.020   6.444  19.285  0.00  0.00    +0.000 C 
BRANCH  13  14
ATOM     14  C   UNL     1       2.112   5.833  20.357  0.00  0.00    +0.000 C 
BRANCH  14  15
ATOM     15  C   UNL     1       1.338   4.656  19.770  0.00  0.00    +0.000 C 
BRANCH  15  16
ATOM     16  C   UNL     1       1.092   3.571  20.810  0.00  0.00    +0.000 C 
BRANCH  16  17
ATOM     17  C   UNL     1       1.985   2.363  20.540  0.00  0.00    +0.000 C 
BRANCH  17  18
ATOM     18  C   UNL     1       2.089   2.089  19.044  0.00  0.00    +0.000 C 
BRANCH  18  20
ATOM     19  C   UNL     1       4.464   1.863  19.818  0.00  0.00    +0.000 C 
ATOM     20  C   UNL     1       3.500   1.650  18.662  0.00  0.00    +0.000 C 
ENDBRANCH  18  20
ENDBRANCH  17  18
ENDBRANCH  16  17
ENDBRANCH  15  16
ENDBRANCH  14  15
ENDBRANCH  13  14
ENDBRANCH  12  13
ENDBRANCH   1  12
BRANCH   6  21
ATOM     21  C   UNL     1       6.463   5.055  14.236  0.00  0.00    +0.000 C 
BRANCH  21  22
ATOM     22  C   UNL     1       7.606   4.983  13.238  0.00  0.00    +0.000 C 
BRANCH  22  23
ATOM     23  O   UNL     1       8.630   5.893  13.615  0.00  0.00    +0.000 OA
ATOM     24  H   UNL     1       8.526   6.079  14.563  0.00  0.00    +0.000 HD
ENDBRANCH  22  23
ENDBRANCH  21  22
ENDBRANCH   6  21
TORSDOF 12
ENDMDL
MODEL 3
REMARK VINA RESULT:      -6.2      3.319      6.956
REMARK  Name = 
REMARK  13 active torsions:
REMARK  status: ('A' for Active; 'I' for Inactive)
REMARK    1  A    between atoms: C_1  and  C_2
REMARK    2  A    between atoms: C_2  and  C_3
REMARK    3  A    between atoms: C_3  and  C_4
REMARK    4  A    between atoms: C_4  and  C_5
REMARK    5  A    between atoms: C_5  and  C_6
REMARK    6  A    between atoms: C_6  and  C_7
REMARK    7  A    between atoms: C_7  and  C_8
REMARK    8  A    between atoms: C_8  and  C_9
REMARK    9  A    between atoms: C_9  and  C_10
REMARK   10  A    between atoms: C_10  and  O_11
REMARK   11  A    between atoms: C_16  and  C_17
REMARK   12  A    between atoms: C_17  and  C_18
REMARK   13  A    between atoms: C_18  and  O_19
REMARK                            x       y       z     vdW  Elec       q    Type
REMARK                         _______ _______ _______ _____ _____    ______ ____
ROOT
ATOM      1  C   UNL     1       5.113   4.504  18.871  0.00  0.00    +0.000 C 
ATOM      2  C   UNL     1       4.248   4.021  19.772  0.00  0.00    +0.000 C 
ATOM      3  C   UNL     1       4.279   2.674  20.381  0.00  0.00    +0.000 C 
ATOM      4  O   UNL     1       5.210   1.905  20.523  0.00  0.00    +0.000 OA
ATOM      5  N   UNL     1       2.982   2.430  20.794  0.00  0.00    +0.000 N 
ATOM      6  C   UNL     1       2.082   3.570  20.806  0.00  0.00    +0.000 C 
ATOM      7  C   UNL     1       2.959   4.641  20.174  0.00  0.00    +0.000 C 
ATOM      8  O   UNL     1       2.649   5.808  20.033  0.00  0.00    +0.000 OA
ATOM      9  H   UNL     1       2.793   1.554  21.262  0.00  0.00    +0.000 HD
ENDROOT
BRANCH   1  10
ATOM     10  O   UNL     1       6.231   3.763  18.521  0.00  0.00    +0.000 OA
ATOM     11  H   UNL     1       6.655   4.130  17.728  0.00  0.00    +0.000 HD
ENDBRANCH   1  10
BRANCH   1  12
ATOM     12  C   UNL     1       4.828   5.736  18.041  0.00  0.00    +0.000 C 
BRANCH  12  13
ATOM     13  C   UNL     1       6.017   6.240  17.230  0.00  0.00    +0.000 C 
BRANCH  13  14
ATOM     14  C   UNL     1       5.689   6.267  15.733  0.00  0.00    +0.000 C 
BRANCH  14  15
ATOM     15  C   UNL     1       5.038   4.949  15.322  0.00  0.00    +0.000 C 
BRANCH  15  16
ATOM     16  C   UNL     1       6.070   3.938  14.843  0.00  0.00    +0.000 C 
BRANCH  16  17
ATOM     17  C   UNL     1       6.963   4.556  13.770  0.00  0.00    +0.000 C 
BRANCH  17  18
ATOM     18  C   UNL     1       6.611   4.011  12.391  0.00  0.00    +0.000 C 
BRANCH  18  20
ATOM     19  C   UNL     1       4.575   3.134  11.219  0.00  0.00    +0.000 C 
ATOM     20  C   UNL     1       5.435   3.041  12.467  0.00  0.00    +0.000 C 
ENDBRANCH  18  20
ENDBRANCH  17  18
ENDBRANCH  16  17
ENDBRANCH  15  16
ENDBRANCH  14  15
ENDBRANCH  13  14
ENDBRANCH  12  13
ENDBRANCH   1  12
BRANCH   6  21
ATOM     21  C   UNL     1       0.820   3.366  19.983  0.00  0.00    +0.000 C 
BRANCH  21  22
ATOM     22  C   UNL     1       1.135   3.052  18.530  0.00  0.00    +0.000 C 
BRANCH  22  23
ATOM     23  O   UNL     1       1.437   1.672  18.392  0.00  0.00    +0.000 OA
ATOM     24  H   UNL     1       1.896   1.553  17.543  0.00  0.00    +0.000 HD
ENDBRANCH  22  23
ENDBRANCH  21  22
ENDBRANCH   6  21
TORSDOF 12
ENDMDL
MODEL 4
REMARK VINA RESULT:      -6.2      3.094      6.522
REMARK  Name = 
REMARK  13 active torsions:
REMARK  status: ('A' for Active; 'I' for Inactive)
REMARK    1  A    between atoms: C_1  and  C_2
REMARK    2  A    between atoms: C_2  and  C_3
REMARK    3  A    between atoms: C_3  and  C_4
REMARK    4  A    between atoms: C_4  and  C_5
REMARK    5  A    between atoms: C_5  and  C_6
REMARK    6  A    between atoms: C_6  and  C_7
REMARK    7  A    between atoms: C_7  and  C_8
REMARK    8  A    between atoms: C_8  and  C_9
REMARK    9  A    between atoms: C_9  and  C_10
REMARK   10  A    between atoms: C_10  and  O_11
REMARK   11  A    between atoms: C_16  and  C_17
REMARK   12  A    between atoms: C_17  and  C_18
REMARK   13  A    between atoms: C_18  and  O_19
REMARK                            x       y       z     vdW  Elec       q    Type
REMARK                         _______ _______ _______ _____ _____    ______ ____
ROOT
ATOM      1  C   UNL     1       1.976   5.875  19.628  0.00  0.00    +0.000 C 
ATOM      2  C   UNL     1       1.749   4.557  19.581  0.00  0.00    +0.000 C 
ATOM      3  C   UNL     1       1.932   3.597  20.691  0.00  0.00    +0.000 C 
ATOM      4  O   UNL     1       1.933   3.786  21.892  0.00  0.00    +0.000 OA
ATOM      5  N   UNL     1       2.106   2.366  20.083  0.00  0.00    +0.000 N 
ATOM      6  C   UNL     1       1.784   2.291  18.670  0.00  0.00    +0.000 C 
ATOM      7  C   UNL     1       1.490   3.752  18.359  0.00  0.00    +0.000 C 
ATOM      8  O   UNL     1       1.103   4.178  17.288  0.00  0.00    +0.000 OA
ATOM      9  H   UNL     1       2.229   1.559  20.680  0.00  0.00    +0.000 HD
ENDROOT
BRANCH   1  10
ATOM     10  O   UNL     1       2.304   6.478  20.834  0.00  0.00    +0.000 OA
ATOM     11  H   UNL     1       3.259   6.644  20.889  0.00  0.00    +0.000 HD
ENDBRANCH   1  10
BRANCH   1  12
ATOM     12  C   UNL     1       2.106   6.730  18.387  0.00  0.00    +0.000 C 
BRANCH  12  13
ATOM     13  C   UNL     1       3.540   6.954  17.920  0.00  0.00    +0.000 C 
BRANCH  13  14
ATOM     14  C   UNL     1       4.324   5.638  17.904  0.00  0.00    +0.000 C 
BRANCH  14  15
ATOM     15  C   UNL     1       4.842   5.361  16.496  0.00  0.00    +0.000 C 
BRANCH  15  16
ATOM     16  C   UNL     1       5.860   4.228  16.484  0.00  0.00    +0.000 C 
BRANCH  16  17
ATOM     17  C   UNL     1       7.185   4.698  17.079  0.00  0.00    +0.000 C 
BRANCH  17  18
ATOM     18  C   UNL     1       7.423   6.173  16.776  0.00  0.00    +0.000 C 
BRANCH  18  20
ATOM     19  C   UNL     1       7.855   8.437  17.762  0.00  0.00    +0.000 C 
ATOM     20  C   UNL     1       7.754   6.949  18.047  0.00  0.00    +0.000 C 
ENDBRANCH  18  20
ENDBRANCH  17  18
ENDBRANCH  16  17
ENDBRANCH  15  16
ENDBRANCH  14  15
ENDBRANCH  13  14
ENDBRANCH  12  13
ENDBRANCH   1  12
BRANCH   6  21
ATOM     21  C   UNL     1       2.927   1.786  17.804  0.00  0.00    +0.000 C 
BRANCH  21  22
ATOM     22  C   UNL     1       4.057   1.206  18.637  0.00  0.00    +0.000 C 
BRANCH  22  23
ATOM     23  O   UNL     1       4.854   2.257  19.163  0.00  0.00    +0.000 OA
ATOM     24  H   UNL     1       5.431   1.876  19.847  0.00  0.00    +0.000 HD
ENDBRANCH  22  23
ENDBRANCH  21  22
ENDBRANCH   6  21
TORSDOF 12
ENDMDL
MODEL 5
REMARK VINA RESULT:      -6.1      1.119      1.883
REMARK  Name = 
REMARK  13 active torsions:
REMARK  status: ('A' for Active; 'I' for Inactive)
REMARK    1  A    between atoms: C_1  and  C_2
REMARK    2  A    between atoms: C_2  and  C_3
REMARK    3  A    between atoms: C_3  and  C_4
REMARK    4  A    between atoms: C_4  and  C_5
REMARK    5  A    between atoms: C_5  and  C_6
REMARK    6  A    between atoms: C_6  and  C_7
REMARK    7  A    between atoms: C_7  and  C_8
REMARK    8  A    between atoms: C_8  and  C_9
REMARK    9  A    between atoms: C_9  and  C_10
REMARK   10  A    between atoms: C_10  and  O_11
REMARK   11  A    between atoms: C_16  and  C_17
REMARK   12  A    between atoms: C_17  and  C_18
REMARK   13  A    between atoms: C_18  and  O_19
REMARK                            x       y       z     vdW  Elec       q    Type
REMARK                         _______ _______ _______ _____ _____    ______ ____
ROOT
ATOM      1  C   UNL     1       6.094   4.413  18.134  0.00  0.00    +0.000 C 
ATOM      2  C   UNL     1       7.058   5.338  18.224  0.00  0.00    +0.000 C 
ATOM      3  C   UNL     1       7.768   5.744  19.456  0.00  0.00    +0.000 C 
ATOM      4  O   UNL     1       7.937   5.135  20.494  0.00  0.00    +0.000 OA
ATOM      5  N   UNL     1       8.241   7.019  19.200  0.00  0.00    +0.000 N 
ATOM      6  C   UNL     1       8.195   7.461  17.818  0.00  0.00    +0.000 C 
ATOM      7  C   UNL     1       7.453   6.303  17.166  0.00  0.00    +0.000 C 
ATOM      8  O   UNL     1       7.232   6.192  15.975  0.00  0.00    +0.000 OA
ATOM      9  H   UNL     1       8.782   7.475  19.924  0.00  0.00    +0.000 HD
ENDROOT
BRANCH   1  10
ATOM     10  O   UNL     1       5.765   3.647  19.242  0.00  0.00    +0.000 OA
ATOM     11  H   UNL     1       6.083   2.735  19.138  0.00  0.00    +0.000 HD
ENDBRANCH   1  10
BRANCH   1  12
ATOM     12  C   UNL     1       5.180   4.296  16.933  0.00  0.00    +0.000 C 
BRANCH  12  13
ATOM     13  C   UNL     1       3.757   4.790  17.171  0.00  0.00    +0.000 C 
BRANCH  13  14
ATOM     14  C   UNL     1       3.758   6.128  17.919  0.00  0.00    +0.000 C 
BRANCH  14  15
ATOM     15  C   UNL     1       2.338   6.477  18.355  0.00  0.00    +0.000 C 
BRANCH  15  16
ATOM     16  C   UNL     1       2.229   6.599  19.869  0.00  0.00    +0.000 C 
BRANCH  16  17
ATOM     17  C   UNL     1       2.379   5.229  20.525  0.00  0.00    +0.000 C 
BRANCH  17  18
ATOM     18  C   UNL     1       1.196   4.330  20.184  0.00  0.00    +0.000 C 
BRANCH  18  20
ATOM     19  C   UNL     1       2.635   2.685  21.412  0.00  0.00    +0.000 C 
ATOM     20  C   UNL     1       1.214   3.056  21.023  0.00  0.00    +0.000 C 
ENDBRANCH  18  20
ENDBRANCH  17  18
ENDBRANCH  16  17
ENDBRANCH  15  16
ENDBRANCH  14  15
ENDBRANCH  13  14
ENDBRANCH  12  13
ENDBRANCH   1  12
BRANCH   6  21
ATOM     21  C   UNL     1       7.432   8.760  17.613  0.00  0.00    +0.000 C 
BRANCH  21  22
ATOM     22  C   UNL     1       8.206   9.961  18.130  0.00  0.00    +0.000 C 
BRANCH  22  23
ATOM     23  O   UNL     1       9.250   9.526  18.989  0.00  0.00    +0.000 OA
ATOM     24  H   UNL     1       9.629   8.716  18.608  0.00  0.00    +0.000 HD
ENDBRANCH  22  23
ENDBRANCH  21  22
ENDBRANCH   6  21
TORSDOF 12
ENDMDL
MODEL 6
REMARK VINA RESULT:      -6.1      3.518      6.587
REMARK  Name = 
REMARK  13 active torsions:
REMARK  status: ('A' for Active; 'I' for Inactive)
REMARK    1  A    between atoms: C_1  and  C_2
REMARK    2  A    between atoms: C_2  and  C_3
REMARK    3  A    between atoms: C_3  and  C_4
REMARK    4  A    between atoms: C_4  and  C_5
REMARK    5  A    between atoms: C_5  and  C_6
REMARK    6  A    between atoms: C_6  and  C_7
REMARK    7  A    between atoms: C_7  and  C_8
REMARK    8  A    between atoms: C_8  and  C_9
REMARK    9  A    between atoms: C_9  and  C_10
REMARK   10  A    between atoms: C_10  and  O_11
REMARK   11  A    between atoms: C_16  and  C_17
REMARK   12  A    between atoms: C_17  and  C_18
REMARK   13  A    between atoms: C_18  and  O_19
REMARK                            x       y       z     vdW  Elec       q    Type
REMARK                         _______ _______ _______ _____ _____    ______ ____
ROOT
ATOM      1  C   UNL     1       2.089   5.793  19.707  0.00  0.00    +0.000 C 
ATOM      2  C   UNL     1       1.647   4.543  19.524  0.00  0.00    +0.000 C 
ATOM      3  C   UNL     1       1.481   3.512  20.572  0.00  0.00    +0.000 C 
ATOM      4  O   UNL     1       1.323   3.639  21.770  0.00  0.00    +0.000 OA
ATOM      5  N   UNL     1       1.533   2.302  19.904  0.00  0.00    +0.000 N 
ATOM      6  C   UNL     1       1.432   2.357  18.456  0.00  0.00    +0.000 C 
ATOM      7  C   UNL     1       1.450   3.861  18.219  0.00  0.00    +0.000 C 
ATOM      8  O   UNL     1       1.319   4.402  17.139  0.00  0.00    +0.000 OA
ATOM      9  H   UNL     1       1.417   1.457  20.448  0.00  0.00    +0.000 HD
ENDROOT
BRANCH   1  10
ATOM     10  O   UNL     1       2.321   6.265  20.990  0.00  0.00    +0.000 OA
ATOM     11  H   UNL     1       3.266   6.436  21.131  0.00  0.00    +0.000 HD
ENDBRANCH   1  10
BRANCH   1  12
ATOM     12  C   UNL     1       2.561   6.670  18.567  0.00  0.00    +0.000 C 
BRANCH  12  13
ATOM     13  C   UNL     1       4.001   6.420  18.132  0.00  0.00    +0.000 C 
BRANCH  13  14
ATOM     14  C   UNL     1       4.315   7.154  16.824  0.00  0.00    +0.000 C 
BRANCH  14  15
ATOM     15  C   UNL     1       5.096   6.235  15.890  0.00  0.00    +0.000 C 
BRANCH  15  16
ATOM     16  C   UNL     1       4.762   4.769  16.134  0.00  0.00    +0.000 C 
BRANCH  16  17
ATOM     17  C   UNL     1       6.041   3.950  16.286  0.00  0.00    +0.000 C 
BRANCH  17  18
ATOM     18  C   UNL     1       7.228   4.851  16.605  0.00  0.00    +0.000 C 
BRANCH  18  20
ATOM     19  C   UNL     1       7.779   6.168  18.666  0.00  0.00    +0.000 C 
ATOM     20  C   UNL     1       7.591   4.777  18.085  0.00  0.00    +0.000 C 
ENDBRANCH  18  20
ENDBRANCH  17  18
ENDBRANCH  16  17
ENDBRANCH  15  16
ENDBRANCH  14  15
ENDBRANCH  13  14
ENDBRANCH  12  13
ENDBRANCH   1  12
BRANCH   6  21
ATOM     21  C   UNL     1       2.592   1.694  17.733  0.00  0.00    +0.000 C 
BRANCH  21  22
ATOM     22  C   UNL     1       3.882   1.776  18.532  0.00  0.00    +0.000 C 
BRANCH  22  23
ATOM     23  O   UNL     1       4.470   0.487  18.628  0.00  0.00    +0.000 OA
ATOM     24  H   UNL     1       4.559   0.135  17.726  0.00  0.00    +0.000 HD
ENDBRANCH  22  23
ENDBRANCH  21  22
ENDBRANCH   6  21
TORSDOF 12
ENDMDL
MODEL 7
REMARK VINA RESULT:      -6.1      2.567      8.304
REMARK  Name = 
REMARK  13 active torsions:
REMARK  status: ('A' for Active; 'I' for Inactive)
REMARK    1  A    between atoms: C_1  and  C_2
REMARK    2  A    between atoms: C_2  and  C_3
REMARK    3  A    between atoms: C_3  and  C_4
REMARK    4  A    between atoms: C_4  and  C_5
REMARK    5  A    between atoms: C_5  and  C_6
REMARK    6  A    between atoms: C_6  and  C_7
REMARK    7  A    between atoms: C_7  and  C_8
REMARK    8  A    between atoms: C_8  and  C_9
REMARK    9  A    between atoms: C_9  and  C_10
REMARK   10  A    between atoms: C_10  and  O_11
REMARK   11  A    between atoms: C_16  and  C_17
REMARK   12  A    between atoms: C_17  and  C_18
REMARK   13  A    between atoms: C_18  and  O_19
REMARK                            x       y       z     vdW  Elec       q    Type
REMARK                         _______ _______ _______ _____ _____    ______ ____
ROOT
ATOM      1  C   UNL     1       7.223   5.925  17.108  0.00  0.00    +0.000 C 
ATOM      2  C   UNL     1       6.418   4.895  17.401  0.00  0.00    +0.000 C 
ATOM      3  C   UNL     1       5.762   3.993  16.429  0.00  0.00    +0.000 C 
ATOM      4  O   UNL     1       6.073   3.722  15.286  0.00  0.00    +0.000 OA
ATOM      5  N   UNL     1       4.668   3.472  17.097  0.00  0.00    +0.000 N 
ATOM      6  C   UNL     1       4.626   3.681  18.533  0.00  0.00    +0.000 C 
ATOM      7  C   UNL     1       5.834   4.586  18.732  0.00  0.00    +0.000 C 
ATOM      8  O   UNL     1       6.248   4.979  19.805  0.00  0.00    +0.000 OA
ATOM      9  H   UNL     1       4.089   2.805  16.604  0.00  0.00    +0.000 HD
ENDROOT
BRANCH   1  10
ATOM     10  O   UNL     1       7.610   6.147  15.795  0.00  0.00    +0.000 OA
ATOM     11  H   UNL     1       6.954   5.791  15.175  0.00  0.00    +0.000 HD
ENDBRANCH   1  10
BRANCH   1  12
ATOM     12  C   UNL     1       7.571   7.003  18.110  0.00  0.00    +0.000 C 
BRANCH  12  13
ATOM     13  C   UNL     1       7.943   8.346  17.491  0.00  0.00    +0.000 C 
BRANCH  13  14
ATOM     14  C   UNL     1       8.495   9.306  18.550  0.00  0.00    +0.000 C 
BRANCH  14  15
ATOM     15  C   UNL     1       9.347  10.380  17.881  0.00  0.00    +0.000 C 
BRANCH  15  16
ATOM     16  C   UNL     1       8.736  11.765  18.045  0.00  0.00    +0.000 C 
BRANCH  16  17
ATOM     17  C   UNL     1       9.785  12.754  18.548  0.00  0.00    +0.000 C 
BRANCH  17  18
ATOM     18  C   UNL     1      11.068  12.644  17.733  0.00  0.00    +0.000 C 
BRANCH  18  20
ATOM     19  C   UNL     1      11.883  12.022  20.021  0.00  0.00    +0.000 C 
ATOM     20  C   UNL     1      12.287  12.513  18.641  0.00  0.00    +0.000 C 
ENDBRANCH  18  20
ENDBRANCH  17  18
ENDBRANCH  16  17
ENDBRANCH  15  16
ENDBRANCH  14  15
ENDBRANCH  13  14
ENDBRANCH  12  13
ENDBRANCH   1  12
BRANCH   6  21
ATOM     21  C   UNL     1       3.363   4.372  19.018  0.00  0.00    +0.000 C 
BRANCH  21  22
ATOM     22  C   UNL     1       2.392   4.645  17.881  0.00  0.00    +0.000 C 
BRANCH  22  23
ATOM     23  O   UNL     1       1.731   3.443  17.516  0.00  0.00    +0.000 OA
ATOM     24  H   UNL     1       0.791   3.651  17.379  0.00  0.00    +0.000 HD
ENDBRANCH  22  23
ENDBRANCH  21  22
ENDBRANCH   6  21
TORSDOF 12
ENDMDL
MODEL 8
REMARK VINA RESULT:      -6.1      3.489      7.145
REMARK  Name = 
REMARK  13 active torsions:
REMARK  status: ('A' for Active; 'I' for Inactive)
REMARK    1  A    between atoms: C_1  and  C_2
REMARK    2  A    between atoms: C_2  and  C_3
REMARK    3  A    between atoms: C_3  and  C_4
REMARK    4  A    between atoms: C_4  and  C_5
REMARK    5  A    between atoms: C_5  and  C_6
REMARK    6  A    between atoms: C_6  and  C_7
REMARK    7  A    between atoms: C_7  and  C_8
REMARK    8  A    between atoms: C_8  and  C_9
REMARK    9  A    between atoms: C_9  and  C_10
REMARK   10  A    between atoms: C_10  and  O_11
REMARK   11  A    between atoms: C_16  and  C_17
REMARK   12  A    between atoms: C_17  and  C_18
REMARK   13  A    between atoms: C_18  and  O_19
REMARK                            x       y       z     vdW  Elec       q    Type
REMARK                         _______ _______ _______ _____ _____    ______ ____
ROOT
ATOM      1  C   UNL     1       3.366   5.570  17.851  0.00  0.00    +0.000 C 
ATOM      2  C   UNL     1       2.373   5.213  18.675  0.00  0.00    +0.000 C 
ATOM      3  C   UNL     1       1.979   5.904  19.921  0.00  0.00    +0.000 C 
ATOM      4  O   UNL     1       2.154   7.058  20.260  0.00  0.00    +0.000 OA
ATOM      5  N   UNL     1       1.329   4.947  20.679  0.00  0.00    +0.000 N 
ATOM      6  C   UNL     1       0.961   3.720  19.994  0.00  0.00    +0.000 C 
ATOM      7  C   UNL     1       1.616   3.935  18.637  0.00  0.00    +0.000 C 
ATOM      8  O   UNL     1       1.522   3.184  17.685  0.00  0.00    +0.000 OA
ATOM      9  H   UNL     1       0.957   5.228  21.576  0.00  0.00    +0.000 HD
ENDROOT
BRANCH   1  10
ATOM     10  O   UNL     1       4.053   6.755  18.069  0.00  0.00    +0.000 OA
ATOM     11  H   UNL     1       4.745   6.882  17.400  0.00  0.00    +0.000 HD
ENDBRANCH   1  10
BRANCH   1  12
ATOM     12  C   UNL     1       3.935   4.641  16.801  0.00  0.00    +0.000 C 
BRANCH  12  13
ATOM     13  C   UNL     1       5.144   3.833  17.260  0.00  0.00    +0.000 C 
BRANCH  13  14
ATOM     14  C   UNL     1       6.442   4.418  16.693  0.00  0.00    +0.000 C 
BRANCH  14  15
ATOM     15  C   UNL     1       6.127   5.324  15.507  0.00  0.00    +0.000 C 
BRANCH  15  16
ATOM     16  C   UNL     1       6.886   4.899  14.257  0.00  0.00    +0.000 C 
BRANCH  16  17
ATOM     17  C   UNL     1       6.334   3.580  13.722  0.00  0.00    +0.000 C 
BRANCH  17  18
ATOM     18  C   UNL     1       6.219   3.617  12.202  0.00  0.00    +0.000 C 
BRANCH  18  20
ATOM     19  C   UNL     1       3.989   3.292  11.104  0.00  0.00    +0.000 C 
ATOM     20  C   UNL     1       5.200   2.597  11.704  0.00  0.00    +0.000 C 
ENDBRANCH  18  20
ENDBRANCH  17  18
ENDBRANCH  16  17
ENDBRANCH  15  16
ENDBRANCH  14  15
ENDBRANCH  13  14
ENDBRANCH  12  13
ENDBRANCH   1  12
BRANCH   6  21
ATOM     21  C   UNL     1       1.507   2.462  20.650  0.00  0.00    +0.000 C 
BRANCH  21  22
ATOM     22  C   UNL     1       2.793   2.731  21.414  0.00  0.00    +0.000 C 
BRANCH  22  23
ATOM     23  O   UNL     1       3.911   2.378  20.613  0.00  0.00    +0.000 OA
ATOM     24  H   UNL     1       4.610   3.033  20.777  0.00  0.00    +0.000 HD
ENDBRANCH  22  23
ENDBRANCH  21  22
ENDBRANCH   6  21
TORSDOF 12
ENDMDL
MODEL 9
REMARK VINA RESULT:      -6.0      3.259      6.620
REMARK  Name = 
REMARK  13 active torsions:
REMARK  status: ('A' for Active; 'I' for Inactive)
REMARK    1  A    between atoms: C_1  and  C_2
REMARK    2  A    between atoms: C_2  and  C_3
REMARK    3  A    between atoms: C_3  and  C_4
REMARK    4  A    between atoms: C_4  and  C_5
REMARK    5  A    between atoms: C_5  and  C_6
REMARK    6  A    between atoms: C_6  and  C_7
REMARK    7  A    between atoms: C_7  and  C_8
REMARK    8  A    between atoms: C_8  and  C_9
REMARK    9  A    between atoms: C_9  and  C_10
REMARK   10  A    between atoms: C_10  and  O_11
REMARK   11  A    between atoms: C_16  and  C_17
REMARK   12  A    between atoms: C_17  and  C_18
REMARK   13  A    between atoms: C_18  and  O_19
REMARK                            x       y       z     vdW  Elec       q    Type
REMARK                         _______ _______ _______ _____ _____    ______ ____
ROOT
ATOM      1  C   UNL     1       2.273   5.977  19.253  0.00  0.00    +0.000 C 
ATOM      2  C   UNL     1       1.999   4.672  19.375  0.00  0.00    +0.000 C 
ATOM      3  C   UNL     1       2.160   3.855  20.597  0.00  0.00    +0.000 C 
ATOM      4  O   UNL     1       2.181   4.195  21.764  0.00  0.00    +0.000 OA
ATOM      5  N   UNL     1       2.283   2.552  20.150  0.00  0.00    +0.000 N 
ATOM      6  C   UNL     1       1.942   2.310  18.760  0.00  0.00    +0.000 C 
ATOM      7  C   UNL     1       1.697   3.729  18.268  0.00  0.00    +0.000 C 
ATOM      8  O   UNL     1       1.314   4.029  17.154  0.00  0.00    +0.000 OA
ATOM      9  H   UNL     1       2.384   1.823  20.844  0.00  0.00    +0.000 HD
ENDROOT
BRANCH   1  10
ATOM     10  O   UNL     1       2.636   6.715  20.370  0.00  0.00    +0.000 OA
ATOM     11  H   UNL     1       2.836   6.132  21.120  0.00  0.00    +0.000 HD
ENDBRANCH   1  10
BRANCH   1  12
ATOM     12  C   UNL     1       2.419   6.662  17.912  0.00  0.00    +0.000 C 
BRANCH  12  13
ATOM     13  C   UNL     1       3.641   7.564  17.792  0.00  0.00    +0.000 C 
BRANCH  13  14
ATOM     14  C   UNL     1       4.598   7.053  16.709  0.00  0.00    +0.000 C 
BRANCH  14  15
ATOM     15  C   UNL     1       6.017   6.979  17.265  0.00  0.00    +0.000 C 
BRANCH  15  16
ATOM     16  C   UNL     1       6.678   5.645  16.941  0.00  0.00    +0.000 C 
BRANCH  16  17
ATOM     17  C   UNL     1       5.627   4.545  16.821  0.00  0.00    +0.000 C 
BRANCH  17  18
ATOM     18  C   UNL     1       5.929   3.633  15.637  0.00  0.00    +0.000 C 
BRANCH  18  20
ATOM     19  C   UNL     1       6.428   3.892  13.194  0.00  0.00    +0.000 C 
ATOM     20  C   UNL     1       5.488   4.273  14.324  0.00  0.00    +0.000 C 
ENDBRANCH  18  20
ENDBRANCH  17  18
ENDBRANCH  16  17
ENDBRANCH  15  16
ENDBRANCH  14  15
ENDBRANCH  13  14
ENDBRANCH  12  13
ENDBRANCH   1  12
BRANCH   6  21
ATOM     21  C   UNL     1       3.056   1.657  17.958  0.00  0.00    +0.000 C 
BRANCH  21  22
ATOM     22  C   UNL     1       4.155   1.110  18.853  0.00  0.00    +0.000 C 
BRANCH  22  23
ATOM     23  O   UNL     1       4.946   2.178  19.351  0.00  0.00    +0.000 OA
ATOM     24  H   UNL     1       5.821   2.120  18.931  0.00  0.00    +0.000 HD
ENDBRANCH  22  23
ENDBRANCH  21  22
ENDBRANCH   6  21
TORSDOF 12
ENDMDL
