MODEL 1
REMARK VINA RESULT:      -6.9      0.000      0.000
REMARK  Name = 
REMARK  10 active torsions:
REMARK  status: ('A' for Active; 'I' for Inactive)
REMARK    1  A    between atoms: C_1  and  O_2
REMARK    2  A    between atoms: O_2  and  C_3
REMARK    3  A    between atoms: C_7  and  C_8
REMARK    4  A    between atoms: C_8  and  N_9
REMARK    5  A    between atoms: N_12  and  C_13
REMARK    6  A    between atoms: C_13  and  C_14
REMARK    7  A    between atoms: C_14  and  C_15
REMARK    8  A    between atoms: C_14  and  C_16
REMARK    9  A    between atoms: C_19  and  C_20
REMARK   10  A    between atoms: C_21  and  O_22
REMARK                            x       y       z     vdW  Elec       q    Type
REMARK                         _______ _______ _______ _____ _____    ______ ____
ROOT
ATOM      1  N   UNL     1       4.119   5.770  18.255  0.00  0.00    +0.000 NA
ATOM      2  C   UNL     1       3.902   4.454  17.613  0.00  0.00    +0.000 C 
ATOM      3  C   UNL     1       4.788   4.049  16.409  0.00  0.00    +0.000 C 
ATOM      4  N   UNL     1       5.939   4.900  16.114  0.00  0.00    +0.000 N 
ATOM      5  C   UNL     1       6.197   6.059  16.847  0.00  0.00    +0.000 C 
ATOM      6  O   UNL     1       6.970   6.938  16.468  0.00  0.00    +0.000 OA
ATOM      7  C   UNL     1       5.586   6.077  18.254  0.00  0.00    +0.000 C 
ATOM      8  C   UNL     1       6.425   5.103  19.096  0.00  0.00    +0.000 C 
ENDROOT
BRANCH   1   9
ATOM      9  C   UNL     1       3.390   6.872  17.578  0.00  0.00    +0.000 C 
BRANCH   9  14
ATOM     10  C   UNL     1       1.246   8.497  20.404  0.00  0.00    +0.000 A 
ATOM     11  C   UNL     1       0.865   9.670  19.733  0.00  0.00    +0.000 A 
ATOM     12  C   UNL     1       1.332   9.943  18.454  0.00  0.00    +0.000 A 
ATOM     13  C   UNL     1       2.143   9.013  17.807  0.00  0.00    +0.000 A 
ATOM     14  C   UNL     1       2.525   7.802  18.428  0.00  0.00    +0.000 A 
ATOM     15  C   UNL     1       2.112   7.591  19.760  0.00  0.00    +0.000 A 
BRANCH  10  17
ATOM     16  C   UNL     1      -0.250   9.391  22.048  0.00  0.00    +0.000 C 
ATOM     17  O   UNL     1       0.739   8.443  21.673  0.00  0.00    +0.000 OA
ENDBRANCH  10  17
BRANCH  15  18
ATOM     18  O   UNL     1       2.627   6.538  20.463  0.00  0.00    +0.000 OA
ATOM     19  H   UNL     1       3.575   6.736  20.611  0.00  0.00    +0.000 HD
ENDBRANCH  15  18
ENDBRANCH   9  14
ENDBRANCH   1   9
BRANCH   4  20
ATOM     20  C   UNL     1       6.939   4.444  15.149  0.00  0.00    +0.000 C 
BRANCH  20  21
ATOM     21  C   UNL     1       6.654   4.784  13.680  0.00  0.00    +0.000 C 
ATOM     22  C   UNL     1       7.895   5.341  12.987  0.00  0.00    +0.000 C 
ATOM     23  C   UNL     1       6.160   3.527  12.951  0.00  0.00    +0.000 C 
ENDBRANCH  20  21
ENDBRANCH   4  20
TORSDOF 6
ENDMDL
MODEL 2
REMARK VINA RESULT:      -6.6      1.118      1.438
REMARK  Name = 
REMARK  10 active torsions:
REMARK  status: ('A' for Active; 'I' for Inactive)
REMARK    1  A    between atoms: C_1  and  O_2
REMARK    2  A    between atoms: O_2  and  C_3
REMARK    3  A    between atoms: C_7  and  C_8
REMARK    4  A    between atoms: C_8  and  N_9
REMARK    5  A    between atoms: N_12  and  C_13
REMARK    6  A    between atoms: C_13  and  C_14
REMARK    7  A    between atoms: C_14  and  C_15
REMARK    8  A    between atoms: C_14  and  C_16
REMARK    9  A    between atoms: C_19  and  C_20
REMARK   10  A    between atoms: C_21  and  O_22
REMARK                            x       y       z     vdW  Elec       q    Type
REMARK                         _______ _______ _______ _____ _____    ______ ____
ROOT
ATOM      1  N   UNL     1       4.644   5.102  18.004  0.00  0.00    +0.000 NA
ATOM      2  C   UNL     1       5.057   3.783  17.472  0.00  0.00    +0.000 C 
ATOM      3  C   UNL     1       5.462   3.666  15.983  0.00  0.00    +0.000 C 
ATOM      4  N   UNL     1       5.627   4.913  15.238  0.00  0.00    +0.000 N 
ATOM      5  C   UNL     1       5.374   6.153  15.826  0.00  0.00    +0.000 C 
ATOM      6  O   UNL     1       5.229   7.189  15.179  0.00  0.00    +0.000 OA
ATOM      7  C   UNL     1       5.473   6.169  17.357  0.00  0.00    +0.000 C 
ATOM      8  C   UNL     1       6.972   6.079  17.689  0.00  0.00    +0.000 C 
ENDROOT
BRANCH   1   9
ATOM      9  C   UNL     1       3.208   5.395  17.776  0.00  0.00    +0.000 C 
BRANCH   9  14
ATOM     10  C   UNL     1       1.691   7.948  20.308  0.00  0.00    +0.000 A 
ATOM     11  C   UNL     1       1.404   8.990  19.413  0.00  0.00    +0.000 A 
ATOM     12  C   UNL     1       1.744   8.889  18.071  0.00  0.00    +0.000 A 
ATOM     13  C   UNL     1       2.324   7.715  17.596  0.00  0.00    +0.000 A 
ATOM     14  C   UNL     1       2.600   6.625  18.452  0.00  0.00    +0.000 A 
ATOM     15  C   UNL     1       2.328   6.787  19.827  0.00  0.00    +0.000 A 
BRANCH  10  17
ATOM     16  C   UNL     1       0.682   9.497  21.832  0.00  0.00    +0.000 C 
ATOM     17  O   UNL     1       1.342   8.263  21.593  0.00  0.00    +0.000 OA
ENDBRANCH  10  17
BRANCH  15  18
ATOM     18  O   UNL     1       2.768   5.844  20.713  0.00  0.00    +0.000 OA
ATOM     19  H   UNL     1       2.414   4.984  20.407  0.00  0.00    +0.000 HD
ENDBRANCH  15  18
ENDBRANCH   9  14
ENDBRANCH   1   9
BRANCH   4  20
ATOM     20  C   UNL     1       6.234   4.879  13.908  0.00  0.00    +0.000 C 
BRANCH  20  21
ATOM     21  C   UNL     1       6.014   3.589  13.107  0.00  0.00    +0.000 C 
ATOM     22  C   UNL     1       4.664   3.599  12.396  0.00  0.00    +0.000 C 
ATOM     23  C   UNL     1       7.148   3.422  12.087  0.00  0.00    +0.000 C 
ENDBRANCH  20  21
ENDBRANCH   4  20
TORSDOF 6
ENDMDL
MODEL 3
REMARK VINA RESULT:      -6.6      3.154      7.637
REMARK  Name = 
REMARK  10 active torsions:
REMARK  status: ('A' for Active; 'I' for Inactive)
REMARK    1  A    between atoms: C_1  and  O_2
REMARK    2  A    between atoms: O_2  and  C_3
REMARK    3  A    between atoms: C_7  and  C_8
REMARK    4  A    between atoms: C_8  and  N_9
REMARK    5  A    between atoms: N_12  and  C_13
REMARK    6  A    between atoms: C_13  and  C_14
REMARK    7  A    between atoms: C_14  and  C_15
REMARK    8  A    between atoms: C_14  and  C_16
REMARK    9  A    between atoms: C_19  and  C_20
REMARK   10  A    between atoms: C_21  and  O_22
REMARK                            x       y       z     vdW  Elec       q    Type
REMARK                         _______ _______ _______ _____ _____    ______ ____
ROOT
ATOM      1  N   UNL     1       5.554   5.199  17.131  0.00  0.00    +0.000 NA
ATOM      2  C   UNL     1       4.425   6.124  17.374  0.00  0.00    +0.000 C 
ATOM      3  C   UNL     1       3.339   5.732  18.405  0.00  0.00    +0.000 C 
ATOM      4  N   UNL     1       3.609   4.565  19.244  0.00  0.00    +0.000 N 
ATOM      5  C   UNL     1       4.767   3.804  19.084  0.00  0.00    +0.000 C 
ATOM      6  O   UNL     1       4.904   2.678  19.561  0.00  0.00    +0.000 OA
ATOM      7  C   UNL     1       5.936   4.545  18.424  0.00  0.00    +0.000 C 
ATOM      8  C   UNL     1       6.471   5.525  19.481  0.00  0.00    +0.000 C 
ENDROOT
BRANCH   1   9
ATOM      9  C   UNL     1       5.238   4.150  16.130  0.00  0.00    +0.000 C 
BRANCH   9  14
ATOM     10  C   UNL     1       7.470   5.076  13.066  0.00  0.00    +0.000 A 
ATOM     11  C   UNL     1       6.899   4.212  12.119  0.00  0.00    +0.000 A 
ATOM     12  C   UNL     1       5.886   3.333  12.476  0.00  0.00    +0.000 A 
ATOM     13  C   UNL     1       5.389   3.351  13.778  0.00  0.00    +0.000 A 
ATOM     14  C   UNL     1       5.908   4.227  14.758  0.00  0.00    +0.000 A 
ATOM     15  C   UNL     1       6.998   5.046  14.393  0.00  0.00    +0.000 A 
BRANCH  10  17
ATOM     16  C   UNL     1       8.254   6.557  11.354  0.00  0.00    +0.000 C 
ATOM     17  O   UNL     1       8.495   5.812  12.539  0.00  0.00    +0.000 OA
ENDBRANCH  10  17
BRANCH  15  18
ATOM     18  O   UNL     1       7.658   5.752  15.359  0.00  0.00    +0.000 OA
ATOM     19  H   UNL     1       7.329   5.425  16.221  0.00  0.00    +0.000 HD
ENDBRANCH  15  18
ENDBRANCH   9  14
ENDBRANCH   1   9
BRANCH   4  20
ATOM     20  C   UNL     1       2.739   4.288  20.387  0.00  0.00    +0.000 C 
BRANCH  20  21
ATOM     21  C   UNL     1       1.966   2.964  20.333  0.00  0.00    +0.000 C 
ATOM     22  C   UNL     1       1.509   2.530  21.723  0.00  0.00    +0.000 C 
ATOM     23  C   UNL     1       0.757   3.116  19.401  0.00  0.00    +0.000 C 
ENDBRANCH  20  21
ENDBRANCH   4  20
TORSDOF 6
ENDMDL
MODEL 4
REMARK VINA RESULT:      -6.5      2.601      3.500
REMARK  Name = 
REMARK  10 active torsions:
REMARK  status: ('A' for Active; 'I' for Inactive)
REMARK    1  A    between atoms: C_1  and  O_2
REMARK    2  A    between atoms: O_2  and  C_3
REMARK    3  A    between atoms: C_7  and  C_8
REMARK    4  A    between atoms: C_8  and  N_9
REMARK    5  A    between atoms: N_12  and  C_13
REMARK    6  A    between atoms: C_13  and  C_14
REMARK    7  A    between atoms: C_14  and  C_15
REMARK    8  A    between atoms: C_14  and  C_16
REMARK    9  A    between atoms: C_19  and  C_20
REMARK   10  A    between atoms: C_21  and  O_22
REMARK                            x       y       z     vdW  Elec       q    Type
REMARK                         _______ _______ _______ _____ _____    ______ ____
ROOT
ATOM      1  N   UNL     1       5.209   5.791  18.337  0.00  0.00    +0.000 NA
ATOM      2  C   UNL     1       5.344   4.352  18.018  0.00  0.00    +0.000 C 
ATOM      3  C   UNL     1       5.212   3.891  16.545  0.00  0.00    +0.000 C 
ATOM      4  N   UNL     1       5.180   4.936  15.523  0.00  0.00    +0.000 N 
ATOM      5  C   UNL     1       5.209   6.289  15.860  0.00  0.00    +0.000 C 
ATOM      6  O   UNL     1       4.908   7.186  15.074  0.00  0.00    +0.000 OA
ATOM      7  C   UNL     1       5.824   6.595  17.232  0.00  0.00    +0.000 C 
ATOM      8  C   UNL     1       7.338   6.383  17.078  0.00  0.00    +0.000 C 
ENDROOT
BRANCH   1   9
ATOM      9  C   UNL     1       3.798   6.213  18.520  0.00  0.00    +0.000 C 
BRANCH   9  14
ATOM     10  C   UNL     1       1.399   3.623  20.180  0.00  0.00    +0.000 A 
ATOM     11  C   UNL     1       0.828   3.085  19.017  0.00  0.00    +0.000 A 
ATOM     12  C   UNL     1       1.161   3.584  17.764  0.00  0.00    +0.000 A 
ATOM     13  C   UNL     1       2.119   4.591  17.659  0.00  0.00    +0.000 A 
ATOM     14  C   UNL     1       2.747   5.139  18.800  0.00  0.00    +0.000 A 
ATOM     15  C   UNL     1       2.324   4.678  20.065  0.00  0.00    +0.000 A 
BRANCH  10  17
ATOM     16  C   UNL     1       1.742   2.203  22.080  0.00  0.00    +0.000 C 
ATOM     17  O   UNL     1       0.894   3.046  21.314  0.00  0.00    +0.000 OA
ENDBRANCH  10  17
BRANCH  15  18
ATOM     18  O   UNL     1       2.753   5.324  21.191  0.00  0.00    +0.000 OA
ATOM     19  H   UNL     1       2.131   5.083  21.908  0.00  0.00    +0.000 HD
ENDBRANCH  15  18
ENDBRANCH   9  14
ENDBRANCH   1   9
BRANCH   4  20
ATOM     20  C   UNL     1       5.296   4.562  14.113  0.00  0.00    +0.000 C 
BRANCH  20  21
ATOM     21  C   UNL     1       6.663   4.022  13.675  0.00  0.00    +0.000 C 
ATOM     22  C   UNL     1       6.564   3.262  12.355  0.00  0.00    +0.000 C 
ATOM     23  C   UNL     1       7.654   5.186  13.543  0.00  0.00    +0.000 C 
ENDBRANCH  20  21
ENDBRANCH   4  20
TORSDOF 6
ENDMDL
MODEL 5
REMARK VINA RESULT:      -6.5      1.310      1.759
REMARK  Name = 
REMARK  10 active torsions:
REMARK  status: ('A' for Active; 'I' for Inactive)
REMARK    1  A    between atoms: C_1  and  O_2
REMARK    2  A    between atoms: O_2  and  C_3
REMARK    3  A    between atoms: C_7  and  C_8
REMARK    4  A    between atoms: C_8  and  N_9
REMARK    5  A    between atoms: N_12  and  C_13
REMARK    6  A    between atoms: C_13  and  C_14
REMARK    7  A    between atoms: C_14  and  C_15
REMARK    8  A    between atoms: C_14  and  C_16
REMARK    9  A    between atoms: C_19  and  C_20
REMARK   10  A    between atoms: C_21  and  O_22
REMARK                            x       y       z     vdW  Elec       q    Type
REMARK                         _______ _______ _______ _____ _____    ______ ____
ROOT
ATOM      1  N   UNL     1       4.288   5.486  18.605  0.00  0.00    +0.000 NA
ATOM      2  C   UNL     1       4.303   4.123  18.027  0.00  0.00    +0.000 C 
ATOM      3  C   UNL     1       5.180   3.842  16.782  0.00  0.00    +0.000 C 
ATOM      4  N   UNL     1       6.117   4.890  16.380  0.00  0.00    +0.000 N 
ATOM      5  C   UNL     1       6.179   6.111  17.051  0.00  0.00    +0.000 C 
ATOM      6  O   UNL     1       6.736   7.106  16.589  0.00  0.00    +0.000 OA
ATOM      7  C   UNL     1       5.660   6.077  18.494  0.00  0.00    +0.000 C 
ATOM      8  C   UNL     1       6.726   5.331  19.313  0.00  0.00    +0.000 C 
ENDROOT
BRANCH   1   9
ATOM      9  C   UNL     1       3.314   6.386  17.939  0.00  0.00    +0.000 C 
BRANCH   9  14
ATOM     10  C   UNL     1       1.306   9.401  19.388  0.00  0.00    +0.000 A 
ATOM     11  C   UNL     1       1.004   8.868  20.650  0.00  0.00    +0.000 A 
ATOM     12  C   UNL     1       1.380   7.574  20.986  0.00  0.00    +0.000 A 
ATOM     13  C   UNL     1       2.118   6.817  20.078  0.00  0.00    +0.000 A 
ATOM     14  C   UNL     1       2.477   7.324  18.808  0.00  0.00    +0.000 A 
ATOM     15  C   UNL     1       2.005   8.607  18.458  0.00  0.00    +0.000 A 
BRANCH  10  17
ATOM     16  C   UNL     1      -0.598  10.855  19.424  0.00  0.00    +0.000 C 
ATOM     17  O   UNL     1       0.794  10.659  19.225  0.00  0.00    +0.000 OA
ENDBRANCH  10  17
BRANCH  15  18
ATOM     18  O   UNL     1       2.152   9.047  17.173  0.00  0.00    +0.000 OA
ATOM     19  H   UNL     1       3.063   9.401  17.099  0.00  0.00    +0.000 HD
ENDBRANCH  15  18
ENDBRANCH   9  14
ENDBRANCH   1   9
BRANCH   4  20
ATOM     20  C   UNL     1       7.130   4.594  15.367  0.00  0.00    +0.000 C 
BRANCH  20  21
ATOM     21  C   UNL     1       6.737   4.906  13.917  0.00  0.00    +0.000 C 
ATOM     22  C   UNL     1       7.937   5.388  13.107  0.00  0.00    +0.000 C 
ATOM     23  C   UNL     1       6.131   3.654  13.271  0.00  0.00    +0.000 C 
ENDBRANCH  20  21
ENDBRANCH   4  20
TORSDOF 6
ENDMDL
MODEL 6
REMARK VINA RESULT:      -6.3      1.060      1.134
REMARK  Name = 
REMARK  10 active torsions:
REMARK  status: ('A' for Active; 'I' for Inactive)
REMARK    1  A    between atoms: C_1  and  O_2
REMARK    2  A    between atoms: O_2  and  C_3
REMARK    3  A    between atoms: C_7  and  C_8
REMARK    4  A    between atoms: C_8  and  N_9
REMARK    5  A    between atoms: N_12  and  C_13
REMARK    6  A    between atoms: C_13  and  C_14
REMARK    7  A    between atoms: C_14  and  C_15
REMARK    8  A    between atoms: C_14  and  C_16
REMARK    9  A    between atoms: C_19  and  C_20
REMARK   10  A    between atoms: C_21  and  O_22
REMARK                            x       y       z     vdW  Elec       q    Type
REMARK                         _______ _______ _______ _____ _____    ______ ____
ROOT
ATOM      1  N   UNL     1       3.094   5.743  18.707  0.00  0.00    +0.000 NA
ATOM      2  C   UNL     1       2.540   4.694  17.822  0.00  0.00    +0.000 C 
ATOM      3  C   UNL     1       3.415   4.139  16.672  0.00  0.00    +0.000 C 
ATOM      4  N   UNL     1       4.824   4.528  16.662  0.00  0.00    +0.000 N 
ATOM      5  C   UNL     1       5.346   5.406  17.613  0.00  0.00    +0.000 C 
ATOM      6  O   UNL     1       6.431   5.971  17.485  0.00  0.00    +0.000 OA
ATOM      7  C   UNL     1       4.553   5.477  18.924  0.00  0.00    +0.000 C 
ATOM      8  C   UNL     1       4.841   4.163  19.668  0.00  0.00    +0.000 C 
ENDROOT
BRANCH   1   9
ATOM      9  C   UNL     1       2.925   7.112  18.160  0.00  0.00    +0.000 C 
BRANCH   9  14
ATOM     10  C   UNL     1       0.680   8.910  20.795  0.00  0.00    +0.000 A 
ATOM     11  C   UNL     1       0.327  10.039  20.040  0.00  0.00    +0.000 A 
ATOM     12  C   UNL     1       0.844  10.233  18.766  0.00  0.00    +0.000 A 
ATOM     13  C   UNL     1       1.677   9.264  18.209  0.00  0.00    +0.000 A 
ATOM     14  C   UNL     1       2.031   8.094  18.917  0.00  0.00    +0.000 A 
ATOM     15  C   UNL     1       1.566   7.965  20.243  0.00  0.00    +0.000 A 
BRANCH  10  17
ATOM     16  C   UNL     1      -0.302  10.182  22.573  0.00  0.00    +0.000 C 
ATOM     17  O   UNL     1       0.124   8.935  22.045  0.00  0.00    +0.000 OA
ENDBRANCH  10  17
BRANCH  15  18
ATOM     18  O   UNL     1       2.051   6.957  21.029  0.00  0.00    +0.000 OA
ATOM     19  H   UNL     1       2.897   7.276  21.405  0.00  0.00    +0.000 HD
ENDBRANCH  15  18
ENDBRANCH   9  14
ENDBRANCH   1   9
BRANCH   4  20
ATOM     20  C   UNL     1       5.747   3.854  15.749  0.00  0.00    +0.000 C 
BRANCH  20  21
ATOM     21  C   UNL     1       5.944   4.524  14.383  0.00  0.00    +0.000 C 
ATOM     22  C   UNL     1       7.361   5.072  14.232  0.00  0.00    +0.000 C 
ATOM     23  C   UNL     1       5.646   3.512  13.270  0.00  0.00    +0.000 C 
ENDBRANCH  20  21
ENDBRANCH   4  20
TORSDOF 6
ENDMDL
MODEL 7
REMARK VINA RESULT:      -6.3      1.824      2.571
REMARK  Name = 
REMARK  10 active torsions:
REMARK  status: ('A' for Active; 'I' for Inactive)
REMARK    1  A    between atoms: C_1  and  O_2
REMARK    2  A    between atoms: O_2  and  C_3
REMARK    3  A    between atoms: C_7  and  C_8
REMARK    4  A    between atoms: C_8  and  N_9
REMARK    5  A    between atoms: N_12  and  C_13
REMARK    6  A    between atoms: C_13  and  C_14
REMARK    7  A    between atoms: C_14  and  C_15
REMARK    8  A    between atoms: C_14  and  C_16
REMARK    9  A    between atoms: C_19  and  C_20
REMARK   10  A    between atoms: C_21  and  O_22
REMARK                            x       y       z     vdW  Elec       q    Type
REMARK                         _______ _______ _______ _____ _____    ______ ____
ROOT
ATOM      1  N   UNL     1       2.319   4.962  19.653  0.00  0.00    +0.000 NA
ATOM      2  C   UNL     1       1.870   4.896  18.244  0.00  0.00    +0.000 C 
ATOM      3  C   UNL     1       2.891   4.512  17.146  0.00  0.00    +0.000 C 
ATOM      4  N   UNL     1       4.194   4.020  17.592  0.00  0.00    +0.000 N 
ATOM      5  C   UNL     1       4.525   3.953  18.946  0.00  0.00    +0.000 C 
ATOM      6  O   UNL     1       5.678   3.817  19.352  0.00  0.00    +0.000 OA
ATOM      7  C   UNL     1       3.323   3.877  19.897  0.00  0.00    +0.000 C 
ATOM      8  C   UNL     1       2.752   2.458  19.748  0.00  0.00    +0.000 C 
ENDROOT
BRANCH   1   9
ATOM      9  C   UNL     1       2.921   6.271  20.008  0.00  0.00    +0.000 C 
BRANCH   9  14
ATOM     10  C   UNL     1       0.720   9.492  19.981  0.00  0.00    +0.000 A 
ATOM     11  C   UNL     1       0.825   9.810  18.618  0.00  0.00    +0.000 A 
ATOM     12  C   UNL     1       1.621   9.052  17.769  0.00  0.00    +0.000 A 
ATOM     13  C   UNL     1       2.275   7.927  18.266  0.00  0.00    +0.000 A 
ATOM     14  C   UNL     1       2.171   7.546  19.623  0.00  0.00    +0.000 A 
ATOM     15  C   UNL     1       1.431   8.385  20.483  0.00  0.00    +0.000 A 
BRANCH  10  17
ATOM     16  C   UNL     1       0.502  11.664  20.969  0.00  0.00    +0.000 C 
ATOM     17  O   UNL     1      -0.053  10.394  20.660  0.00  0.00    +0.000 OA
ENDBRANCH  10  17
BRANCH  15  18
ATOM     18  O   UNL     1       1.475   8.169  21.832  0.00  0.00    +0.000 OA
ATOM     19  H   UNL     1       1.600   9.045  22.253  0.00  0.00    +0.000 HD
ENDBRANCH  15  18
ENDBRANCH   9  14
ENDBRANCH   1   9
BRANCH   4  20
ATOM     20  C   UNL     1       5.106   3.423  16.617  0.00  0.00    +0.000 C 
BRANCH  20  21
ATOM     21  C   UNL     1       5.917   4.410  15.768  0.00  0.00    +0.000 C 
ATOM     22  C   UNL     1       7.275   4.704  16.401  0.00  0.00    +0.000 C 
ATOM     23  C   UNL     1       6.103   3.838  14.357  0.00  0.00    +0.000 C 
ENDBRANCH  20  21
ENDBRANCH   4  20
TORSDOF 6
ENDMDL
MODEL 8
REMARK VINA RESULT:      -6.2      3.192      7.722
REMARK  Name = 
REMARK  10 active torsions:
REMARK  status: ('A' for Active; 'I' for Inactive)
REMARK    1  A    between atoms: C_1  and  O_2
REMARK    2  A    between atoms: O_2  and  C_3
REMARK    3  A    between atoms: C_7  and  C_8
REMARK    4  A    between atoms: C_8  and  N_9
REMARK    5  A    between atoms: N_12  and  C_13
REMARK    6  A    between atoms: C_13  and  C_14
REMARK    7  A    between atoms: C_14  and  C_15
REMARK    8  A    between atoms: C_14  and  C_16
REMARK    9  A    between atoms: C_19  and  C_20
REMARK   10  A    between atoms: C_21  and  O_22
REMARK                            x       y       z     vdW  Elec       q    Type
REMARK                         _______ _______ _______ _____ _____    ______ ____
ROOT
ATOM      1  N   UNL     1       4.834   3.660  17.225  0.00  0.00    +0.000 NA
ATOM      2  C   UNL     1       5.245   4.102  18.576  0.00  0.00    +0.000 C 
ATOM      3  C   UNL     1       4.179   4.685  19.535  0.00  0.00    +0.000 C 
ATOM      4  N   UNL     1       2.780   4.561  19.128  0.00  0.00    +0.000 N 
ATOM      5  C   UNL     1       2.424   3.994  17.904  0.00  0.00    +0.000 C 
ATOM      6  O   UNL     1       1.307   4.119  17.403  0.00  0.00    +0.000 OA
ATOM      7  C   UNL     1       3.471   3.045  17.308  0.00  0.00    +0.000 C 
ATOM      8  C   UNL     1       3.418   1.765  18.157  0.00  0.00    +0.000 C 
ENDROOT
BRANCH   1   9
ATOM      9  C   UNL     1       4.810   4.767  16.236  0.00  0.00    +0.000 C 
BRANCH   9  14
ATOM     10  C   UNL     1       7.585   5.194  13.527  0.00  0.00    +0.000 A 
ATOM     11  C   UNL     1       7.087   4.297  12.569  0.00  0.00    +0.000 A 
ATOM     12  C   UNL     1       5.944   3.549  12.820  0.00  0.00    +0.000 A 
ATOM     13  C   UNL     1       5.251   3.736  14.015  0.00  0.00    +0.000 A 
ATOM     14  C   UNL     1       5.694   4.653  14.994  0.00  0.00    +0.000 A 
ATOM     15  C   UNL     1       6.907   5.333  14.754  0.00  0.00    +0.000 A 
BRANCH  10  17
ATOM     16  C   UNL     1       8.768   6.470  11.880  0.00  0.00    +0.000 C 
ATOM     17  O   UNL     1       8.752   5.783  13.122  0.00  0.00    +0.000 OA
ENDBRANCH  10  17
BRANCH  15  18
ATOM     18  O   UNL     1       7.474   6.067  15.757  0.00  0.00    +0.000 OA
ATOM     19  H   UNL     1       6.791   6.699  16.064  0.00  0.00    +0.000 HD
ENDBRANCH  15  18
ENDBRANCH   9  14
ENDBRANCH   1   9
BRANCH   4  20
ATOM     20  C   UNL     1       1.724   4.874  20.090  0.00  0.00    +0.000 C 
BRANCH  20  21
ATOM     21  C   UNL     1       1.215   3.697  20.931  0.00  0.00    +0.000 C 
ATOM     22  C   UNL     1       0.466   2.682  20.071  0.00  0.00    +0.000 C 
ATOM     23  C   UNL     1       2.399   3.022  21.635  0.00  0.00    +0.000 C 
ENDBRANCH  20  21
ENDBRANCH   4  20
TORSDOF 6
ENDMDL
MODEL 9
REMARK VINA RESULT:      -6.2      2.968      3.908
REMARK  Name = 
REMARK  10 active torsions:
REMARK  status: ('A' for Active; 'I' for Inactive)
REMARK    1  A    between atoms: C_1  and  O_2
REMARK    2  A    between atoms: O_2  and  C_3
REMARK    3  A    between atoms: C_7  and  C_8
REMARK    4  A    between atoms: C_8  and  N_9
REMARK    5  A    between atoms: N_12  and  C_13
REMARK    6  A    between atoms: C_13  and  C_14
REMARK    7  A    between atoms: C_14  and  C_15
REMARK    8  A    between atoms: C_14  and  C_16
REMARK    9  A    between atoms: C_19  and  C_20
REMARK   10  A    between atoms: C_21  and  O_22
REMARK                            x       y       z     vdW  Elec       q    Type
REMARK                         _______ _______ _______ _____ _____    ______ ____
ROOT
ATOM      1  N   UNL     1       5.824   6.159  18.058  0.00  0.00    +0.000 NA
ATOM      2  C   UNL     1       7.175   6.056  17.463  0.00  0.00    +0.000 C 
ATOM      3  C   UNL     1       7.430   5.013  16.348  0.00  0.00    +0.000 C 
ATOM      4  N   UNL     1       6.259   4.337  15.790  0.00  0.00    +0.000 N 
ATOM      5  C   UNL     1       4.975   4.578  16.279  0.00  0.00    +0.000 C 
ATOM      6  O   UNL     1       4.015   3.847  16.042  0.00  0.00    +0.000 OA
ATOM      7  C   UNL     1       4.801   5.928  16.987  0.00  0.00    +0.000 C 
ATOM      8  C   UNL     1       4.810   6.994  15.880  0.00  0.00    +0.000 C 
ENDROOT
BRANCH   1   9
ATOM      9  C   UNL     1       5.601   5.191  19.161  0.00  0.00    +0.000 C 
BRANCH   9  14
ATOM     10  C   UNL     1       2.217   3.357  19.798  0.00  0.00    +0.000 A 
ATOM     11  C   UNL     1       1.450   4.460  20.203  0.00  0.00    +0.000 A 
ATOM     12  C   UNL     1       2.022   5.720  20.322  0.00  0.00    +0.000 A 
ATOM     13  C   UNL     1       3.360   5.901  19.977  0.00  0.00    +0.000 A 
ATOM     14  C   UNL     1       4.163   4.827  19.530  0.00  0.00    +0.000 A 
ATOM     15  C   UNL     1       3.582   3.541  19.506  0.00  0.00    +0.000 A 
BRANCH  10  17
ATOM     16  C   UNL     1       0.596   1.948  18.736  0.00  0.00    +0.000 C 
ATOM     17  O   UNL     1       1.493   2.196  19.808  0.00  0.00    +0.000 OA
ENDBRANCH  10  17
BRANCH  15  18
ATOM     18  O   UNL     1       4.376   2.452  19.281  0.00  0.00    +0.000 OA
ATOM     19  H   UNL     1       3.952   1.938  18.562  0.00  0.00    +0.000 HD
ENDBRANCH  15  18
ENDBRANCH   9  14
ENDBRANCH   1   9
BRANCH   4  20
ATOM     20  C   UNL     1       6.409   3.525  14.583  0.00  0.00    +0.000 C 
BRANCH  20  21
ATOM     21  C   UNL     1       6.146   4.246  13.255  0.00  0.00    +0.000 C 
ATOM     22  C   UNL     1       7.443   4.758  12.633  0.00  0.00    +0.000 C 
ATOM     23  C   UNL     1       5.435   3.292  12.287  0.00  0.00    +0.000 C 
ENDBRANCH  20  21
ENDBRANCH   4  20
TORSDOF 6
ENDMDL
