MODEL 1
REMARK VINA RESULT:      -7.8      0.000      0.000
REMARK  Name = 
REMARK  7 active torsions:
REMARK  status: ('A' for Active; 'I' for Inactive)
REMARK    1  A    between atoms: C_1  and  C_2
REMARK    2  A    between atoms: C_2  and  C_3
REMARK    3  A    between atoms: C_2  and  C_4
REMARK    4  A    between atoms: C_2  and  C_5
REMARK    5  A    between atoms: C_9  and  C_10
REMARK    6  A    between atoms: C_16  and  C_17
REMARK    7  A    between atoms: C_20  and  N_21
REMARK                            x       y       z     vdW  Elec       q    Type
REMARK                         _______ _______ _______ _____ _____    ______ ____
ROOT
ATOM      1  C   UNL     1       0.000  11.050  21.550  0.00  0.00    +0.000 C 
ATOM      2  CA  UNL     1       0.640  10.208  20.729  0.00  0.00    +0.000 A 
ATOM      3  N   UNL     1       1.119  10.596  19.503  0.00  0.00    +0.000 N 
ATOM      4  C   UNL     1       1.684   9.760  18.584  0.00  0.00    +0.000 A 
ATOM      5  O   UNL     1       1.970  10.144  17.453  0.00  0.00    +0.000 OA
ATOM      6  CA  UNL     1       1.936   8.354  19.065  0.00  0.00    +0.000 A 
ATOM      7  C   UNL     1       2.509   7.502  18.200  0.00  0.00    +0.000 C 
ATOM      8  N   UNL     1       1.568   7.997  20.340  0.00  0.00    +0.000 N 
ATOM      9  C   UNL     1       0.857   8.793  21.199  0.00  0.00    +0.000 A 
ATOM     10  O   UNL     1       0.448   8.355  22.269  0.00  0.00    +0.000 OA
ATOM     11  H   UNL     1       0.964  11.548  19.198  0.00  0.00    +0.000 HD
ATOM     12  H   UNL     1       1.766   7.067  20.686  0.00  0.00    +0.000 HD
ENDROOT
BRANCH   1  17
ATOM     13  C   UNL     1      -1.063  13.360  21.569  0.00  0.00    +0.000 A 
ATOM     14  N   UNL     1      -0.442  14.582  21.365  0.00  0.00    +0.000 N 
ATOM     15  C   UNL     1       0.897  14.372  21.213  0.00  0.00    +0.000 A 
ATOM     16  N   UNL     1       1.181  13.095  21.244  0.00  0.00    +0.000 NA
ATOM     17  C   UNL     1      -0.021  12.462  21.439  0.00  0.00    +0.000 A 
ATOM     18  H   UNL     1      -0.889  15.487  21.340  0.00  0.00    +0.000 HD
BRANCH  13  20
ATOM     19  C   UNL     1      -3.123  14.640  22.082  0.00  0.00    +0.000 C 
ATOM     20  C   UNL     1      -2.558  13.238  21.791  0.00  0.00    +0.000 C 
ATOM     21  C   UNL     1      -2.872  12.292  22.973  0.00  0.00    +0.000 C 
ATOM     22  C   UNL     1      -3.290  12.659  20.565  0.00  0.00    +0.000 C 
ENDBRANCH  13  20
ENDBRANCH   1  17
BRANCH   7  23
ATOM     23  C   UNL     1       2.868   6.116  18.487  0.00  0.00    +0.000 A 
ATOM     24  C   UNL     1       2.000   5.069  18.162  0.00  0.00    +0.000 A 
ATOM     25  C   UNL     1       2.376   3.745  18.402  0.00  0.00    +0.000 A 
ATOM     26  C   UNL     1       3.627   3.478  18.976  0.00  0.00    +0.000 A 
ATOM     27  C   UNL     1       4.493   4.525  19.321  0.00  0.00    +0.000 A 
ATOM     28  C   UNL     1       4.106   5.844  19.078  0.00  0.00    +0.000 A 
BRANCH  26  29
ATOM     29  N   UNL     1       4.039   2.089  19.211  0.00  0.00    +0.000 N 
ATOM     30  O   UNL     1       3.605   1.222  18.439  0.00  0.00    +0.000 OA
ATOM     31  O   UNL     1       4.797   1.866  20.166  0.00  0.00    +0.000 OA
ENDBRANCH  26  29
ENDBRANCH   7  23
TORSDOF 4
ENDMDL
MODEL 2
REMARK VINA RESULT:      -7.8      0.319      1.378
REMARK  Name = 
REMARK  7 active torsions:
REMARK  status: ('A' for Active; 'I' for Inactive)
REMARK    1  A    between atoms: C_1  and  C_2
REMARK    2  A    between atoms: C_2  and  C_3
REMARK    3  A    between atoms: C_2  and  C_4
REMARK    4  A    between atoms: C_2  and  C_5
REMARK    5  A    between atoms: C_9  and  C_10
REMARK    6  A    between atoms: C_16  and  C_17
REMARK    7  A    between atoms: C_20  and  N_21
REMARK                            x       y       z     vdW  Elec       q    Type
REMARK                         _______ _______ _______ _____ _____    ______ ____
ROOT
ATOM      1  C   UNL     1       0.244  11.037  21.429  0.00  0.00    +0.000 C 
ATOM      2  CA  UNL     1       0.858  10.193  20.590  0.00  0.00    +0.000 A 
ATOM      3  N   UNL     1       1.274  10.573  19.338  0.00  0.00    +0.000 N 
ATOM      4  C   UNL     1       1.810   9.733  18.405  0.00  0.00    +0.000 A 
ATOM      5  O   UNL     1       2.038  10.107  17.257  0.00  0.00    +0.000 OA
ATOM      6  CA  UNL     1       2.105   8.337  18.891  0.00  0.00    +0.000 A 
ATOM      7  C   UNL     1       2.650   7.483  18.010  0.00  0.00    +0.000 C 
ATOM      8  N   UNL     1       1.800   7.992  20.185  0.00  0.00    +0.000 N 
ATOM      9  C   UNL     1       1.118   8.789  21.066  0.00  0.00    +0.000 A 
ATOM     10  O   UNL     1       0.765   8.358  22.159  0.00  0.00    +0.000 OA
ATOM     11  H   UNL     1       1.091  11.519  19.030  0.00  0.00    +0.000 HD
ATOM     12  H   UNL     1       2.029   7.069  20.533  0.00  0.00    +0.000 HD
ENDROOT
BRANCH   1  17
ATOM     13  C   UNL     1      -0.880  13.313  21.285  0.00  0.00    +0.000 A 
ATOM     14  N   UNL     1      -0.274  14.552  21.152  0.00  0.00    +0.000 N 
ATOM     15  C   UNL     1       1.079  14.382  21.178  0.00  0.00    +0.000 A 
ATOM     16  N   UNL     1       1.394  13.114  21.259  0.00  0.00    +0.000 NA
ATOM     17  C   UNL     1       0.196  12.447  21.302  0.00  0.00    +0.000 A 
ATOM     18  H   UNL     1      -0.740  15.443  21.060  0.00  0.00    +0.000 HD
BRANCH  13  20
ATOM     19  C   UNL     1      -2.765  12.322  22.554  0.00  0.00    +0.000 C 
ATOM     20  C   UNL     1      -2.387  13.148  21.312  0.00  0.00    +0.000 C 
ATOM     21  C   UNL     1      -2.892  12.434  20.036  0.00  0.00    +0.000 C 
ATOM     22  C   UNL     1      -3.127  14.497  21.377  0.00  0.00    +0.000 C 
ENDBRANCH  13  20
ENDBRANCH   1  17
BRANCH   7  23
ATOM     23  C   UNL     1       3.043   6.107  18.298  0.00  0.00    +0.000 A 
ATOM     24  C   UNL     1       4.328   5.812  18.766  0.00  0.00    +0.000 A 
ATOM     25  C   UNL     1       4.676   4.496  19.078  0.00  0.00    +0.000 A 
ATOM     26  C   UNL     1       3.729   3.475  18.913  0.00  0.00    +0.000 A 
ATOM     27  C   UNL     1       2.447   3.763  18.427  0.00  0.00    +0.000 A 
ATOM     28  C   UNL     1       2.110   5.081  18.117  0.00  0.00    +0.000 A 
BRANCH  26  29
ATOM     29  N   UNL     1       4.080   2.093  19.261  0.00  0.00    +0.000 N 
ATOM     30  O   UNL     1       4.782   1.913  20.266  0.00  0.00    +0.000 OA
ATOM     31  O   UNL     1       3.653   1.189  18.530  0.00  0.00    +0.000 OA
ENDBRANCH  26  29
ENDBRANCH   7  23
TORSDOF 4
ENDMDL
MODEL 3
REMARK VINA RESULT:      -7.5      2.638      9.666
REMARK  Name = 
REMARK  7 active torsions:
REMARK  status: ('A' for Active; 'I' for Inactive)
REMARK    1  A    between atoms: C_1  and  C_2
REMARK    2  A    between atoms: C_2  and  C_3
REMARK    3  A    between atoms: C_2  and  C_4
REMARK    4  A    between atoms: C_2  and  C_5
REMARK    5  A    between atoms: C_9  and  C_10
REMARK    6  A    between atoms: C_16  and  C_17
REMARK    7  A    between atoms: C_20  and  N_21
REMARK                            x       y       z     vdW  Elec       q    Type
REMARK                         _______ _______ _______ _____ _____    ______ ____
ROOT
ATOM      1  C   UNL     1       3.364   6.342  17.985  0.00  0.00    +0.000 C 
ATOM      2  CA  UNL     1       2.677   7.229  18.715  0.00  0.00    +0.000 A 
ATOM      3  N   UNL     1       2.279   6.972  20.004  0.00  0.00    +0.000 N 
ATOM      4  C   UNL     1       1.490   7.793  20.756  0.00  0.00    +0.000 A 
ATOM      5  O   UNL     1       1.059   7.445  21.853  0.00  0.00    +0.000 OA
ATOM      6  CA  UNL     1       1.206   9.143  20.150  0.00  0.00    +0.000 A 
ATOM      7  C   UNL     1       0.449   9.991  20.866  0.00  0.00    +0.000 C 
ATOM      8  N   UNL     1       1.709   9.448  18.909  0.00  0.00    +0.000 N 
ATOM      9  C   UNL     1       2.363   8.564  18.093  0.00  0.00    +0.000 A 
ATOM     10  O   UNL     1       2.662   8.872  16.943  0.00  0.00    +0.000 OA
ATOM     11  H   UNL     1       2.494   6.070  20.409  0.00  0.00    +0.000 HD
ATOM     12  H   UNL     1       1.556  10.365  18.509  0.00  0.00    +0.000 HD
ENDROOT
BRANCH   1  17
ATOM     13  C   UNL     1       5.364   4.864  18.519  0.00  0.00    +0.000 A 
ATOM     14  N   UNL     1       5.361   3.623  19.136  0.00  0.00    +0.000 N 
ATOM     15  C   UNL     1       4.082   3.317  19.497  0.00  0.00    +0.000 A 
ATOM     16  N   UNL     1       3.246   4.244  19.105  0.00  0.00    +0.000 NA
ATOM     17  C   UNL     1       4.021   5.190  18.482  0.00  0.00    +0.000 A 
ATOM     18  H   UNL     1       6.163   3.034  19.307  0.00  0.00    +0.000 HD
BRANCH  13  20
ATOM     19  C   UNL     1       7.303   4.552  17.006  0.00  0.00    +0.000 C 
ATOM     20  C   UNL     1       6.636   5.512  18.008  0.00  0.00    +0.000 C 
ATOM     21  C   UNL     1       7.611   5.818  19.168  0.00  0.00    +0.000 C 
ATOM     22  C   UNL     1       6.369   6.853  17.299  0.00  0.00    +0.000 C 
ENDBRANCH  13  20
ENDBRANCH   1  17
BRANCH   7  23
ATOM     23  C   UNL     1       0.097  11.351  20.471  0.00  0.00    +0.000 A 
ATOM     24  C   UNL     1      -1.078  11.608  19.756  0.00  0.00    +0.000 A 
ATOM     25  C   UNL     1      -1.424  12.920  19.423  0.00  0.00    +0.000 A 
ATOM     26  C   UNL     1      -0.583  13.973  19.808  0.00  0.00    +0.000 A 
ATOM     27  C   UNL     1       0.604  13.720  20.508  0.00  0.00    +0.000 A 
ATOM     28  C   UNL     1       0.942  12.405  20.834  0.00  0.00    +0.000 A 
BRANCH  26  29
ATOM     29  N   UNL     1      -0.952  15.356  19.482  0.00  0.00    +0.000 N 
ATOM     30  O   UNL     1      -0.424  15.873  18.488  0.00  0.00    +0.000 OA
ATOM     31  O   UNL     1      -1.771  15.923  20.219  0.00  0.00    +0.000 OA
ENDBRANCH  26  29
ENDBRANCH   7  23
TORSDOF 4
ENDMDL
MODEL 4
REMARK VINA RESULT:      -7.5      0.383      1.091
REMARK  Name = 
REMARK  7 active torsions:
REMARK  status: ('A' for Active; 'I' for Inactive)
REMARK    1  A    between atoms: C_1  and  C_2
REMARK    2  A    between atoms: C_2  and  C_3
REMARK    3  A    between atoms: C_2  and  C_4
REMARK    4  A    between atoms: C_2  and  C_5
REMARK    5  A    between atoms: C_9  and  C_10
REMARK    6  A    between atoms: C_16  and  C_17
REMARK    7  A    between atoms: C_20  and  N_21
REMARK                            x       y       z     vdW  Elec       q    Type
REMARK                         _______ _______ _______ _____ _____    ______ ____
ROOT
ATOM      1  C   UNL     1       0.185  11.140  21.428  0.00  0.00    +0.000 C 
ATOM      2  CA  UNL     1       0.789  10.232  20.651  0.00  0.00    +0.000 A 
ATOM      3  N   UNL     1       1.163  10.502  19.358  0.00  0.00    +0.000 N 
ATOM      4  C   UNL     1       1.685   9.589  18.489  0.00  0.00    +0.000 A 
ATOM      5  O   UNL     1       1.875   9.860  17.306  0.00  0.00    +0.000 OA
ATOM      6  CA  UNL     1       2.017   8.247  19.090  0.00  0.00    +0.000 A 
ATOM      7  C   UNL     1       2.550   7.324  18.274  0.00  0.00    +0.000 C 
ATOM      8  N   UNL     1       1.755   8.016  20.418  0.00  0.00    +0.000 N 
ATOM      9  C   UNL     1       1.085   8.880  21.243  0.00  0.00    +0.000 A 
ATOM     10  O   UNL     1       0.770   8.546  22.382  0.00  0.00    +0.000 OA
ATOM     11  H   UNL     1       0.956  11.414  18.971  0.00  0.00    +0.000 HD
ATOM     12  H   UNL     1       2.008   7.132  20.841  0.00  0.00    +0.000 HD
ENDROOT
BRANCH   1  17
ATOM     13  C   UNL     1      -0.938  13.419  21.322  0.00  0.00    +0.000 A 
ATOM     14  N   UNL     1      -0.378  14.624  20.929  0.00  0.00    +0.000 N 
ATOM     15  C   UNL     1       0.944  14.424  20.659  0.00  0.00    +0.000 A 
ATOM     16  N   UNL     1       1.267  13.163  20.791  0.00  0.00    +0.000 NA
ATOM     17  C   UNL     1       0.111  12.532  21.176  0.00  0.00    +0.000 A 
ATOM     18  H   UNL     1      -0.851  15.513  20.859  0.00  0.00    +0.000 HD
BRANCH  13  20
ATOM     19  C   UNL     1      -3.145  12.569  20.576  0.00  0.00    +0.000 C 
ATOM     20  C   UNL     1      -2.398  13.293  21.711  0.00  0.00    +0.000 C 
ATOM     21  C   UNL     1      -3.033  14.682  21.951  0.00  0.00    +0.000 C 
ATOM     22  C   UNL     1      -2.594  12.494  23.014  0.00  0.00    +0.000 C 
ENDBRANCH  13  20
ENDBRANCH   1  17
BRANCH   7  23
ATOM     23  C   UNL     1       2.974   5.985  18.672  0.00  0.00    +0.000 A 
ATOM     24  C   UNL     1       2.044   4.948  18.800  0.00  0.00    +0.000 A 
ATOM     25  C   UNL     1       2.470   3.661  19.140  0.00  0.00    +0.000 A 
ATOM     26  C   UNL     1       3.834   3.422  19.355  0.00  0.00    +0.000 A 
ATOM     27  C   UNL     1       4.768   4.461  19.245  0.00  0.00    +0.000 A 
ATOM     28  C   UNL     1       4.331   5.743  18.908  0.00  0.00    +0.000 A 
BRANCH  26  29
ATOM     29  N   UNL     1       4.292   2.068  19.689  0.00  0.00    +0.000 N 
ATOM     30  O   UNL     1       4.947   1.922  20.730  0.00  0.00    +0.000 OA
ATOM     31  O   UNL     1       3.994   1.150  18.911  0.00  0.00    +0.000 OA
ENDBRANCH  26  29
ENDBRANCH   7  23
TORSDOF 4
ENDMDL
MODEL 5
REMARK VINA RESULT:      -7.4      2.602      9.664
REMARK  Name = 
REMARK  7 active torsions:
REMARK  status: ('A' for Active; 'I' for Inactive)
REMARK    1  A    between atoms: C_1  and  C_2
REMARK    2  A    between atoms: C_2  and  C_3
REMARK    3  A    between atoms: C_2  and  C_4
REMARK    4  A    between atoms: C_2  and  C_5
REMARK    5  A    between atoms: C_9  and  C_10
REMARK    6  A    between atoms: C_16  and  C_17
REMARK    7  A    between atoms: C_20  and  N_21
REMARK                            x       y       z     vdW  Elec       q    Type
REMARK                         _______ _______ _______ _____ _____    ______ ____
ROOT
ATOM      1  C   UNL     1       3.338   6.335  17.985  0.00  0.00    +0.000 C 
ATOM      2  CA  UNL     1       2.648   7.219  18.718  0.00  0.00    +0.000 A 
ATOM      3  N   UNL     1       2.242   6.953  20.002  0.00  0.00    +0.000 N 
ATOM      4  C   UNL     1       1.451   7.770  20.756  0.00  0.00    +0.000 A 
ATOM      5  O   UNL     1       1.013   7.415  21.847  0.00  0.00    +0.000 OA
ATOM      6  CA  UNL     1       1.173   9.126  20.158  0.00  0.00    +0.000 A 
ATOM      7  C   UNL     1       0.414   9.969  20.876  0.00  0.00    +0.000 C 
ATOM      8  N   UNL     1       1.685   9.439  18.922  0.00  0.00    +0.000 N 
ATOM      9  C   UNL     1       2.341   8.559  18.103  0.00  0.00    +0.000 A 
ATOM     10  O   UNL     1       2.647   8.875  16.958  0.00  0.00    +0.000 OA
ATOM     11  H   UNL     1       2.453   6.048  20.402  0.00  0.00    +0.000 HD
ATOM     12  H   UNL     1       1.535  10.359  18.528  0.00  0.00    +0.000 HD
ENDROOT
BRANCH   1  17
ATOM     13  C   UNL     1       5.331   4.850  18.520  0.00  0.00    +0.000 A 
ATOM     14  N   UNL     1       5.323   3.604  19.127  0.00  0.00    +0.000 N 
ATOM     15  C   UNL     1       4.041   3.298  19.478  0.00  0.00    +0.000 A 
ATOM     16  N   UNL     1       3.209   4.230  19.088  0.00  0.00    +0.000 NA
ATOM     17  C   UNL     1       3.990   5.178  18.477  0.00  0.00    +0.000 A 
ATOM     18  H   UNL     1       6.123   3.012  19.298  0.00  0.00    +0.000 HD
BRANCH  13  20
ATOM     19  C   UNL     1       7.531   5.749  19.227  0.00  0.00    +0.000 C 
ATOM     20  C   UNL     1       6.608   5.499  18.021  0.00  0.00    +0.000 C 
ATOM     21  C   UNL     1       6.310   6.836  17.304  0.00  0.00    +0.000 C 
ATOM     22  C   UNL     1       7.358   4.618  17.004  0.00  0.00    +0.000 C 
ENDBRANCH  13  20
ENDBRANCH   1  17
BRANCH   7  23
ATOM     23  C   UNL     1       0.067  11.334  20.489  0.00  0.00    +0.000 A 
ATOM     24  C   UNL     1      -1.198  11.631  19.973  0.00  0.00    +0.000 A 
ATOM     25  C   UNL     1      -1.532  12.949  19.648  0.00  0.00    +0.000 A 
ATOM     26  C   UNL     1      -0.586  13.966  19.840  0.00  0.00    +0.000 A 
ATOM     27  C   UNL     1       0.689  13.670  20.340  0.00  0.00    +0.000 A 
ATOM     28  C   UNL     1       1.012  12.350  20.659  0.00  0.00    +0.000 A 
BRANCH  26  29
ATOM     29  N   UNL     1      -0.937  15.355  19.523  0.00  0.00    +0.000 N 
ATOM     30  O   UNL     1      -1.812  15.899  20.211  0.00  0.00    +0.000 OA
ATOM     31  O   UNL     1      -0.335  15.902  18.588  0.00  0.00    +0.000 OA
ENDBRANCH  26  29
ENDBRANCH   7  23
TORSDOF 4
ENDMDL
MODEL 6
REMARK VINA RESULT:      -7.4      2.528      9.194
REMARK  Name = 
REMARK  7 active torsions:
REMARK  status: ('A' for Active; 'I' for Inactive)
REMARK    1  A    between atoms: C_1  and  C_2
REMARK    2  A    between atoms: C_2  and  C_3
REMARK    3  A    between atoms: C_2  and  C_4
REMARK    4  A    between atoms: C_2  and  C_5
REMARK    5  A    between atoms: C_9  and  C_10
REMARK    6  A    between atoms: C_16  and  C_17
REMARK    7  A    between atoms: C_20  and  N_21
REMARK                            x       y       z     vdW  Elec       q    Type
REMARK                         _______ _______ _______ _____ _____    ______ ____
ROOT
ATOM      1  C   UNL     1       2.938   6.333  19.512  0.00  0.00    +0.000 C 
ATOM      2  CA  UNL     1       2.277   7.495  19.442  0.00  0.00    +0.000 A 
ATOM      3  N   UNL     1       2.368   8.330  18.356  0.00  0.00    +0.000 N 
ATOM      4  C   UNL     1       1.802   9.569  18.273  0.00  0.00    +0.000 A 
ATOM      5  O   UNL     1       2.032  10.320  17.329  0.00  0.00    +0.000 OA
ATOM      6  CA  UNL     1       0.878   9.930  19.407  0.00  0.00    +0.000 A 
ATOM      7  C   UNL     1       0.284  11.133  19.356  0.00  0.00    +0.000 C 
ATOM      8  N   UNL     1       0.689   9.040  20.437  0.00  0.00    +0.000 N 
ATOM      9  C   UNL     1       1.383   7.870  20.594  0.00  0.00    +0.000 A 
ATOM     10  O   UNL     1       1.255   7.195  21.612  0.00  0.00    +0.000 OA
ATOM     11  H   UNL     1       2.975   8.068  17.590  0.00  0.00    +0.000 HD
ATOM     12  H   UNL     1       0.043   9.257  21.184  0.00  0.00    +0.000 HD
ENDROOT
BRANCH   1  17
ATOM     13  C   UNL     1       3.473   4.348  18.016  0.00  0.00    +0.000 A 
ATOM     14  N   UNL     1       4.293   4.324  16.899  0.00  0.00    +0.000 N 
ATOM     15  C   UNL     1       4.743   5.589  16.660  0.00  0.00    +0.000 A 
ATOM     16  N   UNL     1       4.321   6.421  17.577  0.00  0.00    +0.000 NA
ATOM     17  C   UNL     1       3.559   5.664  18.429  0.00  0.00    +0.000 A 
ATOM     18  H   UNL     1       4.523   3.516  16.338  0.00  0.00    +0.000 HD
BRANCH  13  20
ATOM     19  C   UNL     1       3.317   1.887  17.762  0.00  0.00    +0.000 C 
ATOM     20  C   UNL     1       2.792   3.102  18.548  0.00  0.00    +0.000 C 
ATOM     21  C   UNL     1       1.256   3.199  18.397  0.00  0.00    +0.000 C 
ATOM     22  C   UNL     1       3.068   2.874  20.046  0.00  0.00    +0.000 C 
ENDBRANCH  13  20
ENDBRANCH   1  17
BRANCH   7  23
ATOM     23  C   UNL     1      -0.670  11.649  20.333  0.00  0.00    +0.000 A 
ATOM     24  C   UNL     1      -1.943  12.071  19.937  0.00  0.00    +0.000 A 
ATOM     25  C   UNL     1      -2.862  12.521  20.889  0.00  0.00    +0.000 A 
ATOM     26  C   UNL     1      -2.493  12.550  22.242  0.00  0.00    +0.000 A 
ATOM     27  C   UNL     1      -1.213  12.145  22.642  0.00  0.00    +0.000 A 
ATOM     28  C   UNL     1      -0.303  11.699  21.682  0.00  0.00    +0.000 A 
BRANCH  26  29
ATOM     29  N   UNL     1      -3.460  13.000  23.250  0.00  0.00    +0.000 N 
ATOM     30  O   UNL     1      -4.005  12.135  23.951  0.00  0.00    +0.000 OA
ATOM     31  O   UNL     1      -3.671  14.217  23.342  0.00  0.00    +0.000 OA
ENDBRANCH  26  29
ENDBRANCH   7  23
TORSDOF 4
ENDMDL
MODEL 7
REMARK VINA RESULT:      -7.3      2.550      9.167
REMARK  Name = 
REMARK  7 active torsions:
REMARK  status: ('A' for Active; 'I' for Inactive)
REMARK    1  A    between atoms: C_1  and  C_2
REMARK    2  A    between atoms: C_2  and  C_3
REMARK    3  A    between atoms: C_2  and  C_4
REMARK    4  A    between atoms: C_2  and  C_5
REMARK    5  A    between atoms: C_9  and  C_10
REMARK    6  A    between atoms: C_16  and  C_17
REMARK    7  A    between atoms: C_20  and  N_21
REMARK                            x       y       z     vdW  Elec       q    Type
REMARK                         _______ _______ _______ _____ _____    ______ ____
ROOT
ATOM      1  C   UNL     1       2.950   6.355  19.502  0.00  0.00    +0.000 C 
ATOM      2  CA  UNL     1       2.272   7.508  19.437  0.00  0.00    +0.000 A 
ATOM      3  N   UNL     1       2.354   8.350  18.356  0.00  0.00    +0.000 N 
ATOM      4  C   UNL     1       1.770   9.581  18.278  0.00  0.00    +0.000 A 
ATOM      5  O   UNL     1       1.991  10.341  17.339  0.00  0.00    +0.000 OA
ATOM      6  CA  UNL     1       0.837   9.922  19.412  0.00  0.00    +0.000 A 
ATOM      7  C   UNL     1       0.226  11.117  19.366  0.00  0.00    +0.000 C 
ATOM      8  N   UNL     1       0.659   9.024  20.436  0.00  0.00    +0.000 N 
ATOM      9  C   UNL     1       1.369   7.863  20.589  0.00  0.00    +0.000 A 
ATOM     10  O   UNL     1       1.249   7.181  21.602  0.00  0.00    +0.000 OA
ATOM     11  H   UNL     1       2.966   8.101  17.589  0.00  0.00    +0.000 HD
ATOM     12  H   UNL     1       0.007   9.227  21.183  0.00  0.00    +0.000 HD
ENDROOT
BRANCH   1  17
ATOM     13  C   UNL     1       3.503   4.391  17.985  0.00  0.00    +0.000 A 
ATOM     14  N   UNL     1       4.335   4.383  16.877  0.00  0.00    +0.000 N 
ATOM     15  C   UNL     1       4.787   5.651  16.660  0.00  0.00    +0.000 A 
ATOM     16  N   UNL     1       4.354   6.471  17.584  0.00  0.00    +0.000 NA
ATOM     17  C   UNL     1       3.582   5.701  18.417  0.00  0.00    +0.000 A 
ATOM     18  H   UNL     1       4.571   3.583  16.308  0.00  0.00    +0.000 HD
BRANCH  13  20
ATOM     19  C   UNL     1       3.173   2.954  19.978  0.00  0.00    +0.000 C 
ATOM     20  C   UNL     1       2.816   3.138  18.492  0.00  0.00    +0.000 C 
ATOM     21  C   UNL     1       3.263   1.894  17.689  0.00  0.00    +0.000 C 
ATOM     22  C   UNL     1       1.283   3.212  18.361  0.00  0.00    +0.000 C 
ENDBRANCH  13  20
ENDBRANCH   1  17
BRANCH   7  23
ATOM     23  C   UNL     1      -0.738  11.613  20.344  0.00  0.00    +0.000 A 
ATOM     24  C   UNL     1      -1.980  12.111  19.936  0.00  0.00    +0.000 A 
ATOM     25  C   UNL     1      -2.910  12.542  20.885  0.00  0.00    +0.000 A 
ATOM     26  C   UNL     1      -2.584  12.474  22.247  0.00  0.00    +0.000 A 
ATOM     27  C   UNL     1      -1.335  11.993  22.660  0.00  0.00    +0.000 A 
ATOM     28  C   UNL     1      -0.413  11.567  21.703  0.00  0.00    +0.000 A 
BRANCH  26  29
ATOM     29  N   UNL     1      -3.565  12.904  23.252  0.00  0.00    +0.000 N 
ATOM     30  O   UNL     1      -4.001  14.060  23.173  0.00  0.00    +0.000 OA
ATOM     31  O   UNL     1      -3.899  12.083  24.118  0.00  0.00    +0.000 OA
ENDBRANCH  26  29
ENDBRANCH   7  23
TORSDOF 4
ENDMDL
MODEL 8
REMARK VINA RESULT:      -7.3      2.535      9.254
REMARK  Name = 
REMARK  7 active torsions:
REMARK  status: ('A' for Active; 'I' for Inactive)
REMARK    1  A    between atoms: C_1  and  C_2
REMARK    2  A    between atoms: C_2  and  C_3
REMARK    3  A    between atoms: C_2  and  C_4
REMARK    4  A    between atoms: C_2  and  C_5
REMARK    5  A    between atoms: C_9  and  C_10
REMARK    6  A    between atoms: C_16  and  C_17
REMARK    7  A    between atoms: C_20  and  N_21
REMARK                            x       y       z     vdW  Elec       q    Type
REMARK                         _______ _______ _______ _____ _____    ______ ____
ROOT
ATOM      1  C   UNL     1       2.964   6.318  19.507  0.00  0.00    +0.000 C 
ATOM      2  CA  UNL     1       2.291   7.474  19.425  0.00  0.00    +0.000 A 
ATOM      3  N   UNL     1       2.393   8.309  18.341  0.00  0.00    +0.000 N 
ATOM      4  C   UNL     1       1.815   9.542  18.247  0.00  0.00    +0.000 A 
ATOM      5  O   UNL     1       2.054  10.296  17.308  0.00  0.00    +0.000 OA
ATOM      6  CA  UNL     1       0.868   9.893  19.366  0.00  0.00    +0.000 A 
ATOM      7  C   UNL     1       0.262  11.090  19.304  0.00  0.00    +0.000 C 
ATOM      8  N   UNL     1       0.671   9.002  20.392  0.00  0.00    +0.000 N 
ATOM      9  C   UNL     1       1.374   7.839  20.562  0.00  0.00    +0.000 A 
ATOM     10  O   UNL     1       1.236   7.163  21.577  0.00  0.00    +0.000 OA
ATOM     11  H   UNL     1       3.016   8.053  17.585  0.00  0.00    +0.000 HD
ATOM     12  H   UNL     1       0.009   9.212  21.128  0.00  0.00    +0.000 HD
ENDROOT
BRANCH   1  17
ATOM     13  C   UNL     1       3.552   4.337  18.026  0.00  0.00    +0.000 A 
ATOM     14  N   UNL     1       4.387   4.322  16.921  0.00  0.00    +0.000 N 
ATOM     15  C   UNL     1       4.820   5.594  16.682  0.00  0.00    +0.000 A 
ATOM     16  N   UNL     1       4.372   6.422  17.591  0.00  0.00    +0.000 NA
ATOM     17  C   UNL     1       3.610   5.656  18.435  0.00  0.00    +0.000 A 
ATOM     18  H   UNL     1       4.637   3.517  16.366  0.00  0.00    +0.000 HD
BRANCH  13  20
ATOM     19  C   UNL     1       1.367   3.202  18.316  0.00  0.00    +0.000 C 
ATOM     20  C   UNL     1       2.883   3.082  18.553  0.00  0.00    +0.000 C 
ATOM     21  C   UNL     1       3.164   2.892  20.061  0.00  0.00    +0.000 C 
ATOM     22  C   UNL     1       3.389   1.807  17.852  0.00  0.00    +0.000 C 
ENDBRANCH  13  20
ENDBRANCH   1  17
BRANCH   7  23
ATOM     23  C   UNL     1      -0.714  11.596  20.264  0.00  0.00    +0.000 A 
ATOM     24  C   UNL     1      -0.401  11.685  21.624  0.00  0.00    +0.000 A 
ATOM     25  C   UNL     1      -1.330  12.212  22.526  0.00  0.00    +0.000 A 
ATOM     26  C   UNL     1      -2.577  12.645  22.054  0.00  0.00    +0.000 A 
ATOM     27  C   UNL     1      -2.902  12.541  20.695  0.00  0.00    +0.000 A 
ATOM     28  C   UNL     1      -1.968  12.011  19.804  0.00  0.00    +0.000 A 
BRANCH  26  29
ATOM     29  N   UNL     1      -3.549  13.221  22.991  0.00  0.00    +0.000 N 
ATOM     30  O   UNL     1      -3.532  14.448  23.155  0.00  0.00    +0.000 OA
ATOM     31  O   UNL     1      -4.330  12.445  23.561  0.00  0.00    +0.000 OA
ENDBRANCH  26  29
ENDBRANCH   7  23
TORSDOF 4
ENDMDL
MODEL 9
REMARK VINA RESULT:      -7.3      2.617      9.363
REMARK  Name = 
REMARK  7 active torsions:
REMARK  status: ('A' for Active; 'I' for Inactive)
REMARK    1  A    between atoms: C_1  and  C_2
REMARK    2  A    between atoms: C_2  and  C_3
REMARK    3  A    between atoms: C_2  and  C_4
REMARK    4  A    between atoms: C_2  and  C_5
REMARK    5  A    between atoms: C_9  and  C_10
REMARK    6  A    between atoms: C_16  and  C_17
REMARK    7  A    between atoms: C_20  and  N_21
REMARK                            x       y       z     vdW  Elec       q    Type
REMARK                         _______ _______ _______ _____ _____    ______ ____
ROOT
ATOM      1  C   UNL     1       2.985   6.690  18.175  0.00  0.00    +0.000 C 
ATOM      2  CA  UNL     1       2.372   7.620  18.918  0.00  0.00    +0.000 A 
ATOM      3  N   UNL     1       2.087   7.431  20.247  0.00  0.00    +0.000 N 
ATOM      4  C   UNL     1       1.375   8.298  21.025  0.00  0.00    +0.000 A 
ATOM      5  O   UNL     1       1.040   8.009  22.171  0.00  0.00    +0.000 OA
ATOM      6  CA  UNL     1       1.049   9.620  20.380  0.00  0.00    +0.000 A 
ATOM      7  C   UNL     1       0.366  10.511  21.116  0.00  0.00    +0.000 C 
ATOM      8  N   UNL     1       1.443   9.858  19.085  0.00  0.00    +0.000 N 
ATOM      9  C   UNL     1       2.014   8.927  18.259  0.00  0.00    +0.000 A 
ATOM     10  O   UNL     1       2.213   9.175  17.074  0.00  0.00    +0.000 OA
ATOM     11  H   UNL     1       2.330   6.548  20.677  0.00  0.00    +0.000 HD
ATOM     12  H   UNL     1       1.262  10.756  18.655  0.00  0.00    +0.000 HD
ENDROOT
BRANCH   1  17
ATOM     13  C   UNL     1       3.222   4.280  18.949  0.00  0.00    +0.000 A 
ATOM     14  N   UNL     1       4.371   3.636  19.381  0.00  0.00    +0.000 N 
ATOM     15  C   UNL     1       5.424   4.495  19.263  0.00  0.00    +0.000 A 
ATOM     16  N   UNL     1       5.030   5.670  18.842  0.00  0.00    +0.000 NA
ATOM     17  C   UNL     1       3.674   5.555  18.669  0.00  0.00    +0.000 A 
ATOM     18  H   UNL     1       4.439   2.687  19.720  0.00  0.00    +0.000 HD
BRANCH  13  20
ATOM     19  C   UNL     1       1.163   3.944  17.611  0.00  0.00    +0.000 C 
ATOM     20  C   UNL     1       1.869   3.597  18.934  0.00  0.00    +0.000 C 
ATOM     21  C   UNL     1       0.998   4.056  20.127  0.00  0.00    +0.000 C 
ATOM     22  C   UNL     1       1.981   2.064  19.043  0.00  0.00    +0.000 C 
ENDBRANCH  13  20
ENDBRANCH   1  17
BRANCH   7  23
ATOM     23  C   UNL     1      -0.010  11.855  20.687  0.00  0.00    +0.000 A 
ATOM     24  C   UNL     1      -1.261  12.100  20.112  0.00  0.00    +0.000 A 
ATOM     25  C   UNL     1      -1.623  13.398  19.746  0.00  0.00    +0.000 A 
ATOM     26  C   UNL     1      -0.720  14.450  19.956  0.00  0.00    +0.000 A 
ATOM     27  C   UNL     1       0.541  14.208  20.515  0.00  0.00    +0.000 A 
ATOM     28  C   UNL     1       0.894  12.906  20.875  0.00  0.00    +0.000 A 
BRANCH  26  29
ATOM     29  N   UNL     1      -1.103  15.821  19.596  0.00  0.00    +0.000 N 
ATOM     30  O   UNL     1      -1.946  16.388  20.304  0.00  0.00    +0.000 OA
ATOM     31  O   UNL     1      -0.558  16.329  18.605  0.00  0.00    +0.000 OA
ENDBRANCH  26  29
ENDBRANCH   7  23
TORSDOF 4
ENDMDL
