MODEL 1
REMARK VINA RESULT:      -7.9      0.000      0.000
REMARK  Name = 
REMARK  12 active torsions:
REMARK  status: ('A' for Active; 'I' for Inactive)
REMARK    1  A    between atoms: C_1  and  O_2
REMARK    2  A    between atoms: O_2  and  C_3
REMARK    3  A    between atoms: C_6  and  C_7
REMARK    4  A    between atoms: C_7  and  C_8
REMARK    5  A    between atoms: C_8  and  N_9
REMARK    6  A    between atoms: C_16  and  C_17
REMARK    7  A    between atoms: C_19  and  O_20
REMARK    8  A    between atoms: O_20  and  C_21
REMARK    9  A    between atoms: C_22  and  O_23
REMARK   10  A    between atoms: O_23  and  C_24
REMARK   11  A    between atoms: C_25  and  O_26
REMARK   12  A    between atoms: O_26  and  C_27
REMARK                            x       y       z     vdW  Elec       q    Type
REMARK                         _______ _______ _______ _____ _____    ______ ____
ROOT
ATOM      1  N   UNL     1       7.666   7.260  16.998  0.00  0.00    +0.000 N 
ATOM      2  C   UNL     1       6.663   6.303  17.064  0.00  0.00    +0.000 C 
ATOM      3  N   UNL     1       5.440   6.694  17.304  0.00  0.00    +0.000 NA
ATOM      4  N   UNL     1       4.459   5.742  17.322  0.00  0.00    +0.000 N 
ATOM      5  C   UNL     1       4.487   4.453  16.856  0.00  0.00    +0.000 A 
ATOM      6  N   UNL     1       3.355   3.840  17.085  0.00  0.00    +0.000 NA
ATOM      7  N   UNL     1       2.527   4.751  17.705  0.00  0.00    +0.000 NA
ATOM      8  C   UNL     1       3.165   5.909  17.799  0.00  0.00    +0.000 A 
ATOM      9  S   UNL     1       5.887   3.837  16.067  0.00  0.00    +0.000 S 
ATOM     10  C   UNL     1       7.094   4.837  16.956  0.00  0.00    +0.000 C 
ATOM     11  H   UNL     1       8.622   6.921  17.006  0.00  0.00    +0.000 HD
ENDROOT
BRANCH   8  12
ATOM     12  C   UNL     1       2.623   7.144  18.372  0.00  0.00    +0.000 A 
ATOM     13  C   UNL     1       2.172   7.149  19.694  0.00  0.00    +0.000 A 
ATOM     14  C   UNL     1       1.678   8.320  20.280  0.00  0.00    +0.000 A 
ATOM     15  C   UNL     1       1.588   9.511  19.524  0.00  0.00    +0.000 A 
ATOM     16  C   UNL     1       2.000   9.504  18.178  0.00  0.00    +0.000 A 
ATOM     17  C   UNL     1       2.525   8.326  17.628  0.00  0.00    +0.000 A 
BRANCH  14  18
ATOM     18  O   UNL     1       1.246   8.374  21.587  0.00  0.00    +0.000 OA
ATOM     19  C   UNL     1      -0.124   8.057  21.811  0.00  0.00    +0.000 C 
ENDBRANCH  14  18
BRANCH  15  20
ATOM     20  O   UNL     1       1.011  10.576  20.176  0.00  0.00    +0.000 OA
ATOM     21  C   UNL     1      -0.318  10.922  19.813  0.00  0.00    +0.000 C 
ENDBRANCH  15  20
BRANCH  16  22
ATOM     22  O   UNL     1       1.908  10.658  17.442  0.00  0.00    +0.000 OA
ATOM     23  C   UNL     1       2.680  11.767  17.890  0.00  0.00    +0.000 C 
ENDBRANCH  16  22
ENDBRANCH   8  12
BRANCH   1  24
ATOM     24  C   UNL     1       7.485   8.566  17.637  0.00  0.00    +0.000 C 
BRANCH  24  25
ATOM     25  C   UNL     1       8.604   8.865  18.641  0.00  0.00    +0.000 C 
BRANCH  25  29
ATOM     26  C   UNL     1       9.708  13.057  18.661  0.00  0.00    +0.000 A 
ATOM     27  C   UNL     1       8.797  12.567  17.721  0.00  0.00    +0.000 A 
ATOM     28  C   UNL     1       8.428  11.217  17.723  0.00  0.00    +0.000 A 
ATOM     29  C   UNL     1       8.977  10.330  18.654  0.00  0.00    +0.000 A 
ATOM     30  C   UNL     1       9.894  10.830  19.593  0.00  0.00    +0.000 A 
ATOM     31  C   UNL     1      10.263  12.180  19.591  0.00  0.00    +0.000 A 
BRANCH  26  33
ATOM     32  C   UNL     1      11.111  14.844  19.313  0.00  0.00    +0.000 C 
ATOM     33  O   UNL     1      10.002  14.383  18.548  0.00  0.00    +0.000 OA
ENDBRANCH  26  33
ENDBRANCH  25  29
ENDBRANCH  24  25
ENDBRANCH   1  24
TORSDOF 8
ENDMDL
MODEL 2
REMARK VINA RESULT:      -7.8      0.238      2.286
REMARK  Name = 
REMARK  12 active torsions:
REMARK  status: ('A' for Active; 'I' for Inactive)
REMARK    1  A    between atoms: C_1  and  O_2
REMARK    2  A    between atoms: O_2  and  C_3
REMARK    3  A    between atoms: C_6  and  C_7
REMARK    4  A    between atoms: C_7  and  C_8
REMARK    5  A    between atoms: C_8  and  N_9
REMARK    6  A    between atoms: C_16  and  C_17
REMARK    7  A    between atoms: C_19  and  O_20
REMARK    8  A    between atoms: O_20  and  C_21
REMARK    9  A    between atoms: C_22  and  O_23
REMARK   10  A    between atoms: O_23  and  C_24
REMARK   11  A    between atoms: C_25  and  O_26
REMARK   12  A    between atoms: O_26  and  C_27
REMARK                            x       y       z     vdW  Elec       q    Type
REMARK                         _______ _______ _______ _____ _____    ______ ____
ROOT
ATOM      1  N   UNL     1       7.615   7.414  17.012  0.00  0.00    +0.000 N 
ATOM      2  C   UNL     1       6.638   6.431  17.082  0.00  0.00    +0.000 C 
ATOM      3  N   UNL     1       5.408   6.788  17.341  0.00  0.00    +0.000 NA
ATOM      4  N   UNL     1       4.451   5.812  17.363  0.00  0.00    +0.000 N 
ATOM      5  C   UNL     1       4.507   4.528  16.884  0.00  0.00    +0.000 A 
ATOM      6  N   UNL     1       3.393   3.885  17.122  0.00  0.00    +0.000 NA
ATOM      7  N   UNL     1       2.551   4.768  17.761  0.00  0.00    +0.000 NA
ATOM      8  C   UNL     1       3.161   5.941  17.858  0.00  0.00    +0.000 A 
ATOM      9  S   UNL     1       5.912   3.955  16.072  0.00  0.00    +0.000 S 
ATOM     10  C   UNL     1       7.104   4.977  16.956  0.00  0.00    +0.000 C 
ATOM     11  H   UNL     1       8.580   7.099  17.005  0.00  0.00    +0.000 HD
ENDROOT
BRANCH   8  12
ATOM     12  C   UNL     1       2.594   7.157  18.449  0.00  0.00    +0.000 A 
ATOM     13  C   UNL     1       2.514   8.321  17.682  0.00  0.00    +0.000 A 
ATOM     14  C   UNL     1       1.948   9.489  18.207  0.00  0.00    +0.000 A 
ATOM     15  C   UNL     1       1.489   9.519  19.544  0.00  0.00    +0.000 A 
ATOM     16  C   UNL     1       1.605   8.362  20.337  0.00  0.00    +0.000 A 
ATOM     17  C   UNL     1       2.141   7.195  19.774  0.00  0.00    +0.000 A 
BRANCH  14  18
ATOM     18  O   UNL     1       1.827  10.651  17.478  0.00  0.00    +0.000 OA
ATOM     19  C   UNL     1       2.710  11.712  17.832  0.00  0.00    +0.000 C 
ENDBRANCH  14  18
BRANCH  15  20
ATOM     20  O   UNL     1       1.030  10.741  19.978  0.00  0.00    +0.000 OA
ATOM     21  C   UNL     1      -0.356  11.010  19.822  0.00  0.00    +0.000 C 
ENDBRANCH  15  20
BRANCH  16  22
ATOM     22  O   UNL     1       1.164   8.392  21.636  0.00  0.00    +0.000 OA
ATOM     23  C   UNL     1      -0.234   8.215  21.842  0.00  0.00    +0.000 C 
ENDBRANCH  16  22
ENDBRANCH   8  12
BRANCH   1  24
ATOM     24  C   UNL     1       7.409   8.708  17.666  0.00  0.00    +0.000 C 
BRANCH  24  25
ATOM     25  C   UNL     1       8.570   9.061  18.602  0.00  0.00    +0.000 C 
BRANCH  25  29
ATOM     26  C   UNL     1       9.767  13.209  18.212  0.00  0.00    +0.000 A 
ATOM     27  C   UNL     1      10.518  12.323  18.990  0.00  0.00    +0.000 A 
ATOM     28  C   UNL     1      10.142  10.980  19.105  0.00  0.00    +0.000 A 
ATOM     29  C   UNL     1       8.997  10.503  18.458  0.00  0.00    +0.000 A 
ATOM     30  C   UNL     1       8.247  11.401  17.679  0.00  0.00    +0.000 A 
ATOM     31  C   UNL     1       8.624  12.743  17.565  0.00  0.00    +0.000 A 
BRANCH  26  33
ATOM     32  C   UNL     1      11.228  14.814  19.149  0.00  0.00    +0.000 C 
ATOM     33  O   UNL     1      10.222  14.493  18.192  0.00  0.00    +0.000 OA
ENDBRANCH  26  33
ENDBRANCH  25  29
ENDBRANCH  24  25
ENDBRANCH   1  24
TORSDOF 8
ENDMDL
MODEL 3
REMARK VINA RESULT:      -7.8      0.720      2.136
REMARK  Name = 
REMARK  12 active torsions:
REMARK  status: ('A' for Active; 'I' for Inactive)
REMARK    1  A    between atoms: C_1  and  O_2
REMARK    2  A    between atoms: O_2  and  C_3
REMARK    3  A    between atoms: C_6  and  C_7
REMARK    4  A    between atoms: C_7  and  C_8
REMARK    5  A    between atoms: C_8  and  N_9
REMARK    6  A    between atoms: C_16  and  C_17
REMARK    7  A    between atoms: C_19  and  O_20
REMARK    8  A    between atoms: O_20  and  C_21
REMARK    9  A    between atoms: C_22  and  O_23
REMARK   10  A    between atoms: O_23  and  C_24
REMARK   11  A    between atoms: C_25  and  O_26
REMARK   12  A    between atoms: O_26  and  C_27
REMARK                            x       y       z     vdW  Elec       q    Type
REMARK                         _______ _______ _______ _____ _____    ______ ____
ROOT
ATOM      1  N   UNL     1       7.718   7.562  17.041  0.00  0.00    +0.000 N 
ATOM      2  C   UNL     1       6.788   6.534  17.077  0.00  0.00    +0.000 C 
ATOM      3  N   UNL     1       5.538   6.829  17.316  0.00  0.00    +0.000 NA
ATOM      4  N   UNL     1       4.628   5.809  17.304  0.00  0.00    +0.000 N 
ATOM      5  C   UNL     1       4.753   4.537  16.808  0.00  0.00    +0.000 A 
ATOM      6  N   UNL     1       3.666   3.838  17.014  0.00  0.00    +0.000 NA
ATOM      7  N   UNL     1       2.771   4.671  17.648  0.00  0.00    +0.000 NA
ATOM      8  C   UNL     1       3.323   5.870  17.775  0.00  0.00    +0.000 A 
ATOM      9  S   UNL     1       6.199   4.042  16.016  0.00  0.00    +0.000 S 
ATOM     10  C   UNL     1       7.324   5.105  16.939  0.00  0.00    +0.000 C 
ATOM     11  H   UNL     1       8.697   7.293  17.049  0.00  0.00    +0.000 HD
ENDROOT
BRANCH   8  12
ATOM     12  C   UNL     1       2.689   7.049  18.372  0.00  0.00    +0.000 A 
ATOM     13  C   UNL     1       2.592   8.228  17.630  0.00  0.00    +0.000 A 
ATOM     14  C   UNL     1       1.963   9.360  18.160  0.00  0.00    +0.000 A 
ATOM     15  C   UNL     1       1.453   9.339  19.479  0.00  0.00    +0.000 A 
ATOM     16  C   UNL     1       1.584   8.169  20.249  0.00  0.00    +0.000 A 
ATOM     17  C   UNL     1       2.185   7.037  19.679  0.00  0.00    +0.000 A 
BRANCH  14  18
ATOM     18  O   UNL     1       1.824  10.535  17.454  0.00  0.00    +0.000 OA
ATOM     19  C   UNL     1       2.648  11.620  17.869  0.00  0.00    +0.000 C 
ENDBRANCH  14  18
BRANCH  15  20
ATOM     20  O   UNL     1       0.931  10.532  19.923  0.00  0.00    +0.000 OA
ATOM     21  C   UNL     1      -0.481  10.681  19.885  0.00  0.00    +0.000 C 
ENDBRANCH  15  20
BRANCH  16  22
ATOM     22  O   UNL     1       1.094   8.150  21.530  0.00  0.00    +0.000 OA
ATOM     23  C   UNL     1       1.675   9.066  22.452  0.00  0.00    +0.000 C 
ENDBRANCH  16  22
ENDBRANCH   8  12
BRANCH   1  24
ATOM     24  C   UNL     1       7.440   8.835  17.709  0.00  0.00    +0.000 C 
BRANCH  24  25
ATOM     25  C   UNL     1       8.579   9.243  18.650  0.00  0.00    +0.000 C 
BRANCH  25  29
ATOM     26  C   UNL     1      10.028  13.238  17.799  0.00  0.00    +0.000 A 
ATOM     27  C   UNL     1       8.720  12.873  17.471  0.00  0.00    +0.000 A 
ATOM     28  C   UNL     1       8.245  11.588  17.758  0.00  0.00    +0.000 A 
ATOM     29  C   UNL     1       9.078  10.641  18.364  0.00  0.00    +0.000 A 
ATOM     30  C   UNL     1      10.392  11.016  18.689  0.00  0.00    +0.000 A 
ATOM     31  C   UNL     1      10.866  12.301  18.400  0.00  0.00    +0.000 A 
BRANCH  26  33
ATOM     32  C   UNL     1      11.766  14.729  17.211  0.00  0.00    +0.000 C 
ATOM     33  O   UNL     1      10.380  14.509  17.453  0.00  0.00    +0.000 OA
ENDBRANCH  26  33
ENDBRANCH  25  29
ENDBRANCH  24  25
ENDBRANCH   1  24
TORSDOF 8
ENDMDL
MODEL 4
REMARK VINA RESULT:      -7.8      0.756      1.090
REMARK  Name = 
REMARK  12 active torsions:
REMARK  status: ('A' for Active; 'I' for Inactive)
REMARK    1  A    between atoms: C_1  and  O_2
REMARK    2  A    between atoms: O_2  and  C_3
REMARK    3  A    between atoms: C_6  and  C_7
REMARK    4  A    between atoms: C_7  and  C_8
REMARK    5  A    between atoms: C_8  and  N_9
REMARK    6  A    between atoms: C_16  and  C_17
REMARK    7  A    between atoms: C_19  and  O_20
REMARK    8  A    between atoms: O_20  and  C_21
REMARK    9  A    between atoms: C_22  and  O_23
REMARK   10  A    between atoms: O_23  and  C_24
REMARK   11  A    between atoms: C_25  and  O_26
REMARK   12  A    between atoms: O_26  and  C_27
REMARK                            x       y       z     vdW  Elec       q    Type
REMARK                         _______ _______ _______ _____ _____    ______ ____
ROOT
ATOM      1  N   UNL     1       7.712   7.562  17.085  0.00  0.00    +0.000 N 
ATOM      2  C   UNL     1       6.760   6.556  17.143  0.00  0.00    +0.000 C 
ATOM      3  N   UNL     1       5.513   6.885  17.351  0.00  0.00    +0.000 NA
ATOM      4  N   UNL     1       4.581   5.885  17.362  0.00  0.00    +0.000 N 
ATOM      5  C   UNL     1       4.687   4.593  16.914  0.00  0.00    +0.000 A 
ATOM      6  N   UNL     1       3.583   3.925  17.128  0.00  0.00    +0.000 NA
ATOM      7  N   UNL     1       2.696   4.799  17.717  0.00  0.00    +0.000 NA
ATOM      8  C   UNL     1       3.271   5.990  17.808  0.00  0.00    +0.000 A 
ATOM      9  S   UNL     1       6.134   4.040  16.165  0.00  0.00    +0.000 S 
ATOM     10  C   UNL     1       7.268   5.112  17.066  0.00  0.00    +0.000 C 
ATOM     11  H   UNL     1       8.685   7.274  17.119  0.00  0.00    +0.000 HD
ENDROOT
BRANCH   8  12
ATOM     12  C   UNL     1       2.653   7.203  18.352  0.00  0.00    +0.000 A 
ATOM     13  C   UNL     1       2.088   7.174  19.629  0.00  0.00    +0.000 A 
ATOM     14  C   UNL     1       1.519   8.323  20.189  0.00  0.00    +0.000 A 
ATOM     15  C   UNL     1       1.468   9.526  19.447  0.00  0.00    +0.000 A 
ATOM     16  C   UNL     1       1.996   9.552  18.143  0.00  0.00    +0.000 A 
ATOM     17  C   UNL     1       2.594   8.396  17.621  0.00  0.00    +0.000 A 
BRANCH  14  18
ATOM     18  O   UNL     1       0.974   8.345  21.453  0.00  0.00    +0.000 OA
ATOM     19  C   UNL     1       1.740   9.003  22.458  0.00  0.00    +0.000 C 
ENDBRANCH  14  18
BRANCH  15  20
ATOM     20  O   UNL     1       0.813  10.567  20.063  0.00  0.00    +0.000 OA
ATOM     21  C   UNL     1      -0.563  10.744  19.757  0.00  0.00    +0.000 C 
ENDBRANCH  15  20
BRANCH  16  22
ATOM     22  O   UNL     1       1.942  10.718  17.421  0.00  0.00    +0.000 OA
ATOM     23  C   UNL     1       2.590  11.853  17.986  0.00  0.00    +0.000 C 
ENDBRANCH  16  22
ENDBRANCH   8  12
BRANCH   1  24
ATOM     24  C   UNL     1       7.450   8.865  17.702  0.00  0.00    +0.000 C 
BRANCH  24  25
ATOM     25  C   UNL     1       8.615   9.316  18.590  0.00  0.00    +0.000 C 
BRANCH  25  29
ATOM     26  C   UNL     1       9.832  13.389  17.744  0.00  0.00    +0.000 A 
ATOM     27  C   UNL     1      10.741  12.475  18.283  0.00  0.00    +0.000 A 
ATOM     28  C   UNL     1      10.354  11.155  18.543  0.00  0.00    +0.000 A 
ATOM     29  C   UNL     1       9.046  10.732  18.284  0.00  0.00    +0.000 A 
ATOM     30  C   UNL     1       8.139  11.659  17.744  0.00  0.00    +0.000 A 
ATOM     31  C   UNL     1       8.526  12.978  17.485  0.00  0.00    +0.000 A 
BRANCH  26  33
ATOM     32  C   UNL     1       9.428  15.716  17.854  0.00  0.00    +0.000 C 
ATOM     33  O   UNL     1      10.320  14.648  17.552  0.00  0.00    +0.000 OA
ENDBRANCH  26  33
ENDBRANCH  25  29
ENDBRANCH  24  25
ENDBRANCH   1  24
TORSDOF 8
ENDMDL
MODEL 5
REMARK VINA RESULT:      -7.3      3.956      7.418
REMARK  Name = 
REMARK  12 active torsions:
REMARK  status: ('A' for Active; 'I' for Inactive)
REMARK    1  A    between atoms: C_1  and  O_2
REMARK    2  A    between atoms: O_2  and  C_3
REMARK    3  A    between atoms: C_6  and  C_7
REMARK    4  A    between atoms: C_7  and  C_8
REMARK    5  A    between atoms: C_8  and  N_9
REMARK    6  A    between atoms: C_16  and  C_17
REMARK    7  A    between atoms: C_19  and  O_20
REMARK    8  A    between atoms: O_20  and  C_21
REMARK    9  A    between atoms: C_22  and  O_23
REMARK   10  A    between atoms: O_23  and  C_24
REMARK   11  A    between atoms: C_25  and  O_26
REMARK   12  A    between atoms: O_26  and  C_27
REMARK                            x       y       z     vdW  Elec       q    Type
REMARK                         _______ _______ _______ _____ _____    ______ ____
ROOT
ATOM      1  N   UNL     1       2.163   6.941  19.556  0.00  0.00    +0.000 N 
ATOM      2  C   UNL     1       2.279   5.570  19.371  0.00  0.00    +0.000 C 
ATOM      3  N   UNL     1       3.286   5.116  18.675  0.00  0.00    +0.000 NA
ATOM      4  N   UNL     1       3.409   3.761  18.540  0.00  0.00    +0.000 N 
ATOM      5  C   UNL     1       2.800   2.757  19.248  0.00  0.00    +0.000 A 
ATOM      6  N   UNL     1       3.150   1.580  18.800  0.00  0.00    +0.000 NA
ATOM      7  N   UNL     1       4.041   1.794  17.771  0.00  0.00    +0.000 NA
ATOM      8  C   UNL     1       4.242   3.099  17.648  0.00  0.00    +0.000 A 
ATOM      9  S   UNL     1       1.742   3.123  20.556  0.00  0.00    +0.000 S 
ATOM     10  C   UNL     1       1.143   4.697  19.914  0.00  0.00    +0.000 C 
ATOM     11  H   UNL     1       1.281   7.279  19.926  0.00  0.00    +0.000 HD
ENDROOT
BRANCH   8  12
ATOM     12  C   UNL     1       5.142   3.742  16.687  0.00  0.00    +0.000 A 
ATOM     13  C   UNL     1       5.909   4.838  17.090  0.00  0.00    +0.000 A 
ATOM     14  C   UNL     1       6.802   5.453  16.206  0.00  0.00    +0.000 A 
ATOM     15  C   UNL     1       6.908   5.000  14.871  0.00  0.00    +0.000 A 
ATOM     16  C   UNL     1       6.108   3.924  14.445  0.00  0.00    +0.000 A 
ATOM     17  C   UNL     1       5.250   3.302  15.362  0.00  0.00    +0.000 A 
BRANCH  14  18
ATOM     18  O   UNL     1       7.594   6.520  16.570  0.00  0.00    +0.000 OA
ATOM     19  C   UNL     1       7.605   6.853  17.955  0.00  0.00    +0.000 C 
ENDBRANCH  14  18
BRANCH  15  20
ATOM     20  O   UNL     1       7.755   5.731  14.070  0.00  0.00    +0.000 OA
ATOM     21  C   UNL     1       8.099   5.178  12.808  0.00  0.00    +0.000 C 
ENDBRANCH  15  20
BRANCH  16  22
ATOM     22  O   UNL     1       6.207   3.487  13.148  0.00  0.00    +0.000 OA
ATOM     23  C   UNL     1       4.999   3.429  12.397  0.00  0.00    +0.000 C 
ENDBRANCH  16  22
ENDBRANCH   8  12
BRANCH   1  24
ATOM     24  C   UNL     1       2.823   7.869  18.635  0.00  0.00    +0.000 C 
BRANCH  24  25
ATOM     25  C   UNL     1       1.814   8.582  17.728  0.00  0.00    +0.000 C 
BRANCH  25  29
ATOM     26  C   UNL     1       0.620  12.409  19.377  0.00  0.00    +0.000 A 
ATOM     27  C   UNL     1       1.790  12.296  18.622  0.00  0.00    +0.000 A 
ATOM     28  C   UNL     1       2.170  11.064  18.076  0.00  0.00    +0.000 A 
ATOM     29  C   UNL     1       1.393   9.921  18.291  0.00  0.00    +0.000 A 
ATOM     30  C   UNL     1       0.219  10.043  19.053  0.00  0.00    +0.000 A 
ATOM     31  C   UNL     1      -0.159  11.275  19.599  0.00  0.00    +0.000 A 
BRANCH  26  33
ATOM     32  C   UNL     1       1.302  14.668  19.519  0.00  0.00    +0.000 C 
ATOM     33  O   UNL     1       0.366  13.654  19.870  0.00  0.00    +0.000 OA
ENDBRANCH  26  33
ENDBRANCH  25  29
ENDBRANCH  24  25
ENDBRANCH   1  24
TORSDOF 8
ENDMDL
MODEL 6
REMARK VINA RESULT:      -7.3      6.320      9.368
REMARK  Name = 
REMARK  12 active torsions:
REMARK  status: ('A' for Active; 'I' for Inactive)
REMARK    1  A    between atoms: C_1  and  O_2
REMARK    2  A    between atoms: O_2  and  C_3
REMARK    3  A    between atoms: C_6  and  C_7
REMARK    4  A    between atoms: C_7  and  C_8
REMARK    5  A    between atoms: C_8  and  N_9
REMARK    6  A    between atoms: C_16  and  C_17
REMARK    7  A    between atoms: C_19  and  O_20
REMARK    8  A    between atoms: O_20  and  C_21
REMARK    9  A    between atoms: C_22  and  O_23
REMARK   10  A    between atoms: O_23  and  C_24
REMARK   11  A    between atoms: C_25  and  O_26
REMARK   12  A    between atoms: O_26  and  C_27
REMARK                            x       y       z     vdW  Elec       q    Type
REMARK                         _______ _______ _______ _____ _____    ______ ____
ROOT
ATOM      1  N   UNL     1      -0.543  10.084  17.625  0.00  0.00    +0.000 N 
ATOM      2  C   UNL     1      -1.870  10.454  17.455  0.00  0.00    +0.000 C 
ATOM      3  N   UNL     1      -2.400  11.288  18.309  0.00  0.00    +0.000 NA
ATOM      4  N   UNL     1      -3.695  11.676  18.102  0.00  0.00    +0.000 N 
ATOM      5  C   UNL     1      -4.471  11.552  16.978  0.00  0.00    +0.000 A 
ATOM      6  N   UNL     1      -5.676  12.018  17.181  0.00  0.00    +0.000 NA
ATOM      7  N   UNL     1      -5.709  12.492  18.474  0.00  0.00    +0.000 NA
ATOM      8  C   UNL     1      -4.507  12.339  19.012  0.00  0.00    +0.000 A 
ATOM      9  S   UNL     1      -3.824  10.871  15.536  0.00  0.00    +0.000 S 
ATOM     10  C   UNL     1      -2.646   9.763  16.330  0.00  0.00    +0.000 C 
ATOM     11  H   UNL     1      -0.215   9.296  17.075  0.00  0.00    +0.000 HD
ENDROOT
BRANCH   8  12
ATOM     12  C   UNL     1      -4.114  12.743  20.365  0.00  0.00    +0.000 A 
ATOM     13  C   UNL     1      -4.953  12.446  21.441  0.00  0.00    +0.000 A 
ATOM     14  C   UNL     1      -4.592  12.789  22.750  0.00  0.00    +0.000 A 
ATOM     15  C   UNL     1      -3.386  13.484  22.995  0.00  0.00    +0.000 A 
ATOM     16  C   UNL     1      -2.555  13.825  21.912  0.00  0.00    +0.000 A 
ATOM     17  C   UNL     1      -2.923  13.436  20.616  0.00  0.00    +0.000 A 
BRANCH  14  18
ATOM     18  O   UNL     1      -5.378  12.493  23.841  0.00  0.00    +0.000 OA
ATOM     19  C   UNL     1      -6.659  13.113  23.881  0.00  0.00    +0.000 C 
ENDBRANCH  14  18
BRANCH  15  20
ATOM     20  O   UNL     1      -3.173  13.842  24.307  0.00  0.00    +0.000 OA
ATOM     21  C   UNL     1      -3.497  15.173  24.681  0.00  0.00    +0.000 C 
ENDBRANCH  15  20
BRANCH  16  22
ATOM     22  O   UNL     1      -1.387  14.504  22.150  0.00  0.00    +0.000 OA
ATOM     23  C   UNL     1      -1.183  15.706  21.414  0.00  0.00    +0.000 C 
ENDBRANCH  16  22
ENDBRANCH   8  12
BRANCH   1  24
ATOM     24  C   UNL     1       0.098  10.210  18.936  0.00  0.00    +0.000 C 
BRANCH  24  25
ATOM     25  C   UNL     1       1.590   9.863  18.873  0.00  0.00    +0.000 C 
BRANCH  25  29
ATOM     26  C   UNL     1       2.348   5.657  19.595  0.00  0.00    +0.000 A 
ATOM     27  C   UNL     1       1.822   6.467  20.605  0.00  0.00    +0.000 A 
ATOM     28  C   UNL     1       1.562   7.822  20.369  0.00  0.00    +0.000 A 
ATOM     29  C   UNL     1       1.841   8.394  19.124  0.00  0.00    +0.000 A 
ATOM     30  C   UNL     1       2.371   7.572  18.115  0.00  0.00    +0.000 A 
ATOM     31  C   UNL     1       2.631   6.218  18.352  0.00  0.00    +0.000 A 
BRANCH  26  33
ATOM     32  C   UNL     1       2.121   3.980  21.246  0.00  0.00    +0.000 C 
ATOM     33  O   UNL     1       2.575   4.360  19.951  0.00  0.00    +0.000 OA
ENDBRANCH  26  33
ENDBRANCH  25  29
ENDBRANCH  24  25
ENDBRANCH   1  24
TORSDOF 8
ENDMDL
MODEL 7
REMARK VINA RESULT:      -7.2      6.842     10.608
REMARK  Name = 
REMARK  12 active torsions:
REMARK  status: ('A' for Active; 'I' for Inactive)
REMARK    1  A    between atoms: C_1  and  O_2
REMARK    2  A    between atoms: O_2  and  C_3
REMARK    3  A    between atoms: C_6  and  C_7
REMARK    4  A    between atoms: C_7  and  C_8
REMARK    5  A    between atoms: C_8  and  N_9
REMARK    6  A    between atoms: C_16  and  C_17
REMARK    7  A    between atoms: C_19  and  O_20
REMARK    8  A    between atoms: O_20  and  C_21
REMARK    9  A    between atoms: C_22  and  O_23
REMARK   10  A    between atoms: O_23  and  C_24
REMARK   11  A    between atoms: C_25  and  O_26
REMARK   12  A    between atoms: O_26  and  C_27
REMARK                            x       y       z     vdW  Elec       q    Type
REMARK                         _______ _______ _______ _____ _____    ______ ____
ROOT
ATOM      1  N   UNL     1      -0.649  10.368  17.763  0.00  0.00    +0.000 N 
ATOM      2  C   UNL     1      -0.085  10.073  18.996  0.00  0.00    +0.000 C 
ATOM      3  N   UNL     1      -0.644  10.559  20.072  0.00  0.00    +0.000 NA
ATOM      4  N   UNL     1      -0.101  10.223  21.281  0.00  0.00    +0.000 N 
ATOM      5  C   UNL     1       0.786   9.224  21.589  0.00  0.00    +0.000 A 
ATOM      6  N   UNL     1       1.097   9.240  22.859  0.00  0.00    +0.000 NA
ATOM      7  N   UNL     1       0.380  10.268  23.432  0.00  0.00    +0.000 NA
ATOM      8  C   UNL     1      -0.381  10.824  22.500  0.00  0.00    +0.000 A 
ATOM      9  S   UNL     1       1.336   8.134  20.375  0.00  0.00    +0.000 S 
ATOM     10  C   UNL     1       1.227   9.281  18.989  0.00  0.00    +0.000 C 
ATOM     11  H   UNL     1      -0.094  10.146  16.942  0.00  0.00    +0.000 HD
ENDROOT
BRANCH   8  12
ATOM     12  C   UNL     1      -1.316  11.934  22.706  0.00  0.00    +0.000 A 
ATOM     13  C   UNL     1      -0.871  13.248  22.544  0.00  0.00    +0.000 A 
ATOM     14  C   UNL     1      -1.747  14.328  22.702  0.00  0.00    +0.000 A 
ATOM     15  C   UNL     1      -3.092  14.104  23.073  0.00  0.00    +0.000 A 
ATOM     16  C   UNL     1      -3.539  12.786  23.280  0.00  0.00    +0.000 A 
ATOM     17  C   UNL     1      -2.649  11.721  23.078  0.00  0.00    +0.000 A 
BRANCH  14  18
ATOM     18  O   UNL     1      -1.355  15.637  22.527  0.00  0.00    +0.000 OA
ATOM     19  C   UNL     1      -0.431  16.150  23.482  0.00  0.00    +0.000 C 
ENDBRANCH  14  18
BRANCH  15  20
ATOM     20  O   UNL     1      -3.839  15.241  23.280  0.00  0.00    +0.000 OA
ATOM     21  C   UNL     1      -4.735  15.630  22.249  0.00  0.00    +0.000 C 
ENDBRANCH  15  20
BRANCH  16  22
ATOM     22  O   UNL     1      -4.843  12.569  23.645  0.00  0.00    +0.000 OA
ATOM     23  C   UNL     1      -5.085  12.282  25.019  0.00  0.00    +0.000 C 
ENDBRANCH  16  22
ENDBRANCH   8  12
BRANCH   1  24
ATOM     24  C   UNL     1      -1.513  11.540  17.606  0.00  0.00    +0.000 C 
BRANCH  24  25
ATOM     25  C   UNL     1      -2.800  11.198  16.848  0.00  0.00    +0.000 C 
BRANCH  25  29
ATOM     26  C   UNL     1      -6.355  12.330  19.055  0.00  0.00    +0.000 A 
ATOM     27  C   UNL     1      -5.107  12.299  19.686  0.00  0.00    +0.000 A 
ATOM     28  C   UNL     1      -3.956  11.948  18.971  0.00  0.00    +0.000 A 
ATOM     29  C   UNL     1      -4.036  11.606  17.617  0.00  0.00    +0.000 A 
ATOM     30  C   UNL     1      -5.294  11.637  16.992  0.00  0.00    +0.000 A 
ATOM     31  C   UNL     1      -6.444  11.988  17.707  0.00  0.00    +0.000 A 
BRANCH  26  33
ATOM     32  C   UNL     1      -7.221  12.437  21.253  0.00  0.00    +0.000 C 
ATOM     33  O   UNL     1      -7.403  12.668  19.859  0.00  0.00    +0.000 OA
ENDBRANCH  26  33
ENDBRANCH  25  29
ENDBRANCH  24  25
ENDBRANCH   1  24
TORSDOF 8
ENDMDL
MODEL 8
REMARK VINA RESULT:      -7.2      6.025      9.198
REMARK  Name = 
REMARK  12 active torsions:
REMARK  status: ('A' for Active; 'I' for Inactive)
REMARK    1  A    between atoms: C_1  and  O_2
REMARK    2  A    between atoms: O_2  and  C_3
REMARK    3  A    between atoms: C_6  and  C_7
REMARK    4  A    between atoms: C_7  and  C_8
REMARK    5  A    between atoms: C_8  and  N_9
REMARK    6  A    between atoms: C_16  and  C_17
REMARK    7  A    between atoms: C_19  and  O_20
REMARK    8  A    between atoms: O_20  and  C_21
REMARK    9  A    between atoms: C_22  and  O_23
REMARK   10  A    between atoms: O_23  and  C_24
REMARK   11  A    between atoms: C_25  and  O_26
REMARK   12  A    between atoms: O_26  and  C_27
REMARK                            x       y       z     vdW  Elec       q    Type
REMARK                         _______ _______ _______ _____ _____    ______ ____
ROOT
ATOM      1  N   UNL     1      -0.542   9.923  17.486  0.00  0.00    +0.000 N 
ATOM      2  C   UNL     1      -1.838  10.396  17.625  0.00  0.00    +0.000 C 
ATOM      3  N   UNL     1      -2.081  11.293  18.543  0.00  0.00    +0.000 NA
ATOM      4  N   UNL     1      -3.355  11.780  18.638  0.00  0.00    +0.000 N 
ATOM      5  C   UNL     1      -4.390  11.691  17.743  0.00  0.00    +0.000 A 
ATOM      6  N   UNL     1      -5.472  12.259  18.209  0.00  0.00    +0.000 NA
ATOM      7  N   UNL     1      -5.152  12.768  19.449  0.00  0.00    +0.000 NA
ATOM      8  C   UNL     1      -3.869  12.532  19.686  0.00  0.00    +0.000 A 
ATOM      9  S   UNL     1      -4.168  10.922  16.219  0.00  0.00    +0.000 S 
ATOM     10  C   UNL     1      -2.915   9.742  16.754  0.00  0.00    +0.000 C 
ATOM     11  H   UNL     1      -0.416   9.097  16.909  0.00  0.00    +0.000 HD
ENDROOT
BRANCH   8  12
ATOM     12  C   UNL     1      -3.129  12.937  20.885  0.00  0.00    +0.000 A 
ATOM     13  C   UNL     1      -1.875  13.535  20.749  0.00  0.00    +0.000 A 
ATOM     14  C   UNL     1      -1.158  13.963  21.872  0.00  0.00    +0.000 A 
ATOM     15  C   UNL     1      -1.678  13.754  23.170  0.00  0.00    +0.000 A 
ATOM     16  C   UNL     1      -2.922  13.113  23.319  0.00  0.00    +0.000 A 
ATOM     17  C   UNL     1      -3.636  12.729  22.174  0.00  0.00    +0.000 A 
BRANCH  14  18
ATOM     18  O   UNL     1       0.071  14.579  21.782  0.00  0.00    +0.000 OA
ATOM     19  C   UNL     1       1.136  13.786  21.266  0.00  0.00    +0.000 C 
ENDBRANCH  14  18
BRANCH  15  20
ATOM     20  O   UNL     1      -0.851  14.138  24.201  0.00  0.00    +0.000 OA
ATOM     21  C   UNL     1      -1.165  15.350  24.871  0.00  0.00    +0.000 C 
ENDBRANCH  15  20
BRANCH  16  22
ATOM     22  O   UNL     1      -3.424  12.905  24.578  0.00  0.00    +0.000 OA
ATOM     23  C   UNL     1      -4.691  12.262  24.665  0.00  0.00    +0.000 C 
ENDBRANCH  16  22
ENDBRANCH   8  12
BRANCH   1  24
ATOM     24  C   UNL     1       0.409  10.031  18.595  0.00  0.00    +0.000 C 
BRANCH  24  25
ATOM     25  C   UNL     1       1.836   9.692  18.154  0.00  0.00    +0.000 C 
BRANCH  25  29
ATOM     26  C   UNL     1       3.016   5.684  19.309  0.00  0.00    +0.000 A 
ATOM     27  C   UNL     1       2.205   6.455  20.147  0.00  0.00    +0.000 A 
ATOM     28  C   UNL     1       1.810   7.743  19.769  0.00  0.00    +0.000 A 
ATOM     29  C   UNL     1       2.236   8.290  18.553  0.00  0.00    +0.000 A 
ATOM     30  C   UNL     1       3.053   7.509  17.719  0.00  0.00    +0.000 A 
ATOM     31  C   UNL     1       3.447   6.222  18.098  0.00  0.00    +0.000 A 
BRANCH  26  33
ATOM     32  C   UNL     1       2.285   3.702  20.371  0.00  0.00    +0.000 C 
ATOM     33  O   UNL     1       3.349   4.454  19.794  0.00  0.00    +0.000 OA
ENDBRANCH  26  33
ENDBRANCH  25  29
ENDBRANCH  24  25
ENDBRANCH   1  24
TORSDOF 8
ENDMDL
MODEL 9
REMARK VINA RESULT:      -7.1      6.240      9.423
REMARK  Name = 
REMARK  12 active torsions:
REMARK  status: ('A' for Active; 'I' for Inactive)
REMARK    1  A    between atoms: C_1  and  O_2
REMARK    2  A    between atoms: O_2  and  C_3
REMARK    3  A    between atoms: C_6  and  C_7
REMARK    4  A    between atoms: C_7  and  C_8
REMARK    5  A    between atoms: C_8  and  N_9
REMARK    6  A    between atoms: C_16  and  C_17
REMARK    7  A    between atoms: C_19  and  O_20
REMARK    8  A    between atoms: O_20  and  C_21
REMARK    9  A    between atoms: C_22  and  O_23
REMARK   10  A    between atoms: O_23  and  C_24
REMARK   11  A    between atoms: C_25  and  O_26
REMARK   12  A    between atoms: O_26  and  C_27
REMARK                            x       y       z     vdW  Elec       q    Type
REMARK                         _______ _______ _______ _____ _____    ______ ____
ROOT
ATOM      1  N   UNL     1      -0.583  10.039  17.675  0.00  0.00    +0.000 N 
ATOM      2  C   UNL     1      -1.900  10.429  17.478  0.00  0.00    +0.000 C 
ATOM      3  N   UNL     1      -2.439  11.260  18.329  0.00  0.00    +0.000 NA
ATOM      4  N   UNL     1      -3.724  11.667  18.096  0.00  0.00    +0.000 N 
ATOM      5  C   UNL     1      -4.474  11.567  16.953  0.00  0.00    +0.000 A 
ATOM      6  N   UNL     1      -5.678  12.046  17.132  0.00  0.00    +0.000 NA
ATOM      7  N   UNL     1      -5.735  12.506  18.429  0.00  0.00    +0.000 NA
ATOM      8  C   UNL     1      -4.549  12.331  18.994  0.00  0.00    +0.000 A 
ATOM      9  S   UNL     1      -3.802  10.895  15.518  0.00  0.00    +0.000 S 
ATOM     10  C   UNL     1      -2.658   9.761  16.327  0.00  0.00    +0.000 C 
ATOM     11  H   UNL     1      -0.251   9.254  17.124  0.00  0.00    +0.000 HD
ENDROOT
BRANCH   8  12
ATOM     12  C   UNL     1      -4.184  12.713  20.361  0.00  0.00    +0.000 A 
ATOM     13  C   UNL     1      -2.944  13.309  20.601  0.00  0.00    +0.000 A 
ATOM     14  C   UNL     1      -2.580  13.715  21.890  0.00  0.00    +0.000 A 
ATOM     15  C   UNL     1      -3.449  13.486  22.981  0.00  0.00    +0.000 A 
ATOM     16  C   UNL     1      -4.682  12.847  22.755  0.00  0.00    +0.000 A 
ATOM     17  C   UNL     1      -5.038  12.485  21.448  0.00  0.00    +0.000 A 
BRANCH  14  18
ATOM     18  O   UNL     1      -1.378  14.329  22.166  0.00  0.00    +0.000 OA
ATOM     19  C   UNL     1      -0.812  15.107  21.116  0.00  0.00    +0.000 C 
ENDBRANCH  14  18
BRANCH  15  20
ATOM     20  O   UNL     1      -2.953  13.850  24.211  0.00  0.00    +0.000 OA
ATOM     21  C   UNL     1      -3.387  15.091  24.748  0.00  0.00    +0.000 C 
ENDBRANCH  15  20
BRANCH  16  22
ATOM     22  O   UNL     1      -5.524  12.619  23.814  0.00  0.00    +0.000 OA
ATOM     23  C   UNL     1      -6.920  12.608  23.532  0.00  0.00    +0.000 C 
ENDBRANCH  16  22
ENDBRANCH   8  12
BRANCH   1  24
ATOM     24  C   UNL     1       0.029  10.141  19.002  0.00  0.00    +0.000 C 
BRANCH  24  25
ATOM     25  C   UNL     1       1.546   9.929  18.946  0.00  0.00    +0.000 C 
BRANCH  25  29
ATOM     26  C   UNL     1       2.581   5.741  19.363  0.00  0.00    +0.000 A 
ATOM     27  C   UNL     1       2.818   6.414  18.161  0.00  0.00    +0.000 A 
ATOM     28  C   UNL     1       2.498   7.771  18.030  0.00  0.00    +0.000 A 
ATOM     29  C   UNL     1       1.920   8.472  19.092  0.00  0.00    +0.000 A 
ATOM     30  C   UNL     1       1.683   7.786  20.296  0.00  0.00    +0.000 A 
ATOM     31  C   UNL     1       2.003   6.431  20.427  0.00  0.00    +0.000 A 
BRANCH  26  33
ATOM     32  C   UNL     1       4.032   4.058  18.554  0.00  0.00    +0.000 C 
ATOM     33  O   UNL     1       2.917   4.419  19.363  0.00  0.00    +0.000 OA
ENDBRANCH  26  33
ENDBRANCH  25  29
ENDBRANCH  24  25
ENDBRANCH   1  24
TORSDOF 8
ENDMDL
