MODEL 1
REMARK VINA RESULT:      -6.8      0.000      0.000
REMARK  Name = 
REMARK  7 active torsions:
REMARK  status: ('A' for Active; 'I' for Inactive)
REMARK    1  A    between atoms: O_1  and  C_2
REMARK    2  A    between atoms: C_2  and  C_3
REMARK    3  A    between atoms: C_3  and  C_4
REMARK    4  A    between atoms: N_6  and  C_7
REMARK    5  A    between atoms: C_7  and  C_8
REMARK    6  A    between atoms: N_19  and  C_20
REMARK    7  A    between atoms: C_20  and  C_21
REMARK                            x       y       z     vdW  Elec       q    Type
REMARK                         _______ _______ _______ _____ _____    ______ ____
ROOT
ATOM      1  C   UNL     1       3.215   4.387  19.810  0.00  0.00    +0.000 C 
ATOM      2  C   UNL     1       1.862   5.068  19.424  0.00  0.00    +0.000 C 
ATOM      3  N   UNL     1       1.970   6.534  19.221  0.00  0.00    +0.000 NA
ATOM      4  C   UNL     1       3.056   6.785  18.249  0.00  0.00    +0.000 C 
ATOM      5  C   UNL     1       4.392   6.074  18.572  0.00  0.00    +0.000 C 
ATOM      6  N   UNL     1       4.281   4.603  18.794  0.00  0.00    +0.000 NA
ENDROOT
BRANCH   1   7
ATOM      7  C   UNL     1       2.977   2.953  20.307  0.00  0.00    +0.000 C 
BRANCH   7   8
ATOM      8  C   UNL     1       1.541   2.706  20.754  0.00  0.00    +0.000 C 
BRANCH   8   9
ATOM      9  O   UNL     1       1.533   2.569  22.172  0.00  0.00    +0.000 OA
ATOM     10  H   UNL     1       1.938   1.709  22.380  0.00  0.00    +0.000 HD
ENDBRANCH   8   9
ENDBRANCH   7   8
ENDBRANCH   1   7
BRANCH   3  11
ATOM     11  C   UNL     1       2.185   7.209  20.516  0.00  0.00    +0.000 C 
BRANCH  11  12
ATOM     12  C   UNL     1       1.304   8.429  20.730  0.00  0.00    +0.000 A 
ATOM     13  C   UNL     1       0.936   9.237  19.614  0.00  0.00    +0.000 A 
ATOM     14  C   UNL     1       0.172  10.417  19.720  0.00  0.00    +0.000 A 
ATOM     15  C   UNL     1      -0.207  10.748  21.034  0.00  0.00    +0.000 A 
ATOM     16  N   UNL     1      -0.907  11.798  21.477  0.00  0.00    +0.000 NA
ATOM     17  O   UNL     1      -0.990  11.643  22.850  0.00  0.00    +0.000 OA
ATOM     18  N   UNL     1      -0.350  10.491  23.279  0.00  0.00    +0.000 NA
ATOM     19  C   UNL     1       0.147   9.925  22.181  0.00  0.00    +0.000 A 
ATOM     20  C   UNL     1       0.903   8.743  22.051  0.00  0.00    +0.000 A 
ENDBRANCH  11  12
ENDBRANCH   3  11
BRANCH   6  21
ATOM     21  C   UNL     1       4.073   3.877  17.522  0.00  0.00    +0.000 C 
BRANCH  21  22
ATOM     22  C   UNL     1       5.250   4.128  16.601  0.00  0.00    +0.000 A 
ATOM     23  C   UNL     1       6.616   4.267  17.033  0.00  0.00    +0.000 A 
ATOM     24  C   UNL     1       7.455   4.687  16.024  0.00  0.00    +0.000 A 
ATOM     25  S   UNL     1       6.647   4.791  14.524  0.00  0.00    +0.000 S 
ATOM     26  C   UNL     1       5.159   4.321  15.233  0.00  0.00    +0.000 A 
ENDBRANCH  21  22
ENDBRANCH   6  21
TORSDOF 7
ENDMDL
MODEL 2
REMARK VINA RESULT:      -6.7      1.117      1.201
REMARK  Name = 
REMARK  7 active torsions:
REMARK  status: ('A' for Active; 'I' for Inactive)
REMARK    1  A    between atoms: O_1  and  C_2
REMARK    2  A    between atoms: C_2  and  C_3
REMARK    3  A    between atoms: C_3  and  C_4
REMARK    4  A    between atoms: N_6  and  C_7
REMARK    5  A    between atoms: C_7  and  C_8
REMARK    6  A    between atoms: N_19  and  C_20
REMARK    7  A    between atoms: C_20  and  C_21
REMARK                            x       y       z     vdW  Elec       q    Type
REMARK                         _______ _______ _______ _____ _____    ______ ____
ROOT
ATOM      1  C   UNL     1       3.179   4.370  19.139  0.00  0.00    +0.000 C 
ATOM      2  C   UNL     1       1.868   5.168  18.838  0.00  0.00    +0.000 C 
ATOM      3  N   UNL     1       2.056   6.640  18.833  0.00  0.00    +0.000 NA
ATOM      4  C   UNL     1       3.167   6.960  17.912  0.00  0.00    +0.000 C 
ATOM      5  C   UNL     1       4.460   6.141  18.147  0.00  0.00    +0.000 C 
ATOM      6  N   UNL     1       4.269   4.662  18.170  0.00  0.00    +0.000 NA
ENDROOT
BRANCH   1   7
ATOM      7  C   UNL     1       2.859   2.898  19.438  0.00  0.00    +0.000 C 
BRANCH   7   8
ATOM      8  C   UNL     1       4.105   2.038  19.605  0.00  0.00    +0.000 C 
BRANCH   8   9
ATOM      9  O   UNL     1       4.100   1.044  18.583  0.00  0.00    +0.000 OA
ATOM     10  H   UNL     1       4.813   1.268  17.960  0.00  0.00    +0.000 HD
ENDBRANCH   8   9
ENDBRANCH   7   8
ENDBRANCH   1   7
BRANCH   3  11
ATOM     11  C   UNL     1       2.287   7.125  20.208  0.00  0.00    +0.000 C 
BRANCH  11  12
ATOM     12  C   UNL     1       1.454   8.340  20.583  0.00  0.00    +0.000 A 
ATOM     13  C   UNL     1       1.067   9.267  19.572  0.00  0.00    +0.000 A 
ATOM     14  C   UNL     1       0.346  10.451  19.830  0.00  0.00    +0.000 A 
ATOM     15  C   UNL     1       0.031  10.656  21.185  0.00  0.00    +0.000 A 
ATOM     16  N   UNL     1      -0.617  11.674  21.763  0.00  0.00    +0.000 NA
ATOM     17  O   UNL     1      -0.649  11.382  23.116  0.00  0.00    +0.000 OA
ATOM     18  N   UNL     1      -0.029  10.174  23.397  0.00  0.00    +0.000 NA
ATOM     19  C   UNL     1       0.405   9.710  22.227  0.00  0.00    +0.000 A 
ATOM     20  C   UNL     1       1.117   8.528  21.945  0.00  0.00    +0.000 A 
ENDBRANCH  11  12
ENDBRANCH   3  11
BRANCH   6  21
ATOM     21  C   UNL     1       4.043   4.124  16.810  0.00  0.00    +0.000 C 
BRANCH  21  22
ATOM     22  C   UNL     1       5.304   4.290  15.986  0.00  0.00    +0.000 A 
ATOM     23  C   UNL     1       6.628   4.430  16.532  0.00  0.00    +0.000 A 
ATOM     24  C   UNL     1       7.565   4.765  15.578  0.00  0.00    +0.000 A 
ATOM     25  S   UNL     1       6.898   4.785  14.007  0.00  0.00    +0.000 S 
ATOM     26  C   UNL     1       5.341   4.393  14.606  0.00  0.00    +0.000 A 
ENDBRANCH  21  22
ENDBRANCH   6  21
TORSDOF 7
ENDMDL
MODEL 3
REMARK VINA RESULT:      -6.5      3.668      8.153
REMARK  Name = 
REMARK  7 active torsions:
REMARK  status: ('A' for Active; 'I' for Inactive)
REMARK    1  A    between atoms: O_1  and  C_2
REMARK    2  A    between atoms: C_2  and  C_3
REMARK    3  A    between atoms: C_3  and  C_4
REMARK    4  A    between atoms: N_6  and  C_7
REMARK    5  A    between atoms: C_7  and  C_8
REMARK    6  A    between atoms: N_19  and  C_20
REMARK    7  A    between atoms: C_20  and  C_21
REMARK                            x       y       z     vdW  Elec       q    Type
REMARK                         _______ _______ _______ _____ _____    ______ ____
ROOT
ATOM      1  C   UNL     1       2.201   4.570  19.186  0.00  0.00    +0.000 C 
ATOM      2  C   UNL     1       3.617   4.011  19.540  0.00  0.00    +0.000 C 
ATOM      3  N   UNL     1       4.668   4.393  18.565  0.00  0.00    +0.000 NA
ATOM      4  C   UNL     1       4.636   5.863  18.405  0.00  0.00    +0.000 C 
ATOM      5  C   UNL     1       3.234   6.452  18.114  0.00  0.00    +0.000 C 
ATOM      6  N   UNL     1       2.174   6.054  19.084  0.00  0.00    +0.000 NA
ENDROOT
BRANCH   1   7
ATOM      7  C   UNL     1       1.121   3.889  20.042  0.00  0.00    +0.000 C 
BRANCH   7   8
ATOM      8  C   UNL     1       1.593   2.585  20.673  0.00  0.00    +0.000 C 
BRANCH   8   9
ATOM      9  O   UNL     1       1.541   2.732  22.089  0.00  0.00    +0.000 OA
ATOM     10  H   UNL     1       1.111   1.935  22.446  0.00  0.00    +0.000 HD
ENDBRANCH   8   9
ENDBRANCH   7   8
ENDBRANCH   1   7
BRANCH   3  11
ATOM     11  C   UNL     1       4.466   3.668  17.294  0.00  0.00    +0.000 C 
BRANCH  11  12
ATOM     12  C   UNL     1       5.440   4.063  16.196  0.00  0.00    +0.000 A 
ATOM     13  C   UNL     1       6.496   4.976  16.486  0.00  0.00    +0.000 A 
ATOM     14  C   UNL     1       7.413   5.445  15.522  0.00  0.00    +0.000 A 
ATOM     15  C   UNL     1       7.203   4.937  14.227  0.00  0.00    +0.000 A 
ATOM     16  N   UNL     1       7.872   5.193  13.097  0.00  0.00    +0.000 NA
ATOM     17  O   UNL     1       7.253   4.439  12.114  0.00  0.00    +0.000 OA
ATOM     18  N   UNL     1       6.197   3.698  12.622  0.00  0.00    +0.000 NA
ATOM     19  C   UNL     1       6.140   3.992  13.919  0.00  0.00    +0.000 A 
ATOM     20  C   UNL     1       5.242   3.529  14.900  0.00  0.00    +0.000 A 
ENDBRANCH  11  12
ENDBRANCH   3  11
BRANCH   6  21
ATOM     21  C   UNL     1       2.326   6.762  20.374  0.00  0.00    +0.000 C 
BRANCH  21  22
ATOM     22  C   UNL     1       1.487   8.023  20.359  0.00  0.00    +0.000 A 
ATOM     23  C   UNL     1       0.595   8.428  21.413  0.00  0.00    +0.000 A 
ATOM     24  C   UNL     1      -0.193   9.504  21.062  0.00  0.00    +0.000 A 
ATOM     25  S   UNL     1       0.218  10.120  19.524  0.00  0.00    +0.000 S 
ATOM     26  C   UNL     1       1.419   8.917  19.304  0.00  0.00    +0.000 A 
ENDBRANCH  21  22
ENDBRANCH   6  21
TORSDOF 7
ENDMDL
MODEL 4
REMARK VINA RESULT:      -6.5      0.989      1.577
REMARK  Name = 
REMARK  7 active torsions:
REMARK  status: ('A' for Active; 'I' for Inactive)
REMARK    1  A    between atoms: O_1  and  C_2
REMARK    2  A    between atoms: C_2  and  C_3
REMARK    3  A    between atoms: C_3  and  C_4
REMARK    4  A    between atoms: N_6  and  C_7
REMARK    5  A    between atoms: C_7  and  C_8
REMARK    6  A    between atoms: N_19  and  C_20
REMARK    7  A    between atoms: C_20  and  C_21
REMARK                            x       y       z     vdW  Elec       q    Type
REMARK                         _______ _______ _______ _____ _____    ______ ____
ROOT
ATOM      1  C   UNL     1       3.112   4.347  19.629  0.00  0.00    +0.000 C 
ATOM      2  C   UNL     1       1.855   5.119  19.111  0.00  0.00    +0.000 C 
ATOM      3  N   UNL     1       2.093   6.569  18.901  0.00  0.00    +0.000 NA
ATOM      4  C   UNL     1       3.279   6.720  18.032  0.00  0.00    +0.000 C 
ATOM      5  C   UNL     1       4.522   5.918  18.487  0.00  0.00    +0.000 C 
ATOM      6  N   UNL     1       4.281   4.464  18.715  0.00  0.00    +0.000 NA
ENDROOT
BRANCH   1   7
ATOM      7  C   UNL     1       2.721   2.944  20.119  0.00  0.00    +0.000 C 
BRANCH   7   8
ATOM      8  C   UNL     1       1.382   2.916  20.845  0.00  0.00    +0.000 C 
BRANCH   8   9
ATOM      9  O   UNL     1       1.610   2.480  22.182  0.00  0.00    +0.000 OA
ATOM     10  H   UNL     1       1.768   1.521  22.150  0.00  0.00    +0.000 HD
ENDBRANCH   8   9
ENDBRANCH   7   8
ENDBRANCH   1   7
BRANCH   3  11
ATOM     11  C   UNL     1       2.238   7.251  20.203  0.00  0.00    +0.000 C 
BRANCH  11  12
ATOM     12  C   UNL     1       1.330   8.458  20.373  0.00  0.00    +0.000 A 
ATOM     13  C   UNL     1       0.672   8.675  21.619  0.00  0.00    +0.000 A 
ATOM     14  C   UNL     1      -0.231   9.732  21.854  0.00  0.00    +0.000 A 
ATOM     15  C   UNL     1      -0.441  10.573  20.746  0.00  0.00    +0.000 A 
ATOM     16  N   UNL     1      -1.241  11.639  20.629  0.00  0.00    +0.000 NA
ATOM     17  O   UNL     1      -1.075  12.094  19.332  0.00  0.00    +0.000 OA
ATOM     18  N   UNL     1      -0.164  11.321  18.627  0.00  0.00    +0.000 NA
ATOM     19  C   UNL     1       0.235  10.374  19.473  0.00  0.00    +0.000 A 
ATOM     20  C   UNL     1       1.143   9.317  19.264  0.00  0.00    +0.000 A 
ENDBRANCH  11  12
ENDBRANCH   3  11
BRANCH   6  21
ATOM     21  C   UNL     1       4.136   3.732  17.438  0.00  0.00    +0.000 C 
BRANCH  21  22
ATOM     22  C   UNL     1       5.309   4.058  16.535  0.00  0.00    +0.000 A 
ATOM     23  C   UNL     1       6.660   4.260  16.986  0.00  0.00    +0.000 A 
ATOM     24  C   UNL     1       7.489   4.739  15.994  0.00  0.00    +0.000 A 
ATOM     25  S   UNL     1       6.693   4.826  14.486  0.00  0.00    +0.000 S 
ATOM     26  C   UNL     1       5.224   4.268  15.169  0.00  0.00    +0.000 A 
ENDBRANCH  21  22
ENDBRANCH   6  21
TORSDOF 7
ENDMDL
MODEL 5
REMARK VINA RESULT:      -6.5      3.775      8.624
REMARK  Name = 
REMARK  7 active torsions:
REMARK  status: ('A' for Active; 'I' for Inactive)
REMARK    1  A    between atoms: O_1  and  C_2
REMARK    2  A    between atoms: C_2  and  C_3
REMARK    3  A    between atoms: C_3  and  C_4
REMARK    4  A    between atoms: N_6  and  C_7
REMARK    5  A    between atoms: C_7  and  C_8
REMARK    6  A    between atoms: N_19  and  C_20
REMARK    7  A    between atoms: C_20  and  C_21
REMARK                            x       y       z     vdW  Elec       q    Type
REMARK                         _______ _______ _______ _____ _____    ______ ____
ROOT
ATOM      1  C   UNL     1      -0.002   9.155  20.287  0.00  0.00    +0.000 C 
ATOM      2  C   UNL     1       1.543   9.236  20.063  0.00  0.00    +0.000 C 
ATOM      3  N   UNL     1       1.936   9.273  18.632  0.00  0.00    +0.000 NA
ATOM      4  C   UNL     1       1.185  10.365  17.977  0.00  0.00    +0.000 C 
ATOM      5  C   UNL     1      -0.341  10.346  18.231  0.00  0.00    +0.000 C 
ATOM      6  N   UNL     1      -0.737  10.291  19.668  0.00  0.00    +0.000 NA
ENDROOT
BRANCH   1   7
ATOM      7  C   UNL     1      -0.319   8.806  21.749  0.00  0.00    +0.000 C 
BRANCH   7   8
ATOM      8  C   UNL     1       0.794   9.199  22.712  0.00  0.00    +0.000 C 
BRANCH   8   9
ATOM      9  O   UNL     1       0.204   9.855  23.831  0.00  0.00    +0.000 OA
ATOM     10  H   UNL     1       0.275  10.813  23.674  0.00  0.00    +0.000 HD
ENDBRANCH   8   9
ENDBRANCH   7   8
ENDBRANCH   1   7
BRANCH   3  11
ATOM     11  C   UNL     1       1.701   7.954  18.010  0.00  0.00    +0.000 C 
BRANCH  11  12
ATOM     12  C   UNL     1       2.840   6.967  18.205  0.00  0.00    +0.000 A 
ATOM     13  C   UNL     1       4.065   7.158  17.501  0.00  0.00    +0.000 A 
ATOM     14  C   UNL     1       5.156   6.267  17.572  0.00  0.00    +0.000 A 
ATOM     15  C   UNL     1       4.942   5.153  18.404  0.00  0.00    +0.000 A 
ATOM     16  N   UNL     1       5.755   4.124  18.671  0.00  0.00    +0.000 NA
ATOM     17  O   UNL     1       5.054   3.307  19.542  0.00  0.00    +0.000 OA
ATOM     18  N   UNL     1       3.801   3.821  19.836  0.00  0.00    +0.000 NA
ATOM     19  C   UNL     1       3.704   4.953  19.142  0.00  0.00    +0.000 A 
ATOM     20  C   UNL     1       2.630   5.862  19.064  0.00  0.00    +0.000 A 
ENDBRANCH  11  12
ENDBRANCH   3  11
BRANCH   6  21
ATOM     21  C   UNL     1      -0.528  11.595  20.337  0.00  0.00    +0.000 C 
BRANCH  21  22
ATOM     22  C   UNL     1      -1.841  12.077  20.920  0.00  0.00    +0.000 A 
ATOM     23  C   UNL     1      -2.952  12.567  20.147  0.00  0.00    +0.000 A 
ATOM     24  C   UNL     1      -3.940  13.126  20.928  0.00  0.00    +0.000 A 
ATOM     25  S   UNL     1      -3.612  12.951  22.594  0.00  0.00    +0.000 S 
ATOM     26  C   UNL     1      -2.122  12.169  22.273  0.00  0.00    +0.000 A 
ENDBRANCH  21  22
ENDBRANCH   6  21
TORSDOF 7
ENDMDL
MODEL 6
REMARK VINA RESULT:      -6.5      4.282      9.476
REMARK  Name = 
REMARK  7 active torsions:
REMARK  status: ('A' for Active; 'I' for Inactive)
REMARK    1  A    between atoms: O_1  and  C_2
REMARK    2  A    between atoms: C_2  and  C_3
REMARK    3  A    between atoms: C_3  and  C_4
REMARK    4  A    between atoms: N_6  and  C_7
REMARK    5  A    between atoms: C_7  and  C_8
REMARK    6  A    between atoms: N_19  and  C_20
REMARK    7  A    between atoms: C_20  and  C_21
REMARK                            x       y       z     vdW  Elec       q    Type
REMARK                         _______ _______ _______ _____ _____    ______ ____
ROOT
ATOM      1  C   UNL     1       0.256  11.218  21.009  0.00  0.00    +0.000 C 
ATOM      2  C   UNL     1      -0.223   9.920  20.282  0.00  0.00    +0.000 C 
ATOM      3  N   UNL     1       0.023   8.679  21.057  0.00  0.00    +0.000 NA
ATOM      4  C   UNL     1      -0.562   8.852  22.404  0.00  0.00    +0.000 C 
ATOM      5  C   UNL     1      -0.153  10.160  23.124  0.00  0.00    +0.000 C 
ATOM      6  N   UNL     1      -0.384  11.406  22.339  0.00  0.00    +0.000 NA
ENDROOT
BRANCH   1   7
ATOM      7  C   UNL     1       0.262  12.410  20.040  0.00  0.00    +0.000 C 
BRANCH   7   8
ATOM      8  C   UNL     1       1.105  13.579  20.535  0.00  0.00    +0.000 C 
BRANCH   8   9
ATOM      9  O   UNL     1       2.055  13.077  21.471  0.00  0.00    +0.000 OA
ATOM     10  H   UNL     1       1.898  13.535  22.315  0.00  0.00    +0.000 HD
ENDBRANCH   8   9
ENDBRANCH   7   8
ENDBRANCH   1   7
BRANCH   3  11
ATOM     11  C   UNL     1       1.470   8.382  21.088  0.00  0.00    +0.000 C 
BRANCH  11  12
ATOM     12  C   UNL     1       1.885   7.239  20.176  0.00  0.00    +0.000 A 
ATOM     13  C   UNL     1       2.408   7.527  18.881  0.00  0.00    +0.000 A 
ATOM     14  C   UNL     1       2.766   6.537  17.943  0.00  0.00    +0.000 A 
ATOM     15  C   UNL     1       2.565   5.217  18.387  0.00  0.00    +0.000 A 
ATOM     16  N   UNL     1       2.780   4.063  17.746  0.00  0.00    +0.000 NA
ATOM     17  O   UNL     1       2.412   3.065  18.631  0.00  0.00    +0.000 OA
ATOM     18  N   UNL     1       1.971   3.584  19.839  0.00  0.00    +0.000 NA
ATOM     19  C   UNL     1       2.048   4.908  19.712  0.00  0.00    +0.000 A 
ATOM     20  C   UNL     1       1.706   5.914  20.637  0.00  0.00    +0.000 A 
ENDBRANCH  11  12
ENDBRANCH   3  11
BRANCH   6  21
ATOM     21  C   UNL     1      -1.822  11.754  22.285  0.00  0.00    +0.000 C 
BRANCH  21  22
ATOM     22  C   UNL     1      -2.076  12.980  23.138  0.00  0.00    +0.000 A 
ATOM     23  C   UNL     1      -1.077  13.953  23.494  0.00  0.00    +0.000 A 
ATOM     24  C   UNL     1      -1.523  14.855  24.436  0.00  0.00    +0.000 A 
ATOM     25  S   UNL     1      -3.175  14.630  24.804  0.00  0.00    +0.000 S 
ATOM     26  C   UNL     1      -3.284  13.292  23.738  0.00  0.00    +0.000 A 
ENDBRANCH  21  22
ENDBRANCH   6  21
TORSDOF 7
ENDMDL
MODEL 7
REMARK VINA RESULT:      -6.4      3.615      8.178
REMARK  Name = 
REMARK  7 active torsions:
REMARK  status: ('A' for Active; 'I' for Inactive)
REMARK    1  A    between atoms: O_1  and  C_2
REMARK    2  A    between atoms: C_2  and  C_3
REMARK    3  A    between atoms: C_3  and  C_4
REMARK    4  A    between atoms: N_6  and  C_7
REMARK    5  A    between atoms: C_7  and  C_8
REMARK    6  A    between atoms: N_19  and  C_20
REMARK    7  A    between atoms: C_20  and  C_21
REMARK                            x       y       z     vdW  Elec       q    Type
REMARK                         _______ _______ _______ _____ _____    ______ ____
ROOT
ATOM      1  C   UNL     1       0.459   8.797  20.161  0.00  0.00    +0.000 C 
ATOM      2  C   UNL     1       1.918   8.239  20.210  0.00  0.00    +0.000 C 
ATOM      3  N   UNL     1       2.424   7.779  18.893  0.00  0.00    +0.000 NA
ATOM      4  C   UNL     1       2.244   8.878  17.921  0.00  0.00    +0.000 C 
ATOM      5  C   UNL     1       0.824   9.492  17.892  0.00  0.00    +0.000 C 
ATOM      6  N   UNL     1       0.308   9.939  19.218  0.00  0.00    +0.000 NA
ENDROOT
BRANCH   1   7
ATOM      7  C   UNL     1      -0.107   8.957  21.580  0.00  0.00    +0.000 C 
BRANCH   7   8
ATOM      8  C   UNL     1       0.964   9.254  22.621  0.00  0.00    +0.000 C 
BRANCH   8   9
ATOM      9  O   UNL     1       0.318   9.693  23.813  0.00  0.00    +0.000 OA
ATOM     10  H   UNL     1      -0.329   9.009  24.058  0.00  0.00    +0.000 HD
ENDBRANCH   8   9
ENDBRANCH   7   8
ENDBRANCH   1   7
BRANCH   3  11
ATOM     11  C   UNL     1       1.736   6.535  18.494  0.00  0.00    +0.000 C 
BRANCH  11  12
ATOM     12  C   UNL     1       2.209   5.300  19.243  0.00  0.00    +0.000 A 
ATOM     13  C   UNL     1       1.399   4.753  20.282  0.00  0.00    +0.000 A 
ATOM     14  C   UNL     1       1.778   3.647  21.069  0.00  0.00    +0.000 A 
ATOM     15  C   UNL     1       3.040   3.112  20.751  0.00  0.00    +0.000 A 
ATOM     16  N   UNL     1       3.695   2.090  21.312  0.00  0.00    +0.000 NA
ATOM     17  O   UNL     1       4.893   1.988  20.626  0.00  0.00    +0.000 OA
ATOM     18  N   UNL     1       4.995   2.939  19.623  0.00  0.00    +0.000 NA
ATOM     19  C   UNL     1       3.870   3.649  19.683  0.00  0.00    +0.000 A 
ATOM     20  C   UNL     1       3.467   4.749  18.901  0.00  0.00    +0.000 A 
ENDBRANCH  11  12
ENDBRANCH   3  11
BRANCH   6  21
ATOM     21  C   UNL     1       0.961  11.191  19.661  0.00  0.00    +0.000 C 
BRANCH  21  22
ATOM     22  C   UNL     1      -0.094  12.250  19.907  0.00  0.00    +0.000 A 
ATOM     23  C   UNL     1       0.176  13.652  20.085  0.00  0.00    +0.000 A 
ATOM     24  C   UNL     1      -0.933  14.362  20.491  0.00  0.00    +0.000 A 
ATOM     25  S   UNL     1      -2.334  13.387  20.533  0.00  0.00    +0.000 S 
ATOM     26  C   UNL     1      -1.448  12.001  20.055  0.00  0.00    +0.000 A 
ENDBRANCH  21  22
ENDBRANCH   6  21
TORSDOF 7
ENDMDL
MODEL 8
REMARK VINA RESULT:      -6.4      0.966      1.211
REMARK  Name = 
REMARK  7 active torsions:
REMARK  status: ('A' for Active; 'I' for Inactive)
REMARK    1  A    between atoms: O_1  and  C_2
REMARK    2  A    between atoms: C_2  and  C_3
REMARK    3  A    between atoms: C_3  and  C_4
REMARK    4  A    between atoms: N_6  and  C_7
REMARK    5  A    between atoms: C_7  and  C_8
REMARK    6  A    between atoms: N_19  and  C_20
REMARK    7  A    between atoms: C_20  and  C_21
REMARK                            x       y       z     vdW  Elec       q    Type
REMARK                         _______ _______ _______ _____ _____    ______ ____
ROOT
ATOM      1  C   UNL     1       3.340   4.297  19.408  0.00  0.00    +0.000 C 
ATOM      2  C   UNL     1       1.967   4.991  19.131  0.00  0.00    +0.000 C 
ATOM      3  N   UNL     1       2.059   6.467  19.011  0.00  0.00    +0.000 NA
ATOM      4  C   UNL     1       3.095   6.783  18.004  0.00  0.00    +0.000 C 
ATOM      5  C   UNL     1       4.448   6.063  18.218  0.00  0.00    +0.000 C 
ATOM      6  N   UNL     1       4.354   4.581  18.356  0.00  0.00    +0.000 NA
ENDROOT
BRANCH   1   7
ATOM      7  C   UNL     1       3.132   2.835  19.829  0.00  0.00    +0.000 C 
BRANCH   7   8
ATOM      8  C   UNL     1       1.700   2.355  19.635  0.00  0.00    +0.000 C 
BRANCH   8   9
ATOM      9  O   UNL     1       1.671   1.483  18.509  0.00  0.00    +0.000 OA
ATOM     10  H   UNL     1       2.331   0.786  18.667  0.00  0.00    +0.000 HD
ENDBRANCH   8   9
ENDBRANCH   7   8
ENDBRANCH   1   7
BRANCH   3  11
ATOM     11  C   UNL     1       2.335   7.066  20.332  0.00  0.00    +0.000 C 
BRANCH  11  12
ATOM     12  C   UNL     1       1.493   8.292  20.643  0.00  0.00    +0.000 A 
ATOM     13  C   UNL     1       1.118   9.175  19.588  0.00  0.00    +0.000 A 
ATOM     14  C   UNL     1       0.389  10.366  19.786  0.00  0.00    +0.000 A 
ATOM     15  C   UNL     1       0.054  10.625  21.127  0.00  0.00    +0.000 A 
ATOM     16  N   UNL     1      -0.607  11.664  21.651  0.00  0.00    +0.000 NA
ATOM     17  O   UNL     1      -0.658  11.429  23.014  0.00  0.00    +0.000 OA
ATOM     18  N   UNL     1      -0.038  10.237  23.355  0.00  0.00    +0.000 NA
ATOM     19  C   UNL     1       0.415   9.726  22.212  0.00  0.00    +0.000 A 
ATOM     20  C   UNL     1       1.135   8.535  21.991  0.00  0.00    +0.000 A 
ENDBRANCH  11  12
ENDBRANCH   3  11
BRANCH   6  21
ATOM     21  C   UNL     1       4.086   3.931  17.054  0.00  0.00    +0.000 C 
BRANCH  21  22
ATOM     22  C   UNL     1       5.178   4.305  16.071  0.00  0.00    +0.000 A 
ATOM     23  C   UNL     1       5.054   4.230  14.640  0.00  0.00    +0.000 A 
ATOM     24  C   UNL     1       6.251   4.434  13.989  0.00  0.00    +0.000 A 
ATOM     25  S   UNL     1       7.504   4.847  15.072  0.00  0.00    +0.000 S 
ATOM     26  C   UNL     1       6.456   4.705  16.421  0.00  0.00    +0.000 A 
ENDBRANCH  21  22
ENDBRANCH   6  21
TORSDOF 7
ENDMDL
MODEL 9
REMARK VINA RESULT:      -6.4      1.369      1.865
REMARK  Name = 
REMARK  7 active torsions:
REMARK  status: ('A' for Active; 'I' for Inactive)
REMARK    1  A    between atoms: O_1  and  C_2
REMARK    2  A    between atoms: C_2  and  C_3
REMARK    3  A    between atoms: C_3  and  C_4
REMARK    4  A    between atoms: N_6  and  C_7
REMARK    5  A    between atoms: C_7  and  C_8
REMARK    6  A    between atoms: N_19  and  C_20
REMARK    7  A    between atoms: C_20  and  C_21
REMARK                            x       y       z     vdW  Elec       q    Type
REMARK                         _______ _______ _______ _____ _____    ______ ____
ROOT
ATOM      1  C   UNL     1       3.258   4.438  19.005  0.00  0.00    +0.000 C 
ATOM      2  C   UNL     1       1.962   5.242  18.663  0.00  0.00    +0.000 C 
ATOM      3  N   UNL     1       2.167   6.711  18.624  0.00  0.00    +0.000 NA
ATOM      4  C   UNL     1       3.297   6.995  17.712  0.00  0.00    +0.000 C 
ATOM      5  C   UNL     1       4.575   6.168  17.989  0.00  0.00    +0.000 C 
ATOM      6  N   UNL     1       4.367   4.692  18.046  0.00  0.00    +0.000 NA
ENDROOT
BRANCH   1   7
ATOM      7  C   UNL     1       2.916   2.977  19.337  0.00  0.00    +0.000 C 
BRANCH   7   8
ATOM      8  C   UNL     1       3.951   2.310  20.234  0.00  0.00    +0.000 C 
BRANCH   8   9
ATOM      9  O   UNL     1       5.247   2.645  19.744  0.00  0.00    +0.000 OA
ATOM     10  H   UNL     1       5.122   3.182  18.942  0.00  0.00    +0.000 HD
ENDBRANCH   8   9
ENDBRANCH   7   8
ENDBRANCH   1   7
BRANCH   3  11
ATOM     11  C   UNL     1       2.382   7.228  19.990  0.00  0.00    +0.000 C 
BRANCH  11  12
ATOM     12  C   UNL     1       1.471   8.386  20.363  0.00  0.00    +0.000 A 
ATOM     13  C   UNL     1       1.023   8.523  21.710  0.00  0.00    +0.000 A 
ATOM     14  C   UNL     1       0.132   9.528  22.140  0.00  0.00    +0.000 A 
ATOM     15  C   UNL     1      -0.293  10.402  21.122  0.00  0.00    +0.000 A 
ATOM     16  N   UNL     1      -1.141  11.434  21.189  0.00  0.00    +0.000 NA
ATOM     17  O   UNL     1      -1.212  11.946  19.904  0.00  0.00    +0.000 OA
ATOM     18  N   UNL     1      -0.404  11.245  19.024  0.00  0.00    +0.000 NA
ATOM     19  C   UNL     1       0.168  10.284  19.747  0.00  0.00    +0.000 A 
ATOM     20  C   UNL     1       1.067   9.278  19.341  0.00  0.00    +0.000 A 
ENDBRANCH  11  12
ENDBRANCH   3  11
BRANCH   6  21
ATOM     21  C   UNL     1       4.155   4.122  16.697  0.00  0.00    +0.000 C 
BRANCH  21  22
ATOM     22  C   UNL     1       5.411   4.306  15.870  0.00  0.00    +0.000 A 
ATOM     23  C   UNL     1       6.732   4.489  16.412  0.00  0.00    +0.000 A 
ATOM     24  C   UNL     1       7.660   4.832  15.452  0.00  0.00    +0.000 A 
ATOM     25  S   UNL     1       6.992   4.808  13.881  0.00  0.00    +0.000 S 
ATOM     26  C   UNL     1       5.446   4.386  14.488  0.00  0.00    +0.000 A 
ENDBRANCH  21  22
ENDBRANCH   6  21
TORSDOF 7
ENDMDL
