MODEL 1
REMARK VINA RESULT:      -7.8      0.000      0.000
REMARK  Name = 
REMARK  7 active torsions:
REMARK  status: ('A' for Active; 'I' for Inactive)
REMARK    1  A    between atoms: C_2  and  C_3
REMARK    2  A    between atoms: C_3  and  N_4
REMARK    3  A    between atoms: C_11  and  S_12
REMARK    4  A    between atoms: S_12  and  N_15
REMARK    5  A    between atoms: N_15  and  C_16
REMARK    6  A    between atoms: N_15  and  C_17
REMARK    7  A    between atoms: C_17  and  C_18
REMARK                            x       y       z     vdW  Elec       q    Type
REMARK                         _______ _______ _______ _____ _____    ______ ____
ROOT
ATOM      1  N   UNL     1       6.209   3.387  12.652  0.00  0.00    +0.000 N 
ATOM      2  C   UNL     1       7.251   4.130  12.119  0.00  0.00    +0.000 C 
ATOM      3  O   UNL     1       7.737   4.082  11.006  0.00  0.00    +0.000 OA
ATOM      4  C   UNL     1       7.682   5.101  13.240  0.00  0.00    +0.000 C 
ATOM      5  O   UNL     1       8.506   5.983  13.175  0.00  0.00    +0.000 OA
ATOM      6  C   UNL     1       6.820   4.785  14.378  0.00  0.00    +0.000 A 
ATOM      7  C   UNL     1       6.796   5.351  15.642  0.00  0.00    +0.000 A 
ATOM      8  C   UNL     1       5.781   4.914  16.499  0.00  0.00    +0.000 A 
ATOM      9  C   UNL     1       4.894   3.889  16.115  0.00  0.00    +0.000 A 
ATOM     10  C   UNL     1       4.961   3.325  14.840  0.00  0.00    +0.000 A 
ATOM     11  C   UNL     1       5.935   3.784  13.962  0.00  0.00    +0.000 A 
ENDROOT
BRANCH   8  12
ATOM     12  S   UNL     1       5.726   5.523  18.168  0.00  0.00    +0.000 S 
ATOM     13  O   UNL     1       5.786   4.381  19.054  0.00  0.00    +0.000 OA
ATOM     14  O   UNL     1       6.726   6.566  18.205  0.00  0.00    +0.000 OA
BRANCH  12  15
ATOM     15  N   UNL     1       4.175   6.232  18.317  0.00  0.00    +0.000 NA
ATOM     16  C   UNL     1       4.011   7.556  17.667  0.00  0.00    +0.000 C 
BRANCH  15  17
ATOM     17  C   UNL     1       3.061   5.297  17.982  0.00  0.00    +0.000 C 
BRANCH  17  18
ATOM     18  C   UNL     1       2.546   4.448  19.125  0.00  0.00    +0.000 A 
ATOM     19  C   UNL     1       2.620   4.908  20.452  0.00  0.00    +0.000 A 
ATOM     20  C   UNL     1       2.095   4.161  21.502  0.00  0.00    +0.000 A 
ATOM     21  C   UNL     1       1.495   2.941  21.229  0.00  0.00    +0.000 A 
ATOM     22  F   UNL     1       0.936   2.247  22.224  0.00  0.00    +0.000 F 
ATOM     23  C   UNL     1       1.453   2.439  19.932  0.00  0.00    +0.000 A 
ATOM     24  C   UNL     1       1.979   3.189  18.880  0.00  0.00    +0.000 A 
ENDBRANCH  17  18
ENDBRANCH  15  17
ENDBRANCH  12  15
ENDBRANCH   8  12
BRANCH   1  25
ATOM     25  C   UNL     1       5.423   2.462  11.864  0.00  0.00    +0.000 C 
BRANCH  25  27
ATOM     26  C   UNL     1       3.387   3.852  10.487  0.00  0.00    +0.000 C 
ATOM     27  C   UNL     1       4.327   3.210  11.123  0.00  0.00    +0.000 C 
ENDBRANCH  25  27
ENDBRANCH   1  25
TORSDOF 6
ENDMDL
MODEL 2
REMARK VINA RESULT:      -7.6      4.716      7.930
REMARK  Name = 
REMARK  7 active torsions:
REMARK  status: ('A' for Active; 'I' for Inactive)
REMARK    1  A    between atoms: C_2  and  C_3
REMARK    2  A    between atoms: C_3  and  N_4
REMARK    3  A    between atoms: C_11  and  S_12
REMARK    4  A    between atoms: S_12  and  N_15
REMARK    5  A    between atoms: N_15  and  C_16
REMARK    6  A    between atoms: N_15  and  C_17
REMARK    7  A    between atoms: C_17  and  C_18
REMARK                            x       y       z     vdW  Elec       q    Type
REMARK                         _______ _______ _______ _____ _____    ______ ____
ROOT
ATOM      1  N   UNL     1       1.348   9.378  19.901  0.00  0.00    +0.000 N 
ATOM      2  C   UNL     1       1.796   9.876  18.688  0.00  0.00    +0.000 C 
ATOM      3  O   UNL     1       1.810  11.024  18.287  0.00  0.00    +0.000 OA
ATOM      4  C   UNL     1       2.333   8.654  17.912  0.00  0.00    +0.000 C 
ATOM      5  O   UNL     1       2.889   8.648  16.839  0.00  0.00    +0.000 OA
ATOM      6  C   UNL     1       2.101   7.507  18.789  0.00  0.00    +0.000 A 
ATOM      7  C   UNL     1       2.385   6.168  18.573  0.00  0.00    +0.000 A 
ATOM      8  C   UNL     1       2.148   5.303  19.646  0.00  0.00    +0.000 A 
ATOM      9  C   UNL     1       1.567   5.767  20.842  0.00  0.00    +0.000 A 
ATOM     10  C   UNL     1       1.272   7.120  21.017  0.00  0.00    +0.000 A 
ATOM     11  C   UNL     1       1.549   7.999  19.977  0.00  0.00    +0.000 A 
ENDROOT
BRANCH   8  12
ATOM     12  S   UNL     1       2.402   3.558  19.430  0.00  0.00    +0.000 S 
ATOM     13  O   UNL     1       1.868   2.888  20.597  0.00  0.00    +0.000 OA
ATOM     14  O   UNL     1       1.902   3.281  18.102  0.00  0.00    +0.000 OA
BRANCH  12  15
ATOM     15  N   UNL     1       4.103   3.365  19.438  0.00  0.00    +0.000 NA
ATOM     16  C   UNL     1       4.607   2.149  20.125  0.00  0.00    +0.000 C 
BRANCH  15  17
ATOM     17  C   UNL     1       4.727   3.554  18.096  0.00  0.00    +0.000 C 
BRANCH  17  18
ATOM     18  C   UNL     1       5.590   4.789  17.937  0.00  0.00    +0.000 A 
ATOM     19  C   UNL     1       6.676   5.022  18.799  0.00  0.00    +0.000 A 
ATOM     20  C   UNL     1       7.510   6.122  18.622  0.00  0.00    +0.000 A 
ATOM     21  C   UNL     1       7.255   7.002  17.583  0.00  0.00    +0.000 A 
ATOM     22  F   UNL     1       8.087   8.027  17.371  0.00  0.00    +0.000 F 
ATOM     23  C   UNL     1       6.158   6.824  16.746  0.00  0.00    +0.000 A 
ATOM     24  C   UNL     1       5.323   5.720  16.923  0.00  0.00    +0.000 A 
ENDBRANCH  17  18
ENDBRANCH  15  17
ENDBRANCH  12  15
ENDBRANCH   8  12
BRANCH   1  25
ATOM     25  C   UNL     1       0.905  10.231  20.984  0.00  0.00    +0.000 C 
BRANCH  25  27
ATOM     26  C   UNL     1      -1.443  11.609  20.232  0.00  0.00    +0.000 C 
ATOM     27  C   UNL     1      -0.359  10.972  20.579  0.00  0.00    +0.000 C 
ENDBRANCH  25  27
ENDBRANCH   1  25
TORSDOF 6
ENDMDL
MODEL 3
REMARK VINA RESULT:      -7.5      4.420      7.672
REMARK  Name = 
REMARK  7 active torsions:
REMARK  status: ('A' for Active; 'I' for Inactive)
REMARK    1  A    between atoms: C_2  and  C_3
REMARK    2  A    between atoms: C_3  and  N_4
REMARK    3  A    between atoms: C_11  and  S_12
REMARK    4  A    between atoms: S_12  and  N_15
REMARK    5  A    between atoms: N_15  and  C_16
REMARK    6  A    between atoms: N_15  and  C_17
REMARK    7  A    between atoms: C_17  and  C_18
REMARK                            x       y       z     vdW  Elec       q    Type
REMARK                         _______ _______ _______ _____ _____    ______ ____
ROOT
ATOM      1  N   UNL     1       1.520   9.290  19.391  0.00  0.00    +0.000 N 
ATOM      2  C   UNL     1       2.114   9.560  18.169  0.00  0.00    +0.000 C 
ATOM      3  O   UNL     1       2.216  10.620  17.581  0.00  0.00    +0.000 OA
ATOM      4  C   UNL     1       2.682   8.210  17.678  0.00  0.00    +0.000 C 
ATOM      5  O   UNL     1       3.347   8.006  16.690  0.00  0.00    +0.000 OA
ATOM      6  C   UNL     1       2.313   7.238  18.707  0.00  0.00    +0.000 A 
ATOM      7  C   UNL     1       2.565   5.877  18.755  0.00  0.00    +0.000 A 
ATOM      8  C   UNL     1       2.180   5.216  19.927  0.00  0.00    +0.000 A 
ATOM      9  C   UNL     1       1.495   5.894  20.954  0.00  0.00    +0.000 A 
ATOM     10  C   UNL     1       1.237   7.263  20.861  0.00  0.00    +0.000 A 
ATOM     11  C   UNL     1       1.657   7.941  19.723  0.00  0.00    +0.000 A 
ENDROOT
BRANCH   8  12
ATOM     12  S   UNL     1       2.387   3.455  20.042  0.00  0.00    +0.000 S 
ATOM     13  O   UNL     1       2.096   3.067  21.405  0.00  0.00    +0.000 OA
ATOM     14  O   UNL     1       1.633   2.929  18.926  0.00  0.00    +0.000 OA
BRANCH  12  15
ATOM     15  N   UNL     1       4.055   3.197  19.759  0.00  0.00    +0.000 NA
ATOM     16  C   UNL     1       4.635   1.994  20.407  0.00  0.00    +0.000 C 
BRANCH  15  17
ATOM     17  C   UNL     1       4.436   3.303  18.320  0.00  0.00    +0.000 C 
BRANCH  17  18
ATOM     18  C   UNL     1       5.432   4.391  17.980  0.00  0.00    +0.000 A 
ATOM     19  C   UNL     1       5.572   4.850  16.658  0.00  0.00    +0.000 A 
ATOM     20  C   UNL     1       6.442   5.891  16.347  0.00  0.00    +0.000 A 
ATOM     21  C   UNL     1       7.184   6.476  17.360  0.00  0.00    +0.000 A 
ATOM     22  F   UNL     1       7.977   7.515  17.078  0.00  0.00    +0.000 F 
ATOM     23  C   UNL     1       7.104   6.008  18.668  0.00  0.00    +0.000 A 
ATOM     24  C   UNL     1       6.231   4.966  18.979  0.00  0.00    +0.000 A 
ENDBRANCH  17  18
ENDBRANCH  15  17
ENDBRANCH  12  15
ENDBRANCH   8  12
BRANCH   1  25
ATOM     25  C   UNL     1       0.999  10.327  20.256  0.00  0.00    +0.000 C 
BRANCH  25  27
ATOM     26  C   UNL     1      -1.520  11.191  19.318  0.00  0.00    +0.000 C 
ATOM     27  C   UNL     1      -0.357  10.793  19.752  0.00  0.00    +0.000 C 
ENDBRANCH  25  27
ENDBRANCH   1  25
TORSDOF 6
ENDMDL
MODEL 4
REMARK VINA RESULT:      -7.5      6.534      9.196
REMARK  Name = 
REMARK  7 active torsions:
REMARK  status: ('A' for Active; 'I' for Inactive)
REMARK    1  A    between atoms: C_2  and  C_3
REMARK    2  A    between atoms: C_3  and  N_4
REMARK    3  A    between atoms: C_11  and  S_12
REMARK    4  A    between atoms: S_12  and  N_15
REMARK    5  A    between atoms: N_15  and  C_16
REMARK    6  A    between atoms: N_15  and  C_17
REMARK    7  A    between atoms: C_17  and  C_18
REMARK                            x       y       z     vdW  Elec       q    Type
REMARK                         _______ _______ _______ _____ _____    ______ ____
ROOT
ATOM      1  N   UNL     1       2.174   6.697  20.083  0.00  0.00    +0.000 N 
ATOM      2  C   UNL     1       2.585   6.836  18.767  0.00  0.00    +0.000 C 
ATOM      3  O   UNL     1       3.135   6.027  18.044  0.00  0.00    +0.000 OA
ATOM      4  C   UNL     1       2.167   8.263  18.352  0.00  0.00    +0.000 C 
ATOM      5  O   UNL     1       2.264   8.772  17.260  0.00  0.00    +0.000 OA
ATOM      6  C   UNL     1       1.551   8.847  19.543  0.00  0.00    +0.000 A 
ATOM      7  C   UNL     1       1.016  10.113  19.720  0.00  0.00    +0.000 A 
ATOM      8  C   UNL     1       0.393  10.356  20.949  0.00  0.00    +0.000 A 
ATOM      9  C   UNL     1       0.397   9.389  21.972  0.00  0.00    +0.000 A 
ATOM     10  C   UNL     1       0.966   8.131  21.766  0.00  0.00    +0.000 A 
ATOM     11  C   UNL     1       1.546   7.859  20.533  0.00  0.00    +0.000 A 
ENDROOT
BRANCH   8  12
ATOM     12  S   UNL     1      -0.245  11.978  21.296  0.00  0.00    +0.000 S 
ATOM     13  O   UNL     1      -0.154  12.189  22.725  0.00  0.00    +0.000 OA
ATOM     14  O   UNL     1       0.434  12.843  20.357  0.00  0.00    +0.000 OA
BRANCH  12  15
ATOM     15  N   UNL     1      -1.902  11.889  20.875  0.00  0.00    +0.000 NA
ATOM     16  C   UNL     1      -2.856  12.253  21.953  0.00  0.00    +0.000 C 
BRANCH  15  17
ATOM     17  C   UNL     1      -2.223  12.565  19.585  0.00  0.00    +0.000 C 
BRANCH  17  18
ATOM     18  C   UNL     1      -2.578  11.651  18.431  0.00  0.00    +0.000 A 
ATOM     19  C   UNL     1      -3.850  11.709  17.833  0.00  0.00    +0.000 A 
ATOM     20  C   UNL     1      -4.164  10.915  16.735  0.00  0.00    +0.000 A 
ATOM     21  C   UNL     1      -3.206  10.050  16.231  0.00  0.00    +0.000 A 
ATOM     22  F   UNL     1      -3.481   9.328  15.140  0.00  0.00    +0.000 F 
ATOM     23  C   UNL     1      -1.957   9.935  16.834  0.00  0.00    +0.000 A 
ATOM     24  C   UNL     1      -1.643  10.732  17.934  0.00  0.00    +0.000 A 
ENDBRANCH  17  18
ENDBRANCH  15  17
ENDBRANCH  12  15
ENDBRANCH   8  12
BRANCH   1  25
ATOM     25  C   UNL     1       2.246   5.440  20.799  0.00  0.00    +0.000 C 
BRANCH  25  27
ATOM     26  C   UNL     1       0.723   3.476  19.458  0.00  0.00    +0.000 C 
ATOM     27  C   UNL     1       1.426   4.383  20.077  0.00  0.00    +0.000 C 
ENDBRANCH  25  27
ENDBRANCH   1  25
TORSDOF 6
ENDMDL
MODEL 5
REMARK VINA RESULT:      -7.5      2.761      4.091
REMARK  Name = 
REMARK  7 active torsions:
REMARK  status: ('A' for Active; 'I' for Inactive)
REMARK    1  A    between atoms: C_2  and  C_3
REMARK    2  A    between atoms: C_3  and  N_4
REMARK    3  A    between atoms: C_11  and  S_12
REMARK    4  A    between atoms: S_12  and  N_15
REMARK    5  A    between atoms: N_15  and  C_16
REMARK    6  A    between atoms: N_15  and  C_17
REMARK    7  A    between atoms: C_17  and  C_18
REMARK                            x       y       z     vdW  Elec       q    Type
REMARK                         _______ _______ _______ _____ _____    ______ ____
ROOT
ATOM      1  N   UNL     1       5.858   4.482  14.683  0.00  0.00    +0.000 N 
ATOM      2  C   UNL     1       7.094   4.900  15.150  0.00  0.00    +0.000 C 
ATOM      3  O   UNL     1       8.032   5.366  14.531  0.00  0.00    +0.000 OA
ATOM      4  C   UNL     1       7.052   4.690  16.679  0.00  0.00    +0.000 C 
ATOM      5  O   UNL     1       7.894   4.997  17.490  0.00  0.00    +0.000 OA
ATOM      6  C   UNL     1       5.736   4.112  16.954  0.00  0.00    +0.000 A 
ATOM      7  C   UNL     1       5.188   3.720  18.164  0.00  0.00    +0.000 A 
ATOM      8  C   UNL     1       3.855   3.296  18.133  0.00  0.00    +0.000 A 
ATOM      9  C   UNL     1       3.151   3.194  16.917  0.00  0.00    +0.000 A 
ATOM     10  C   UNL     1       3.743   3.578  15.713  0.00  0.00    +0.000 A 
ATOM     11  C   UNL     1       5.051   4.046  15.736  0.00  0.00    +0.000 A 
ENDROOT
BRANCH   8  12
ATOM     12  S   UNL     1       3.098   2.694  19.623  0.00  0.00    +0.000 S 
ATOM     13  O   UNL     1       2.172   1.645  19.252  0.00  0.00    +0.000 OA
ATOM     14  O   UNL     1       4.205   2.446  20.518  0.00  0.00    +0.000 OA
BRANCH  12  15
ATOM     15  N   UNL     1       2.190   4.021  20.212  0.00  0.00    +0.000 NA
ATOM     16  C   UNL     1       1.284   3.722  21.350  0.00  0.00    +0.000 C 
BRANCH  15  17
ATOM     17  C   UNL     1       3.013   5.242  20.452  0.00  0.00    +0.000 C 
BRANCH  17  18
ATOM     18  C   UNL     1       2.571   6.491  19.719  0.00  0.00    +0.000 A 
ATOM     19  C   UNL     1       1.748   7.441  20.350  0.00  0.00    +0.000 A 
ATOM     20  C   UNL     1       1.386   8.619  19.704  0.00  0.00    +0.000 A 
ATOM     21  C   UNL     1       1.842   8.851  18.416  0.00  0.00    +0.000 A 
ATOM     22  F   UNL     1       1.547  10.007  17.813  0.00  0.00    +0.000 F 
ATOM     23  C   UNL     1       2.615   7.905  17.750  0.00  0.00    +0.000 A 
ATOM     24  C   UNL     1       2.978   6.725  18.398  0.00  0.00    +0.000 A 
ENDBRANCH  17  18
ENDBRANCH  15  17
ENDBRANCH  12  15
ENDBRANCH   8  12
BRANCH   1  25
ATOM     25  C   UNL     1       5.438   4.658  13.309  0.00  0.00    +0.000 C 
BRANCH  25  27
ATOM     26  C   UNL     1       6.082   2.359  11.800  0.00  0.00    +0.000 C 
ATOM     27  C   UNL     1       5.784   3.421  12.497  0.00  0.00    +0.000 C 
ENDBRANCH  25  27
ENDBRANCH   1  25
TORSDOF 6
ENDMDL
MODEL 6
REMARK VINA RESULT:      -7.5      4.643      8.781
REMARK  Name = 
REMARK  7 active torsions:
REMARK  status: ('A' for Active; 'I' for Inactive)
REMARK    1  A    between atoms: C_2  and  C_3
REMARK    2  A    between atoms: C_3  and  N_4
REMARK    3  A    between atoms: C_11  and  S_12
REMARK    4  A    between atoms: S_12  and  N_15
REMARK    5  A    between atoms: N_15  and  C_16
REMARK    6  A    between atoms: N_15  and  C_17
REMARK    7  A    between atoms: C_17  and  C_18
REMARK                            x       y       z     vdW  Elec       q    Type
REMARK                         _______ _______ _______ _____ _____    ______ ____
ROOT
ATOM      1  N   UNL     1       1.086  10.624  19.731  0.00  0.00    +0.000 N 
ATOM      2  C   UNL     1       0.769  10.715  21.077  0.00  0.00    +0.000 C 
ATOM      3  O   UNL     1       0.375  11.676  21.710  0.00  0.00    +0.000 OA
ATOM      4  C   UNL     1       0.985   9.297  21.650  0.00  0.00    +0.000 C 
ATOM      5  O   UNL     1       0.750   8.911  22.771  0.00  0.00    +0.000 OA
ATOM      6  C   UNL     1       1.460   8.494  20.523  0.00  0.00    +0.000 A 
ATOM      7  C   UNL     1       1.816   7.155  20.492  0.00  0.00    +0.000 A 
ATOM      8  C   UNL     1       2.133   6.627  19.236  0.00  0.00    +0.000 A 
ATOM      9  C   UNL     1       2.171   7.445  18.090  0.00  0.00    +0.000 A 
ATOM     10  C   UNL     1       1.828   8.796  18.163  0.00  0.00    +0.000 A 
ATOM     11  C   UNL     1       1.464   9.323  19.396  0.00  0.00    +0.000 A 
ENDROOT
BRANCH   8  12
ATOM     12  S   UNL     1       2.683   4.942  19.113  0.00  0.00    +0.000 S 
ATOM     13  O   UNL     1       2.791   4.416  20.457  0.00  0.00    +0.000 OA
ATOM     14  O   UNL     1       1.805   4.345  18.133  0.00  0.00    +0.000 OA
BRANCH  12  15
ATOM     15  N   UNL     1       4.261   5.051  18.456  0.00  0.00    +0.000 NA
ATOM     16  C   UNL     1       5.331   5.414  19.419  0.00  0.00    +0.000 C 
BRANCH  15  17
ATOM     17  C   UNL     1       4.634   3.878  17.613  0.00  0.00    +0.000 C 
BRANCH  17  18
ATOM     18  C   UNL     1       5.484   4.184  16.397  0.00  0.00    +0.000 A 
ATOM     19  C   UNL     1       5.015   3.901  15.102  0.00  0.00    +0.000 A 
ATOM     20  C   UNL     1       5.764   4.233  13.978  0.00  0.00    +0.000 A 
ATOM     21  C   UNL     1       6.996   4.847  14.145  0.00  0.00    +0.000 A 
ATOM     22  F   UNL     1       7.694   5.222  13.069  0.00  0.00    +0.000 F 
ATOM     23  C   UNL     1       7.507   5.092  15.416  0.00  0.00    +0.000 A 
ATOM     24  C   UNL     1       6.754   4.759  16.542  0.00  0.00    +0.000 A 
ENDBRANCH  17  18
ENDBRANCH  15  17
ENDBRANCH  12  15
ENDBRANCH   8  12
BRANCH   1  25
ATOM     25  C   UNL     1       0.869  11.710  18.799  0.00  0.00    +0.000 C 
BRANCH  25  27
ATOM     26  C   UNL     1      -1.848  11.796  18.032  0.00  0.00    +0.000 C 
ATOM     27  C   UNL     1      -0.594  11.756  18.386  0.00  0.00    +0.000 C 
ENDBRANCH  25  27
ENDBRANCH   1  25
TORSDOF 6
ENDMDL
MODEL 7
REMARK VINA RESULT:      -7.4      1.016      1.310
REMARK  Name = 
REMARK  7 active torsions:
REMARK  status: ('A' for Active; 'I' for Inactive)
REMARK    1  A    between atoms: C_2  and  C_3
REMARK    2  A    between atoms: C_3  and  N_4
REMARK    3  A    between atoms: C_11  and  S_12
REMARK    4  A    between atoms: S_12  and  N_15
REMARK    5  A    between atoms: N_15  and  C_16
REMARK    6  A    between atoms: N_15  and  C_17
REMARK    7  A    between atoms: C_17  and  C_18
REMARK                            x       y       z     vdW  Elec       q    Type
REMARK                         _______ _______ _______ _____ _____    ______ ____
ROOT
ATOM      1  N   UNL     1       6.193   3.419  12.777  0.00  0.00    +0.000 N 
ATOM      2  C   UNL     1       7.190   4.175  12.181  0.00  0.00    +0.000 C 
ATOM      3  O   UNL     1       7.583   4.158  11.030  0.00  0.00    +0.000 OA
ATOM      4  C   UNL     1       7.716   5.114  13.289  0.00  0.00    +0.000 C 
ATOM      5  O   UNL     1       8.536   5.995  13.181  0.00  0.00    +0.000 OA
ATOM      6  C   UNL     1       6.950   4.766  14.486  0.00  0.00    +0.000 A 
ATOM      7  C   UNL     1       7.033   5.297  15.763  0.00  0.00    +0.000 A 
ATOM      8  C   UNL     1       6.090   4.837  16.688  0.00  0.00    +0.000 A 
ATOM      9  C   UNL     1       5.171   3.825  16.350  0.00  0.00    +0.000 A 
ATOM     10  C   UNL     1       5.130   3.297  15.059  0.00  0.00    +0.000 A 
ATOM     11  C   UNL     1       6.030   3.779  14.116  0.00  0.00    +0.000 A 
ENDROOT
BRANCH   8  12
ATOM     12  S   UNL     1       6.177   5.398  18.372  0.00  0.00    +0.000 S 
ATOM     13  O   UNL     1       6.010   4.244  19.229  0.00  0.00    +0.000 OA
ATOM     14  O   UNL     1       7.369   6.213  18.421  0.00  0.00    +0.000 OA
BRANCH  12  15
ATOM     15  N   UNL     1       4.804   6.404  18.562  0.00  0.00    +0.000 NA
ATOM     16  C   UNL     1       4.090   6.755  17.308  0.00  0.00    +0.000 C 
BRANCH  15  17
ATOM     17  C   UNL     1       3.873   5.941  19.631  0.00  0.00    +0.000 C 
BRANCH  17  18
ATOM     18  C   UNL     1       2.962   4.790  19.259  0.00  0.00    +0.000 A 
ATOM     19  C   UNL     1       2.892   3.639  20.064  0.00  0.00    +0.000 A 
ATOM     20  C   UNL     1       2.014   2.603  19.762  0.00  0.00    +0.000 A 
ATOM     21  C   UNL     1       1.202   2.710  18.644  0.00  0.00    +0.000 A 
ATOM     22  F   UNL     1       0.315   1.746  18.381  0.00  0.00    +0.000 F 
ATOM     23  C   UNL     1       1.287   3.815  17.802  0.00  0.00    +0.000 A 
ATOM     24  C   UNL     1       2.167   4.853  18.106  0.00  0.00    +0.000 A 
ENDBRANCH  17  18
ENDBRANCH  15  17
ENDBRANCH  12  15
ENDBRANCH   8  12
BRANCH   1  25
ATOM     25  C   UNL     1       5.341   2.518  12.032  0.00  0.00    +0.000 C 
BRANCH  25  27
ATOM     26  C   UNL     1       3.443   3.990  10.546  0.00  0.00    +0.000 C 
ATOM     27  C   UNL     1       4.319   3.310  11.232  0.00  0.00    +0.000 C 
ENDBRANCH  25  27
ENDBRANCH   1  25
TORSDOF 6
ENDMDL
MODEL 8
REMARK VINA RESULT:      -7.4      1.258      1.404
REMARK  Name = 
REMARK  7 active torsions:
REMARK  status: ('A' for Active; 'I' for Inactive)
REMARK    1  A    between atoms: C_2  and  C_3
REMARK    2  A    between atoms: C_3  and  N_4
REMARK    3  A    between atoms: C_11  and  S_12
REMARK    4  A    between atoms: S_12  and  N_15
REMARK    5  A    between atoms: N_15  and  C_16
REMARK    6  A    between atoms: N_15  and  C_17
REMARK    7  A    between atoms: C_17  and  C_18
REMARK                            x       y       z     vdW  Elec       q    Type
REMARK                         _______ _______ _______ _____ _____    ______ ____
ROOT
ATOM      1  N   UNL     1       6.277   3.470  12.687  0.00  0.00    +0.000 N 
ATOM      2  C   UNL     1       7.139   4.259  11.941  0.00  0.00    +0.000 C 
ATOM      3  O   UNL     1       7.381   4.219  10.750  0.00  0.00    +0.000 OA
ATOM      4  C   UNL     1       7.744   5.269  12.941  0.00  0.00    +0.000 C 
ATOM      5  O   UNL     1       8.487   6.191  12.698  0.00  0.00    +0.000 OA
ATOM      6  C   UNL     1       7.162   4.925  14.238  0.00  0.00    +0.000 A 
ATOM      7  C   UNL     1       7.377   5.510  15.475  0.00  0.00    +0.000 A 
ATOM      8  C   UNL     1       6.592   5.033  16.530  0.00  0.00    +0.000 A 
ATOM      9  C   UNL     1       5.702   3.957  16.348  0.00  0.00    +0.000 A 
ATOM     10  C   UNL     1       5.527   3.377  15.091  0.00  0.00    +0.000 A 
ATOM     11  C   UNL     1       6.266   3.873  14.023  0.00  0.00    +0.000 A 
ENDROOT
BRANCH   8  12
ATOM     12  S   UNL     1       6.859   5.665  18.170  0.00  0.00    +0.000 S 
ATOM     13  O   UNL     1       7.717   4.730  18.866  0.00  0.00    +0.000 OA
ATOM     14  O   UNL     1       7.245   7.043  17.968  0.00  0.00    +0.000 OA
BRANCH  12  15
ATOM     15  N   UNL     1       5.314   5.619  18.906  0.00  0.00    +0.000 NA
ATOM     16  C   UNL     1       4.177   6.000  18.032  0.00  0.00    +0.000 C 
BRANCH  15  17
ATOM     17  C   UNL     1       5.052   4.356  19.655  0.00  0.00    +0.000 C 
BRANCH  17  18
ATOM     18  C   UNL     1       3.696   3.722  19.424  0.00  0.00    +0.000 A 
ATOM     19  C   UNL     1       2.555   4.199  20.093  0.00  0.00    +0.000 A 
ATOM     20  C   UNL     1       1.297   3.662  19.842  0.00  0.00    +0.000 A 
ATOM     21  C   UNL     1       1.173   2.634  18.920  0.00  0.00    +0.000 A 
ATOM     22  F   UNL     1      -0.040   2.154  18.629  0.00  0.00    +0.000 F 
ATOM     23  C   UNL     1       2.292   2.108  18.281  0.00  0.00    +0.000 A 
ATOM     24  C   UNL     1       3.553   2.648  18.533  0.00  0.00    +0.000 A 
ENDBRANCH  17  18
ENDBRANCH  15  17
ENDBRANCH  12  15
ENDBRANCH   8  12
BRANCH   1  25
ATOM     25  C   UNL     1       5.394   2.492  12.088  0.00  0.00    +0.000 C 
BRANCH  25  27
ATOM     26  C   UNL     1       3.417   3.792  10.545  0.00  0.00    +0.000 C 
ATOM     27  C   UNL     1       4.330   3.192  11.258  0.00  0.00    +0.000 C 
ENDBRANCH  25  27
ENDBRANCH   1  25
TORSDOF 6
ENDMDL
MODEL 9
REMARK VINA RESULT:      -7.4      3.250      7.070
REMARK  Name = 
REMARK  7 active torsions:
REMARK  status: ('A' for Active; 'I' for Inactive)
REMARK    1  A    between atoms: C_2  and  C_3
REMARK    2  A    between atoms: C_3  and  N_4
REMARK    3  A    between atoms: C_11  and  S_12
REMARK    4  A    between atoms: S_12  and  N_15
REMARK    5  A    between atoms: N_15  and  C_16
REMARK    6  A    between atoms: N_15  and  C_17
REMARK    7  A    between atoms: C_17  and  C_18
REMARK                            x       y       z     vdW  Elec       q    Type
REMARK                         _______ _______ _______ _____ _____    ______ ____
ROOT
ATOM      1  N   UNL     1       0.797   9.200  19.722  0.00  0.00    +0.000 N 
ATOM      2  C   UNL     1       0.472   8.405  20.810  0.00  0.00    +0.000 C 
ATOM      3  O   UNL     1      -0.377   8.581  21.663  0.00  0.00    +0.000 OA
ATOM      4  C   UNL     1       1.406   7.179  20.720  0.00  0.00    +0.000 C 
ATOM      5  O   UNL     1       1.406   6.199  21.427  0.00  0.00    +0.000 OA
ATOM      6  C   UNL     1       2.243   7.415  19.544  0.00  0.00    +0.000 A 
ATOM      7  C   UNL     1       3.257   6.631  19.020  0.00  0.00    +0.000 A 
ATOM      8  C   UNL     1       3.814   7.064  17.812  0.00  0.00    +0.000 A 
ATOM      9  C   UNL     1       3.418   8.279  17.221  0.00  0.00    +0.000 A 
ATOM     10  C   UNL     1       2.408   9.057  17.790  0.00  0.00    +0.000 A 
ATOM     11  C   UNL     1       1.812   8.614  18.964  0.00  0.00    +0.000 A 
ENDROOT
BRANCH   8  12
ATOM     12  S   UNL     1       5.178   6.166  17.111  0.00  0.00    +0.000 S 
ATOM     13  O   UNL     1       5.696   6.946  16.007  0.00  0.00    +0.000 OA
ATOM     14  O   UNL     1       6.003   5.817  18.245  0.00  0.00    +0.000 OA
BRANCH  12  15
ATOM     15  N   UNL     1       4.475   4.742  16.472  0.00  0.00    +0.000 NA
ATOM     16  C   UNL     1       4.817   4.437  15.060  0.00  0.00    +0.000 C 
BRANCH  15  17
ATOM     17  C   UNL     1       4.632   3.554  17.361  0.00  0.00    +0.000 C 
BRANCH  17  18
ATOM     18  C   UNL     1       3.570   3.381  18.426  0.00  0.00    +0.000 A 
ATOM     19  C   UNL     1       2.214   3.611  18.134  0.00  0.00    +0.000 A 
ATOM     20  C   UNL     1       1.226   3.397  19.089  0.00  0.00    +0.000 A 
ATOM     21  C   UNL     1       1.592   2.956  20.351  0.00  0.00    +0.000 A 
ATOM     22  F   UNL     1       0.644   2.692  21.256  0.00  0.00    +0.000 F 
ATOM     23  C   UNL     1       2.930   2.770  20.684  0.00  0.00    +0.000 A 
ATOM     24  C   UNL     1       3.919   2.984  19.725  0.00  0.00    +0.000 A 
ENDBRANCH  17  18
ENDBRANCH  15  17
ENDBRANCH  12  15
ENDBRANCH   8  12
BRANCH   1  25
ATOM     25  C   UNL     1       0.041  10.379  19.358  0.00  0.00    +0.000 C 
BRANCH  25  27
ATOM     26  C   UNL     1      -1.697   9.788  17.211  0.00  0.00    +0.000 C 
ATOM     27  C   UNL     1      -0.895  10.061  18.202  0.00  0.00    +0.000 C 
ENDBRANCH  25  27
ENDBRANCH   1  25
TORSDOF 6
ENDMDL
