MODEL 1
REMARK VINA RESULT:      -7.5      0.000      0.000
REMARK  Name = 
REMARK  9 active torsions:
REMARK  status: ('A' for Active; 'I' for Inactive)
REMARK    1  A    between atoms: C_1  and  O_2
REMARK    2  A    between atoms: O_2  and  C_3
REMARK    3  A    between atoms: C_3  and  C_5
REMARK    4  A    between atoms: C_7  and  N_8
REMARK    5  A    between atoms: N_8  and  C_9
REMARK    6  A    between atoms: C_9  and  C_10
REMARK    7  A    between atoms: C_12  and  O_13
REMARK    8  A    between atoms: C_16  and  O_17
REMARK    9  A    between atoms: C_20  and  O_21
REMARK                            x       y       z     vdW  Elec       q    Type
REMARK                         _______ _______ _______ _____ _____    ______ ____
ROOT
ATOM      1  N   UNL     1       3.545   6.877  17.931  0.00  0.00    +0.000 N 
ATOM      2  H   UNL     1       3.614   7.818  17.557  0.00  0.00    +0.000 HD
ENDROOT
BRANCH   1   5
ATOM      3  C   UNL     1       6.263   5.024  16.215  0.00  0.00    +0.000 A 
ATOM      4  C   UNL     1       5.084   5.755  16.453  0.00  0.00    +0.000 A 
ATOM      5  C   UNL     1       4.677   6.089  17.752  0.00  0.00    +0.000 A 
ATOM      6  C   UNL     1       5.513   5.713  18.809  0.00  0.00    +0.000 A 
ATOM      7  C   UNL     1       6.700   5.009  18.590  0.00  0.00    +0.000 A 
ATOM      8  C   UNL     1       7.081   4.671  17.293  0.00  0.00    +0.000 A 
BRANCH   3   9
ATOM      9  C   UNL     1       6.588   4.707  14.803  0.00  0.00    +0.000 C 
ATOM     10  O   UNL     1       5.996   3.854  14.159  0.00  0.00    +0.000 OA
BRANCH   9  12
ATOM     11  C   UNL     1       7.956   5.270  12.993  0.00  0.00    +0.000 C 
ATOM     12  O   UNL     1       7.667   5.411  14.383  0.00  0.00    +0.000 OA
ENDBRANCH   9  12
ENDBRANCH   3   9
BRANCH   8  13
ATOM     13  O   UNL     1       8.277   4.045  17.097  0.00  0.00    +0.000 OA
ATOM     14  H   UNL     1       8.961   4.703  16.893  0.00  0.00    +0.000 HD
ENDBRANCH   8  13
ENDBRANCH   1   5
BRANCH   1  15
ATOM     15  C   UNL     1       2.195   6.321  17.797  0.00  0.00    +0.000 C 
BRANCH  15  16
ATOM     16  C   UNL     1       1.991   5.129  18.703  0.00  0.00    +0.000 A 
ATOM     17  C   UNL     1       1.717   3.852  18.179  0.00  0.00    +0.000 A 
ATOM     18  C   UNL     1       1.481   2.774  19.029  0.00  0.00    +0.000 A 
ATOM     19  C   UNL     1       1.506   2.937  20.407  0.00  0.00    +0.000 A 
ATOM     20  C   UNL     1       1.758   4.197  20.948  0.00  0.00    +0.000 A 
ATOM     21  C   UNL     1       1.987   5.281  20.098  0.00  0.00    +0.000 A 
BRANCH  18  22
ATOM     22  O   UNL     1       1.213   1.534  18.534  0.00  0.00    +0.000 OA
ATOM     23  H   UNL     1       1.952   1.269  17.961  0.00  0.00    +0.000 HD
ENDBRANCH  18  22
BRANCH  21  24
ATOM     24  O   UNL     1       2.204   6.524  20.626  0.00  0.00    +0.000 OA
ATOM     25  H   UNL     1       2.790   6.436  21.397  0.00  0.00    +0.000 HD
ENDBRANCH  21  24
ENDBRANCH  15  16
ENDBRANCH   1  15
TORSDOF 8
ENDMDL
MODEL 2
REMARK VINA RESULT:      -7.5      1.349      1.901
REMARK  Name = 
REMARK  9 active torsions:
REMARK  status: ('A' for Active; 'I' for Inactive)
REMARK    1  A    between atoms: C_1  and  O_2
REMARK    2  A    between atoms: O_2  and  C_3
REMARK    3  A    between atoms: C_3  and  C_5
REMARK    4  A    between atoms: C_7  and  N_8
REMARK    5  A    between atoms: N_8  and  C_9
REMARK    6  A    between atoms: C_9  and  C_10
REMARK    7  A    between atoms: C_12  and  O_13
REMARK    8  A    between atoms: C_16  and  O_17
REMARK    9  A    between atoms: C_20  and  O_21
REMARK                            x       y       z     vdW  Elec       q    Type
REMARK                         _______ _______ _______ _____ _____    ______ ____
ROOT
ATOM      1  N   UNL     1       3.167   6.381  17.813  0.00  0.00    +0.000 N 
ATOM      2  H   UNL     1       2.553   6.323  17.006  0.00  0.00    +0.000 HD
ENDROOT
BRANCH   1   5
ATOM      3  C   UNL     1       6.219   5.032  16.190  0.00  0.00    +0.000 A 
ATOM      4  C   UNL     1       4.948   5.605  16.386  0.00  0.00    +0.000 A 
ATOM      5  C   UNL     1       4.392   5.740  17.665  0.00  0.00    +0.000 A 
ATOM      6  C   UNL     1       5.168   5.329  18.755  0.00  0.00    +0.000 A 
ATOM      7  C   UNL     1       6.442   4.781  18.582  0.00  0.00    +0.000 A 
ATOM      8  C   UNL     1       6.972   4.640  17.301  0.00  0.00    +0.000 A 
BRANCH   3   9
ATOM      9  C   UNL     1       6.701   4.919  14.793  0.00  0.00    +0.000 C 
ATOM     10  O   UNL     1       7.817   5.274  14.442  0.00  0.00    +0.000 OA
BRANCH   9  12
ATOM     11  C   UNL     1       6.147   3.520  13.004  0.00  0.00    +0.000 C 
ATOM     12  O   UNL     1       5.717   4.474  13.974  0.00  0.00    +0.000 OA
ENDBRANCH   9  12
ENDBRANCH   3   9
BRANCH   8  13
ATOM     13  O   UNL     1       8.245   4.167  17.160  0.00  0.00    +0.000 OA
ATOM     14  H   UNL     1       8.729   4.717  16.523  0.00  0.00    +0.000 HD
ENDBRANCH   8  13
ENDBRANCH   1   5
BRANCH   1  15
ATOM     15  C   UNL     1       2.429   6.341  19.079  0.00  0.00    +0.000 C 
BRANCH  15  16
ATOM     16  C   UNL     1       2.069   4.926  19.471  0.00  0.00    +0.000 A 
ATOM     17  C   UNL     1       2.439   4.400  20.722  0.00  0.00    +0.000 A 
ATOM     18  C   UNL     1       2.144   3.078  21.048  0.00  0.00    +0.000 A 
ATOM     19  C   UNL     1       1.486   2.254  20.146  0.00  0.00    +0.000 A 
ATOM     20  C   UNL     1       1.126   2.750  18.895  0.00  0.00    +0.000 A 
ATOM     21  C   UNL     1       1.428   4.073  18.562  0.00  0.00    +0.000 A 
BRANCH  18  22
ATOM     22  O   UNL     1       2.498   2.555  22.255  0.00  0.00    +0.000 OA
ATOM     23  H   UNL     1       2.043   1.703  22.363  0.00  0.00    +0.000 HD
ENDBRANCH  18  22
BRANCH  21  24
ATOM     24  O   UNL     1       1.103   4.552  17.323  0.00  0.00    +0.000 OA
ATOM     25  H   UNL     1       0.332   5.139  17.410  0.00  0.00    +0.000 HD
ENDBRANCH  21  24
ENDBRANCH  15  16
ENDBRANCH   1  15
TORSDOF 8
ENDMDL
MODEL 3
REMARK VINA RESULT:      -7.2      2.017      2.982
REMARK  Name = 
REMARK  9 active torsions:
REMARK  status: ('A' for Active; 'I' for Inactive)
REMARK    1  A    between atoms: C_1  and  O_2
REMARK    2  A    between atoms: O_2  and  C_3
REMARK    3  A    between atoms: C_3  and  C_5
REMARK    4  A    between atoms: C_7  and  N_8
REMARK    5  A    between atoms: N_8  and  C_9
REMARK    6  A    between atoms: C_9  and  C_10
REMARK    7  A    between atoms: C_12  and  O_13
REMARK    8  A    between atoms: C_16  and  O_17
REMARK    9  A    between atoms: C_20  and  O_21
REMARK                            x       y       z     vdW  Elec       q    Type
REMARK                         _______ _______ _______ _____ _____    ______ ____
ROOT
ATOM      1  N   UNL     1       5.510   3.641  19.250  0.00  0.00    +0.000 N 
ATOM      2  H   UNL     1       5.537   4.037  20.184  0.00  0.00    +0.000 HD
ENDROOT
BRANCH   1   5
ATOM      3  C   UNL     1       6.067   5.166  15.913  0.00  0.00    +0.000 A 
ATOM      4  C   UNL     1       6.135   4.292  17.014  0.00  0.00    +0.000 A 
ATOM      5  C   UNL     1       5.476   4.573  18.218  0.00  0.00    +0.000 A 
ATOM      6  C   UNL     1       4.701   5.738  18.275  0.00  0.00    +0.000 A 
ATOM      7  C   UNL     1       4.603   6.606  17.184  0.00  0.00    +0.000 A 
ATOM      8  C   UNL     1       5.278   6.317  16.000  0.00  0.00    +0.000 A 
BRANCH   3   9
ATOM      9  C   UNL     1       6.820   4.780  14.696  0.00  0.00    +0.000 C 
ATOM     10  O   UNL     1       7.704   5.470  14.212  0.00  0.00    +0.000 OA
BRANCH   9  12
ATOM     11  C   UNL     1       6.264   3.629  12.738  0.00  0.00    +0.000 C 
ATOM     12  O   UNL     1       6.327   3.635  14.164  0.00  0.00    +0.000 OA
ENDBRANCH   9  12
ENDBRANCH   3   9
BRANCH   8  13
ATOM     13  O   UNL     1       5.112   7.142  14.926  0.00  0.00    +0.000 OA
ATOM     14  H   UNL     1       5.975   7.336  14.525  0.00  0.00    +0.000 HD
ENDBRANCH   8  13
ENDBRANCH   1   5
BRANCH   1  15
ATOM     15  C   UNL     1       4.728   2.403  19.190  0.00  0.00    +0.000 C 
BRANCH  15  16
ATOM     16  C   UNL     1       3.288   2.634  19.586  0.00  0.00    +0.000 A 
ATOM     17  C   UNL     1       2.883   2.578  20.932  0.00  0.00    +0.000 A 
ATOM     18  C   UNL     1       1.542   2.742  21.274  0.00  0.00    +0.000 A 
ATOM     19  C   UNL     1       0.581   2.960  20.298  0.00  0.00    +0.000 A 
ATOM     20  C   UNL     1       0.957   3.002  18.957  0.00  0.00    +0.000 A 
ATOM     21  C   UNL     1       2.299   2.829  18.610  0.00  0.00    +0.000 A 
BRANCH  18  22
ATOM     22  O   UNL     1       1.137   2.688  22.574  0.00  0.00    +0.000 OA
ATOM     23  H   UNL     1       1.354   3.536  22.996  0.00  0.00    +0.000 HD
ENDBRANCH  18  22
BRANCH  21  24
ATOM     24  O   UNL     1       2.667   2.839  17.292  0.00  0.00    +0.000 OA
ATOM     25  H   UNL     1       3.615   2.631  17.233  0.00  0.00    +0.000 HD
ENDBRANCH  21  24
ENDBRANCH  15  16
ENDBRANCH   1  15
TORSDOF 8
ENDMDL
MODEL 4
REMARK VINA RESULT:      -7.1      2.043      6.426
REMARK  Name = 
REMARK  9 active torsions:
REMARK  status: ('A' for Active; 'I' for Inactive)
REMARK    1  A    between atoms: C_1  and  O_2
REMARK    2  A    between atoms: O_2  and  C_3
REMARK    3  A    between atoms: C_3  and  C_5
REMARK    4  A    between atoms: C_7  and  N_8
REMARK    5  A    between atoms: N_8  and  C_9
REMARK    6  A    between atoms: C_9  and  C_10
REMARK    7  A    between atoms: C_12  and  O_13
REMARK    8  A    between atoms: C_16  and  O_17
REMARK    9  A    between atoms: C_20  and  O_21
REMARK                            x       y       z     vdW  Elec       q    Type
REMARK                         _______ _______ _______ _____ _____    ______ ____
ROOT
ATOM      1  N   UNL     1       4.383   4.167  16.191  0.00  0.00    +0.000 N 
ATOM      2  H   UNL     1       4.245   5.031  15.677  0.00  0.00    +0.000 HD
ENDROOT
BRANCH   1   5
ATOM      3  C   UNL     1       2.231   4.825  19.141  0.00  0.00    +0.000 A 
ATOM      4  C   UNL     1       3.197   4.974  18.129  0.00  0.00    +0.000 A 
ATOM      5  C   UNL     1       3.475   3.943  17.220  0.00  0.00    +0.000 A 
ATOM      6  C   UNL     1       2.719   2.770  17.322  0.00  0.00    +0.000 A 
ATOM      7  C   UNL     1       1.739   2.613  18.306  0.00  0.00    +0.000 A 
ATOM      8  C   UNL     1       1.487   3.642  19.210  0.00  0.00    +0.000 A 
BRANCH   3   9
ATOM      9  C   UNL     1       2.033   5.971  20.061  0.00  0.00    +0.000 C 
ATOM     10  O   UNL     1       1.653   5.842  21.215  0.00  0.00    +0.000 OA
BRANCH   9  12
ATOM     11  C   UNL     1       1.681   8.282  20.085  0.00  0.00    +0.000 C 
ATOM     12  O   UNL     1       2.233   7.148  19.418  0.00  0.00    +0.000 OA
ENDBRANCH   9  12
ENDBRANCH   3   9
BRANCH   8  13
ATOM     13  O   UNL     1       0.478   3.494  20.117  0.00  0.00    +0.000 OA
ATOM     14  H   UNL     1       0.849   3.265  20.985  0.00  0.00    +0.000 HD
ENDBRANCH   8  13
ENDBRANCH   1   5
BRANCH   1  15
ATOM     15  C   UNL     1       5.801   3.823  16.333  0.00  0.00    +0.000 C 
BRANCH  15  16
ATOM     16  C   UNL     1       6.565   4.900  17.070  0.00  0.00    +0.000 A 
ATOM     17  C   UNL     1       7.245   4.621  18.269  0.00  0.00    +0.000 A 
ATOM     18  C   UNL     1       7.902   5.636  18.962  0.00  0.00    +0.000 A 
ATOM     19  C   UNL     1       7.895   6.939  18.488  0.00  0.00    +0.000 A 
ATOM     20  C   UNL     1       7.212   7.242  17.311  0.00  0.00    +0.000 A 
ATOM     21  C   UNL     1       6.546   6.228  16.618  0.00  0.00    +0.000 A 
BRANCH  18  22
ATOM     22  O   UNL     1       8.562   5.379  20.125  0.00  0.00    +0.000 OA
ATOM     23  H   UNL     1       7.956   5.553  20.865  0.00  0.00    +0.000 HD
ENDBRANCH  18  22
BRANCH  21  24
ATOM     24  O   UNL     1       5.850   6.527  15.480  0.00  0.00    +0.000 OA
ATOM     25  H   UNL     1       6.276   7.287  15.046  0.00  0.00    +0.000 HD
ENDBRANCH  21  24
ENDBRANCH  15  16
ENDBRANCH   1  15
TORSDOF 8
ENDMDL
MODEL 5
REMARK VINA RESULT:      -7.0      1.747      3.131
REMARK  Name = 
REMARK  9 active torsions:
REMARK  status: ('A' for Active; 'I' for Inactive)
REMARK    1  A    between atoms: C_1  and  O_2
REMARK    2  A    between atoms: O_2  and  C_3
REMARK    3  A    between atoms: C_3  and  C_5
REMARK    4  A    between atoms: C_7  and  N_8
REMARK    5  A    between atoms: N_8  and  C_9
REMARK    6  A    between atoms: C_9  and  C_10
REMARK    7  A    between atoms: C_12  and  O_13
REMARK    8  A    between atoms: C_16  and  O_17
REMARK    9  A    between atoms: C_20  and  O_21
REMARK                            x       y       z     vdW  Elec       q    Type
REMARK                         _______ _______ _______ _____ _____    ______ ____
ROOT
ATOM      1  N   UNL     1       4.389   3.129  17.083  0.00  0.00    +0.000 N 
ATOM      2  H   UNL     1       4.651   2.834  18.018  0.00  0.00    +0.000 HD
ENDROOT
BRANCH   1   5
ATOM      3  C   UNL     1       6.436   4.119  14.150  0.00  0.00    +0.000 A 
ATOM      4  C   UNL     1       5.465   3.496  14.956  0.00  0.00    +0.000 A 
ATOM      5  C   UNL     1       5.414   3.707  16.341  0.00  0.00    +0.000 A 
ATOM      6  C   UNL     1       6.337   4.602  16.894  0.00  0.00    +0.000 A 
ATOM      7  C   UNL     1       7.293   5.248  16.105  0.00  0.00    +0.000 A 
ATOM      8  C   UNL     1       7.339   5.014  14.733  0.00  0.00    +0.000 A 
BRANCH   3   9
ATOM      9  C   UNL     1       6.411   3.809  12.701  0.00  0.00    +0.000 C 
ATOM     10  O   UNL     1       7.260   4.210  11.918  0.00  0.00    +0.000 OA
BRANCH   9  12
ATOM     11  C   UNL     1       5.507   2.041  11.465  0.00  0.00    +0.000 C 
ATOM     12  O   UNL     1       5.289   3.123  12.371  0.00  0.00    +0.000 OA
ENDBRANCH   9  12
ENDBRANCH   3   9
BRANCH   8  13
ATOM     13  O   UNL     1       8.235   5.709  13.973  0.00  0.00    +0.000 OA
ATOM     14  H   UNL     1       9.133   5.567  14.314  0.00  0.00    +0.000 HD
ENDBRANCH   8  13
ENDBRANCH   1   5
BRANCH   1  15
ATOM     15  C   UNL     1       3.017   3.641  17.022  0.00  0.00    +0.000 C 
BRANCH  15  16
ATOM     16  C   UNL     1       2.423   3.808  18.402  0.00  0.00    +0.000 A 
ATOM     17  C   UNL     1       2.397   5.063  19.038  0.00  0.00    +0.000 A 
ATOM     18  C   UNL     1       1.892   5.190  20.330  0.00  0.00    +0.000 A 
ATOM     19  C   UNL     1       1.409   4.085  21.017  0.00  0.00    +0.000 A 
ATOM     20  C   UNL     1       1.441   2.830  20.412  0.00  0.00    +0.000 A 
ATOM     21  C   UNL     1       1.955   2.698  19.120  0.00  0.00    +0.000 A 
BRANCH  18  22
ATOM     22  O   UNL     1       1.863   6.399  20.958  0.00  0.00    +0.000 OA
ATOM     23  H   UNL     1       1.056   6.866  20.682  0.00  0.00    +0.000 HD
ENDBRANCH  18  22
BRANCH  21  24
ATOM     24  O   UNL     1       2.016   1.463  18.536  0.00  0.00    +0.000 OA
ATOM     25  H   UNL     1       1.481   1.476  17.724  0.00  0.00    +0.000 HD
ENDBRANCH  21  24
ENDBRANCH  15  16
ENDBRANCH   1  15
TORSDOF 8
ENDMDL
MODEL 6
REMARK VINA RESULT:      -6.9      1.486      2.682
REMARK  Name = 
REMARK  9 active torsions:
REMARK  status: ('A' for Active; 'I' for Inactive)
REMARK    1  A    between atoms: C_1  and  O_2
REMARK    2  A    between atoms: O_2  and  C_3
REMARK    3  A    between atoms: C_3  and  C_5
REMARK    4  A    between atoms: C_7  and  N_8
REMARK    5  A    between atoms: N_8  and  C_9
REMARK    6  A    between atoms: C_9  and  C_10
REMARK    7  A    between atoms: C_12  and  O_13
REMARK    8  A    between atoms: C_16  and  O_17
REMARK    9  A    between atoms: C_20  and  O_21
REMARK                            x       y       z     vdW  Elec       q    Type
REMARK                         _______ _______ _______ _____ _____    ______ ____
ROOT
ATOM      1  N   UNL     1       3.765   2.937  16.998  0.00  0.00    +0.000 N 
ATOM      2  H   UNL     1       3.950   2.107  17.552  0.00  0.00    +0.000 HD
ENDROOT
BRANCH   1   5
ATOM      3  C   UNL     1       6.504   4.873  15.410  0.00  0.00    +0.000 A 
ATOM      4  C   UNL     1       5.459   3.952  15.615  0.00  0.00    +0.000 A 
ATOM      5  C   UNL     1       4.843   3.806  16.865  0.00  0.00    +0.000 A 
ATOM      6  C   UNL     1       5.270   4.647  17.899  0.00  0.00    +0.000 A 
ATOM      7  C   UNL     1       6.289   5.584  17.708  0.00  0.00    +0.000 A 
ATOM      8  C   UNL     1       6.901   5.704  16.462  0.00  0.00    +0.000 A 
BRANCH   3   9
ATOM      9  C   UNL     1       7.098   4.930  14.053  0.00  0.00    +0.000 C 
ATOM     10  O   UNL     1       8.054   5.638  13.773  0.00  0.00    +0.000 OA
BRANCH   9  12
ATOM     11  C   UNL     1       7.108   3.779  12.018  0.00  0.00    +0.000 C 
ATOM     12  O   UNL     1       6.382   4.182  13.178  0.00  0.00    +0.000 OA
ENDBRANCH   9  12
ENDBRANCH   3   9
BRANCH   8  13
ATOM     13  O   UNL     1       7.845   6.673  16.279  0.00  0.00    +0.000 OA
ATOM     14  H   UNL     1       7.988   7.152  17.112  0.00  0.00    +0.000 HD
ENDBRANCH   8  13
ENDBRANCH   1   5
BRANCH   1  15
ATOM     15  C   UNL     1       2.398   3.435  17.176  0.00  0.00    +0.000 C 
BRANCH  15  16
ATOM     16  C   UNL     1       2.063   3.633  18.637  0.00  0.00    +0.000 A 
ATOM     17  C   UNL     1       2.072   4.913  19.221  0.00  0.00    +0.000 A 
ATOM     18  C   UNL     1       1.810   5.072  20.580  0.00  0.00    +0.000 A 
ATOM     19  C   UNL     1       1.541   3.975  21.385  0.00  0.00    +0.000 A 
ATOM     20  C   UNL     1       1.545   2.696  20.832  0.00  0.00    +0.000 A 
ATOM     21  C   UNL     1       1.815   2.532  19.471  0.00  0.00    +0.000 A 
BRANCH  18  22
ATOM     22  O   UNL     1       1.818   6.306  21.157  0.00  0.00    +0.000 OA
ATOM     23  H   UNL     1       2.742   6.591  21.254  0.00  0.00    +0.000 HD
ENDBRANCH  18  22
BRANCH  21  24
ATOM     24  O   UNL     1       1.849   1.276  18.931  0.00  0.00    +0.000 OA
ATOM     25  H   UNL     1       1.658   0.631  19.635  0.00  0.00    +0.000 HD
ENDBRANCH  21  24
ENDBRANCH  15  16
ENDBRANCH   1  15
TORSDOF 8
ENDMDL
MODEL 7
REMARK VINA RESULT:      -6.9      2.271      6.729
REMARK  Name = 
REMARK  9 active torsions:
REMARK  status: ('A' for Active; 'I' for Inactive)
REMARK    1  A    between atoms: C_1  and  O_2
REMARK    2  A    between atoms: O_2  and  C_3
REMARK    3  A    between atoms: C_3  and  C_5
REMARK    4  A    between atoms: C_7  and  N_8
REMARK    5  A    between atoms: N_8  and  C_9
REMARK    6  A    between atoms: C_9  and  C_10
REMARK    7  A    between atoms: C_12  and  O_13
REMARK    8  A    between atoms: C_16  and  O_17
REMARK    9  A    between atoms: C_20  and  O_21
REMARK                            x       y       z     vdW  Elec       q    Type
REMARK                         _______ _______ _______ _____ _____    ______ ____
ROOT
ATOM      1  N   UNL     1       5.012   3.092  17.456  0.00  0.00    +0.000 N 
ATOM      2  H   UNL     1       5.455   2.259  17.081  0.00  0.00    +0.000 HD
ENDROOT
BRANCH   1   5
ATOM      3  C   UNL     1       2.338   3.200  20.026  0.00  0.00    +0.000 A 
ATOM      4  C   UNL     1       3.584   3.326  19.385  0.00  0.00    +0.000 A 
ATOM      5  C   UNL     1       3.784   2.876  18.073  0.00  0.00    +0.000 A 
ATOM      6  C   UNL     1       2.682   2.338  17.398  0.00  0.00    +0.000 A 
ATOM      7  C   UNL     1       1.431   2.227  18.011  0.00  0.00    +0.000 A 
ATOM      8  C   UNL     1       1.255   2.665  19.322  0.00  0.00    +0.000 A 
BRANCH   3   9
ATOM      9  C   UNL     1       2.244   3.690  21.423  0.00  0.00    +0.000 C 
ATOM     10  O   UNL     1       1.920   2.976  22.360  0.00  0.00    +0.000 OA
BRANCH   9  12
ATOM     11  C   UNL     1       1.568   5.806  20.693  0.00  0.00    +0.000 C 
ATOM     12  O   UNL     1       2.465   5.026  21.483  0.00  0.00    +0.000 OA
ENDBRANCH   9  12
ENDBRANCH   3   9
BRANCH   8  13
ATOM     13  O   UNL     1       0.009   2.612  19.875  0.00  0.00    +0.000 OA
ATOM     14  H   UNL     1       0.058   2.195  20.751  0.00  0.00    +0.000 HD
ENDBRANCH   8  13
ENDBRANCH   1   5
BRANCH   1  15
ATOM     15  C   UNL     1       5.255   4.276  16.628  0.00  0.00    +0.000 C 
BRANCH  15  16
ATOM     16  C   UNL     1       6.248   5.215  17.274  0.00  0.00    +0.000 A 
ATOM     17  C   UNL     1       6.952   4.846  18.435  0.00  0.00    +0.000 A 
ATOM     18  C   UNL     1       7.825   5.742  19.048  0.00  0.00    +0.000 A 
ATOM     19  C   UNL     1       8.016   7.015  18.530  0.00  0.00    +0.000 A 
ATOM     20  C   UNL     1       7.316   7.408  17.391  0.00  0.00    +0.000 A 
ATOM     21  C   UNL     1       6.433   6.514  16.779  0.00  0.00    +0.000 A 
BRANCH  18  22
ATOM     22  O   UNL     1       8.511   5.397  20.173  0.00  0.00    +0.000 OA
ATOM     23  H   UNL     1       9.440   5.661  20.057  0.00  0.00    +0.000 HD
ENDBRANCH  18  22
BRANCH  21  24
ATOM     24  O   UNL     1       5.722   6.908  15.679  0.00  0.00    +0.000 OA
ATOM     25  H   UNL     1       4.910   6.374  15.628  0.00  0.00    +0.000 HD
ENDBRANCH  21  24
ENDBRANCH  15  16
ENDBRANCH   1  15
TORSDOF 8
ENDMDL
MODEL 8
REMARK VINA RESULT:      -6.9      1.770      3.461
REMARK  Name = 
REMARK  9 active torsions:
REMARK  status: ('A' for Active; 'I' for Inactive)
REMARK    1  A    between atoms: C_1  and  O_2
REMARK    2  A    between atoms: O_2  and  C_3
REMARK    3  A    between atoms: C_3  and  C_5
REMARK    4  A    between atoms: C_7  and  N_8
REMARK    5  A    between atoms: N_8  and  C_9
REMARK    6  A    between atoms: C_9  and  C_10
REMARK    7  A    between atoms: C_12  and  O_13
REMARK    8  A    between atoms: C_16  and  O_17
REMARK    9  A    between atoms: C_20  and  O_21
REMARK                            x       y       z     vdW  Elec       q    Type
REMARK                         _______ _______ _______ _____ _____    ______ ____
ROOT
ATOM      1  N   UNL     1       3.877   2.971  17.041  0.00  0.00    +0.000 N 
ATOM      2  H   UNL     1       4.182   2.486  17.878  0.00  0.00    +0.000 HD
ENDROOT
BRANCH   1   5
ATOM      3  C   UNL     1       6.668   5.366  16.548  0.00  0.00    +0.000 A 
ATOM      4  C   UNL     1       5.609   4.646  17.132  0.00  0.00    +0.000 A 
ATOM      5  C   UNL     1       4.864   3.712  16.399  0.00  0.00    +0.000 A 
ATOM      6  C   UNL     1       5.241   3.481  15.072  0.00  0.00    +0.000 A 
ATOM      7  C   UNL     1       6.306   4.168  14.483  0.00  0.00    +0.000 A 
ATOM      8  C   UNL     1       7.026   5.105  15.222  0.00  0.00    +0.000 A 
BRANCH   3   9
ATOM      9  C   UNL     1       7.376   6.344  17.409  0.00  0.00    +0.000 C 
ATOM     10  O   UNL     1       7.925   6.035  18.456  0.00  0.00    +0.000 OA
BRANCH   9  12
ATOM     11  C   UNL     1       7.901   8.603  17.700  0.00  0.00    +0.000 C 
ATOM     12  O   UNL     1       7.238   7.603  16.927  0.00  0.00    +0.000 OA
ENDBRANCH   9  12
ENDBRANCH   3   9
BRANCH   8  13
ATOM     13  O   UNL     1       8.104   5.712  14.648  0.00  0.00    +0.000 OA
ATOM     14  H   UNL     1       7.806   6.318  13.950  0.00  0.00    +0.000 HD
ENDBRANCH   8  13
ENDBRANCH   1   5
BRANCH   1  15
ATOM     15  C   UNL     1       2.500   3.463  17.151  0.00  0.00    +0.000 C 
BRANCH  15  16
ATOM     16  C   UNL     1       2.105   3.695  18.592  0.00  0.00    +0.000 A 
ATOM     17  C   UNL     1       2.174   4.976  19.170  0.00  0.00    +0.000 A 
ATOM     18  C   UNL     1       1.854   5.164  20.512  0.00  0.00    +0.000 A 
ATOM     19  C   UNL     1       1.467   4.095  21.307  0.00  0.00    +0.000 A 
ATOM     20  C   UNL     1       1.409   2.815  20.760  0.00  0.00    +0.000 A 
ATOM     21  C   UNL     1       1.736   2.622  19.416  0.00  0.00    +0.000 A 
BRANCH  18  22
ATOM     22  O   UNL     1       1.919   6.399  21.084  0.00  0.00    +0.000 OA
ATOM     23  H   UNL     1       2.594   6.917  20.614  0.00  0.00    +0.000 HD
ENDBRANCH  18  22
BRANCH  21  24
ATOM     24  O   UNL     1       1.709   1.362  18.885  0.00  0.00    +0.000 OA
ATOM     25  H   UNL     1       1.620   1.434  17.919  0.00  0.00    +0.000 HD
ENDBRANCH  21  24
ENDBRANCH  15  16
ENDBRANCH   1  15
TORSDOF 8
ENDMDL
MODEL 9
REMARK VINA RESULT:      -6.8      2.224      6.176
REMARK  Name = 
REMARK  9 active torsions:
REMARK  status: ('A' for Active; 'I' for Inactive)
REMARK    1  A    between atoms: C_1  and  O_2
REMARK    2  A    between atoms: O_2  and  C_3
REMARK    3  A    between atoms: C_3  and  C_5
REMARK    4  A    between atoms: C_7  and  N_8
REMARK    5  A    between atoms: N_8  and  C_9
REMARK    6  A    between atoms: C_9  and  C_10
REMARK    7  A    between atoms: C_12  and  O_13
REMARK    8  A    between atoms: C_16  and  O_17
REMARK    9  A    between atoms: C_20  and  O_21
REMARK                            x       y       z     vdW  Elec       q    Type
REMARK                         _______ _______ _______ _____ _____    ______ ____
ROOT
ATOM      1  N   UNL     1       4.459   3.859  16.427  0.00  0.00    +0.000 N 
ATOM      2  H   UNL     1       3.941   4.380  15.726  0.00  0.00    +0.000 HD
ENDROOT
BRANCH   1   5
ATOM      3  C   UNL     1       2.790   5.292  19.415  0.00  0.00    +0.000 A 
ATOM      4  C   UNL     1       3.376   5.162  18.142  0.00  0.00    +0.000 A 
ATOM      5  C   UNL     1       3.960   3.960  17.721  0.00  0.00    +0.000 A 
ATOM      6  C   UNL     1       3.897   2.869  18.595  0.00  0.00    +0.000 A 
ATOM      7  C   UNL     1       3.297   2.972  19.853  0.00  0.00    +0.000 A 
ATOM      8  C   UNL     1       2.735   4.180  20.261  0.00  0.00    +0.000 A 
BRANCH   3   9
ATOM      9  C   UNL     1       2.220   6.616  19.765  0.00  0.00    +0.000 C 
ATOM     10  O   UNL     1       1.502   6.796  20.737  0.00  0.00    +0.000 OA
BRANCH   9  12
ATOM     11  C   UNL     1       1.750   8.736  18.900  0.00  0.00    +0.000 C 
ATOM     12  O   UNL     1       2.522   7.539  18.819  0.00  0.00    +0.000 OA
ENDBRANCH   9  12
ENDBRANCH   3   9
BRANCH   8  13
ATOM     13  O   UNL     1       2.094   4.238  21.464  0.00  0.00    +0.000 OA
ATOM     14  H   UNL     1       2.745   4.334  22.178  0.00  0.00    +0.000 HD
ENDBRANCH   8  13
ENDBRANCH   1   5
BRANCH   1  15
ATOM     15  C   UNL     1       5.900   3.846  16.160  0.00  0.00    +0.000 C 
BRANCH  15  16
ATOM     16  C   UNL     1       6.623   4.913  16.950  0.00  0.00    +0.000 A 
ATOM     17  C   UNL     1       7.329   4.598  18.125  0.00  0.00    +0.000 A 
ATOM     18  C   UNL     1       7.947   5.601  18.869  0.00  0.00    +0.000 A 
ATOM     19  C   UNL     1       7.876   6.928  18.471  0.00  0.00    +0.000 A 
ATOM     20  C   UNL     1       7.167   7.265  17.319  0.00  0.00    +0.000 A 
ATOM     21  C   UNL     1       6.539   6.263  16.575  0.00  0.00    +0.000 A 
BRANCH  18  22
ATOM     22  O   UNL     1       8.632   5.309  20.010  0.00  0.00    +0.000 OA
ATOM     23  H   UNL     1       8.424   5.989  20.673  0.00  0.00    +0.000 HD
ENDBRANCH  18  22
BRANCH  21  24
ATOM     24  O   UNL     1       5.817   6.594  15.462  0.00  0.00    +0.000 OA
ATOM     25  H   UNL     1       5.969   7.534  15.263  0.00  0.00    +0.000 HD
ENDBRANCH  21  24
ENDBRANCH  15  16
ENDBRANCH   1  15
TORSDOF 8
ENDMDL
