MODEL 1
REMARK VINA RESULT:      -7.2      0.000      0.000
REMARK  Name = 
REMARK  6 active torsions:
REMARK  status: ('A' for Active; 'I' for Inactive)
REMARK    1  A    between atoms: C_2  and  C_3
REMARK    2  A    between atoms: C_7  and  N_8
REMARK    3  A    between atoms: C_9  and  C_11
REMARK    4  A    between atoms: C_11  and  O_12
REMARK    5  A    between atoms: O_12  and  C_13
REMARK    6  A    between atoms: C_13  and  C_15
REMARK                            x       y       z     vdW  Elec       q    Type
REMARK                         _______ _______ _______ _____ _____    ______ ____
ROOT
ATOM      1  C   UNL     1       4.861   6.757  17.516  0.00  0.00    +0.000 C 
ENDROOT
BRANCH   1   3
ATOM      2  N   UNL     1       3.730   4.625  17.829  0.00  0.00    +0.000 N 
ATOM      3  C   UNL     1       3.942   5.882  18.373  0.00  0.00    +0.000 C 
ATOM      4  O   UNL     1       3.452   6.292  19.422  0.00  0.00    +0.000 OA
ATOM      5  H   UNL     1       3.840   4.564  16.822  0.00  0.00    +0.000 HD
BRANCH   2  10
ATOM      6  C   UNL     1       2.918   2.764  19.356  0.00  0.00    +0.000 A 
ATOM      7  C   UNL     1       1.625   2.210  19.640  0.00  0.00    +0.000 A 
ATOM      8  C   UNL     1       0.625   2.802  18.898  0.00  0.00    +0.000 A 
ATOM      9  S   UNL     1       1.250   3.947  17.793  0.00  0.00    +0.000 S 
ATOM     10  C   UNL     1       2.827   3.758  18.405  0.00  0.00    +0.000 A 
BRANCH   6  12
ATOM     11  N   UNL     1       5.150   1.937  20.389  0.00  0.00    +0.000 NA
ATOM     12  C   UNL     1       4.138   2.256  19.921  0.00  0.00    +0.000 C 
ENDBRANCH   6  12
ENDBRANCH   2  10
ENDBRANCH   1   3
BRANCH   1  13
ATOM     13  O   UNL     1       6.244   6.486  17.788  0.00  0.00    +0.000 OA
BRANCH  13  14
ATOM     14  C   UNL     1       6.672   5.225  17.581  0.00  0.00    +0.000 C 
ATOM     15  O   UNL     1       6.889   4.362  18.410  0.00  0.00    +0.000 OA
BRANCH  14  16
ATOM     16  C   UNL     1       6.847   4.969  16.087  0.00  0.00    +0.000 C 
ATOM     17  N   UNL     1       7.627   5.754  15.399  0.00  0.00    +0.000 NA
ATOM     18  N   UNL     1       7.780   5.484  14.074  0.00  0.00    +0.000 N 
ATOM     19  C   UNL     1       7.040   4.603  13.326  0.00  0.00    +0.000 C 
ATOM     20  O   UNL     1       7.237   4.466  12.121  0.00  0.00    +0.000 OA
ATOM     21  C   UNL     1       5.919   3.898  14.039  0.00  0.00    +0.000 C 
ATOM     22  C   UNL     1       6.172   3.751  15.524  0.00  0.00    +0.000 C 
ATOM     23  H   UNL     1       8.475   6.032  13.575  0.00  0.00    +0.000 HD
ENDBRANCH  14  16
ENDBRANCH  13  14
ENDBRANCH   1  13
TORSDOF 6
ENDMDL
MODEL 2
REMARK VINA RESULT:      -7.1      1.398      1.816
REMARK  Name = 
REMARK  6 active torsions:
REMARK  status: ('A' for Active; 'I' for Inactive)
REMARK    1  A    between atoms: C_2  and  C_3
REMARK    2  A    between atoms: C_7  and  N_8
REMARK    3  A    between atoms: C_9  and  C_11
REMARK    4  A    between atoms: C_11  and  O_12
REMARK    5  A    between atoms: O_12  and  C_13
REMARK    6  A    between atoms: C_13  and  C_15
REMARK                            x       y       z     vdW  Elec       q    Type
REMARK                         _______ _______ _______ _____ _____    ______ ____
ROOT
ATOM      1  C   UNL     1       5.102   6.569  17.430  0.00  0.00    +0.000 C 
ENDROOT
BRANCH   1   3
ATOM      2  N   UNL     1       3.311   4.961  17.787  0.00  0.00    +0.000 N 
ATOM      3  C   UNL     1       4.384   5.607  18.380  0.00  0.00    +0.000 C 
ATOM      4  O   UNL     1       4.744   5.459  19.545  0.00  0.00    +0.000 OA
ATOM      5  H   UNL     1       2.888   5.451  17.005  0.00  0.00    +0.000 HD
BRANCH   2  10
ATOM      6  C   UNL     1       1.626   4.380  19.597  0.00  0.00    +0.000 A 
ATOM      7  C   UNL     1       0.933   3.175  19.954  0.00  0.00    +0.000 A 
ATOM      8  C   UNL     1       1.290   2.107  19.157  0.00  0.00    +0.000 A 
ATOM      9  S   UNL     1       2.525   2.527  18.052  0.00  0.00    +0.000 S 
ATOM     10  C   UNL     1       2.478   4.159  18.536  0.00  0.00    +0.000 A 
BRANCH   6  12
ATOM     11  N   UNL     1       1.506   6.607  20.923  0.00  0.00    +0.000 NA
ATOM     12  C   UNL     1       1.507   5.608  20.333  0.00  0.00    +0.000 C 
ENDBRANCH   6  12
ENDBRANCH   2  10
ENDBRANCH   1   3
BRANCH   1  13
ATOM     13  O   UNL     1       6.528   6.463  17.556  0.00  0.00    +0.000 OA
BRANCH  13  14
ATOM     14  C   UNL     1       7.072   5.249  17.342  0.00  0.00    +0.000 C 
ATOM     15  O   UNL     1       7.528   4.477  18.163  0.00  0.00    +0.000 OA
BRANCH  14  16
ATOM     16  C   UNL     1       7.032   4.913  15.854  0.00  0.00    +0.000 C 
ATOM     17  N   UNL     1       7.731   5.635  15.024  0.00  0.00    +0.000 NA
ATOM     18  N   UNL     1       7.693   5.293  13.708  0.00  0.00    +0.000 N 
ATOM     19  C   UNL     1       6.832   4.402  13.116  0.00  0.00    +0.000 C 
ATOM     20  O   UNL     1       6.858   4.198  11.905  0.00  0.00    +0.000 OA
ATOM     21  C   UNL     1       5.802   3.774  14.013  0.00  0.00    +0.000 C 
ATOM     22  C   UNL     1       6.253   3.692  15.455  0.00  0.00    +0.000 C 
ATOM     23  H   UNL     1       8.327   5.791  13.089  0.00  0.00    +0.000 HD
ENDBRANCH  14  16
ENDBRANCH  13  14
ENDBRANCH   1  13
TORSDOF 6
ENDMDL
MODEL 3
REMARK VINA RESULT:      -7.0      1.671      2.162
REMARK  Name = 
REMARK  6 active torsions:
REMARK  status: ('A' for Active; 'I' for Inactive)
REMARK    1  A    between atoms: C_2  and  C_3
REMARK    2  A    between atoms: C_7  and  N_8
REMARK    3  A    between atoms: C_9  and  C_11
REMARK    4  A    between atoms: C_11  and  O_12
REMARK    5  A    between atoms: O_12  and  C_13
REMARK    6  A    between atoms: C_13  and  C_15
REMARK                            x       y       z     vdW  Elec       q    Type
REMARK                         _______ _______ _______ _____ _____    ______ ____
ROOT
ATOM      1  C   UNL     1       6.442   5.410  19.095  0.00  0.00    +0.000 C 
ENDROOT
BRANCH   1   3
ATOM      2  N   UNL     1       4.497   4.045  19.620  0.00  0.00    +0.000 N 
ATOM      3  C   UNL     1       4.949   5.136  18.894  0.00  0.00    +0.000 C 
ATOM      4  O   UNL     1       4.259   5.825  18.148  0.00  0.00    +0.000 OA
ATOM      5  H   UNL     1       5.204   3.353  19.849  0.00  0.00    +0.000 HD
BRANCH   2  10
ATOM      6  C   UNL     1       1.960   4.096  19.724  0.00  0.00    +0.000 A 
ATOM      7  C   UNL     1       0.932   3.198  19.280  0.00  0.00    +0.000 A 
ATOM      8  C   UNL     1       1.447   2.055  18.705  0.00  0.00    +0.000 A 
ATOM      9  S   UNL     1       3.154   2.016  18.789  0.00  0.00    +0.000 S 
ATOM     10  C   UNL     1       3.210   3.582  19.456  0.00  0.00    +0.000 A 
BRANCH   6  12
ATOM     11  N   UNL     1       1.569   6.307  21.025  0.00  0.00    +0.000 NA
ATOM     12  C   UNL     1       1.692   5.310  20.444  0.00  0.00    +0.000 C 
ENDBRANCH   6  12
ENDBRANCH   2  10
ENDBRANCH   1   3
BRANCH   1  13
ATOM     13  O   UNL     1       7.201   5.052  17.931  0.00  0.00    +0.000 OA
BRANCH  13  14
ATOM     14  C   UNL     1       7.192   5.922  16.903  0.00  0.00    +0.000 C 
ATOM     15  O   UNL     1       7.352   7.127  16.939  0.00  0.00    +0.000 OA
BRANCH  14  16
ATOM     16  C   UNL     1       6.965   5.179  15.589  0.00  0.00    +0.000 C 
ATOM     17  N   UNL     1       7.671   5.511  14.545  0.00  0.00    +0.000 NA
ATOM     18  N   UNL     1       7.461   4.813  13.397  0.00  0.00    +0.000 N 
ATOM     19  C   UNL     1       6.437   3.934  13.146  0.00  0.00    +0.000 C 
ATOM     20  O   UNL     1       6.319   3.386  12.053  0.00  0.00    +0.000 OA
ATOM     21  C   UNL     1       5.423   3.761  14.243  0.00  0.00    +0.000 C 
ATOM     22  C   UNL     1       5.995   4.032  15.618  0.00  0.00    +0.000 C 
ATOM     23  H   UNL     1       8.093   5.005  12.625  0.00  0.00    +0.000 HD
ENDBRANCH  14  16
ENDBRANCH  13  14
ENDBRANCH   1  13
TORSDOF 6
ENDMDL
MODEL 4
REMARK VINA RESULT:      -7.0      1.466      1.705
REMARK  Name = 
REMARK  6 active torsions:
REMARK  status: ('A' for Active; 'I' for Inactive)
REMARK    1  A    between atoms: C_2  and  C_3
REMARK    2  A    between atoms: C_7  and  N_8
REMARK    3  A    between atoms: C_9  and  C_11
REMARK    4  A    between atoms: C_11  and  O_12
REMARK    5  A    between atoms: O_12  and  C_13
REMARK    6  A    between atoms: C_13  and  C_15
REMARK                            x       y       z     vdW  Elec       q    Type
REMARK                         _______ _______ _______ _____ _____    ______ ____
ROOT
ATOM      1  C   UNL     1       6.407   5.472  19.278  0.00  0.00    +0.000 C 
ENDROOT
BRANCH   1   3
ATOM      2  N   UNL     1       4.710   3.729  19.241  0.00  0.00    +0.000 N 
ATOM      3  C   UNL     1       4.925   5.097  19.196  0.00  0.00    +0.000 C 
ATOM      4  O   UNL     1       4.047   5.949  19.088  0.00  0.00    +0.000 OA
ATOM      5  H   UNL     1       5.487   3.156  18.925  0.00  0.00    +0.000 HD
BRANCH   2  10
ATOM      6  C   UNL     1       2.362   2.991  19.871  0.00  0.00    +0.000 A 
ATOM      7  C   UNL     1       1.248   2.486  19.120  0.00  0.00    +0.000 A 
ATOM      8  C   UNL     1       1.537   2.350  17.778  0.00  0.00    +0.000 A 
ATOM      9  S   UNL     1       3.170   2.730  17.440  0.00  0.00    +0.000 S 
ATOM     10  C   UNL     1       3.447   3.214  19.049  0.00  0.00    +0.000 A 
BRANCH   6  12
ATOM     11  N   UNL     1       2.347   3.338  22.442  0.00  0.00    +0.000 NA
ATOM     12  C   UNL     1       2.354   3.131  21.300  0.00  0.00    +0.000 C 
ENDBRANCH   6  12
ENDBRANCH   2  10
ENDBRANCH   1   3
BRANCH   1  13
ATOM     13  O   UNL     1       7.123   5.037  18.114  0.00  0.00    +0.000 OA
BRANCH  13  14
ATOM     14  C   UNL     1       7.226   5.915  17.096  0.00  0.00    +0.000 C 
ATOM     15  O   UNL     1       7.474   7.104  17.155  0.00  0.00    +0.000 OA
BRANCH  14  16
ATOM     16  C   UNL     1       7.006   5.202  15.765  0.00  0.00    +0.000 C 
ATOM     17  N   UNL     1       7.657   5.613  14.713  0.00  0.00    +0.000 NA
ATOM     18  N   UNL     1       7.456   4.941  13.548  0.00  0.00    +0.000 N 
ATOM     19  C   UNL     1       6.481   4.007  13.297  0.00  0.00    +0.000 C 
ATOM     20  O   UNL     1       6.363   3.489  12.189  0.00  0.00    +0.000 OA
ATOM     21  C   UNL     1       5.514   3.735  14.416  0.00  0.00    +0.000 C 
ATOM     22  C   UNL     1       6.111   3.996  15.781  0.00  0.00    +0.000 C 
ATOM     23  H   UNL     1       8.051   5.198  12.765  0.00  0.00    +0.000 HD
ENDBRANCH  14  16
ENDBRANCH  13  14
ENDBRANCH   1  13
TORSDOF 6
ENDMDL
MODEL 5
REMARK VINA RESULT:      -7.0      1.857      2.234
REMARK  Name = 
REMARK  6 active torsions:
REMARK  status: ('A' for Active; 'I' for Inactive)
REMARK    1  A    between atoms: C_2  and  C_3
REMARK    2  A    between atoms: C_7  and  N_8
REMARK    3  A    between atoms: C_9  and  C_11
REMARK    4  A    between atoms: C_11  and  O_12
REMARK    5  A    between atoms: O_12  and  C_13
REMARK    6  A    between atoms: C_13  and  C_15
REMARK                            x       y       z     vdW  Elec       q    Type
REMARK                         _______ _______ _______ _____ _____    ______ ____
ROOT
ATOM      1  C   UNL     1       6.666   5.446  19.180  0.00  0.00    +0.000 C 
ENDROOT
BRANCH   1   3
ATOM      2  N   UNL     1       4.235   5.346  19.191  0.00  0.00    +0.000 N 
ATOM      3  C   UNL     1       5.397   4.604  19.330  0.00  0.00    +0.000 C 
ATOM      4  O   UNL     1       5.443   3.399  19.564  0.00  0.00    +0.000 OA
ATOM      5  H   UNL     1       4.322   6.335  19.408  0.00  0.00    +0.000 HD
BRANCH   2  10
ATOM      6  C   UNL     1       2.231   3.847  18.755  0.00  0.00    +0.000 A 
ATOM      7  C   UNL     1       1.040   3.545  19.497  0.00  0.00    +0.000 A 
ATOM      8  C   UNL     1       0.967   4.247  20.682  0.00  0.00    +0.000 A 
ATOM      9  S   UNL     1       2.272   5.338  20.853  0.00  0.00    +0.000 S 
ATOM     10  C   UNL     1       3.005   4.770  19.425  0.00  0.00    +0.000 A 
BRANCH   6  12
ATOM     11  N   UNL     1       2.655   2.969  16.350  0.00  0.00    +0.000 NA
ATOM     12  C   UNL     1       2.499   3.325  17.444  0.00  0.00    +0.000 C 
ENDBRANCH   6  12
ENDBRANCH   2  10
ENDBRANCH   1   3
BRANCH   1  13
ATOM     13  O   UNL     1       7.331   5.172  17.938  0.00  0.00    +0.000 OA
BRANCH  13  14
ATOM     14  C   UNL     1       7.103   6.025  16.921  0.00  0.00    +0.000 C 
ATOM     15  O   UNL     1       7.061   7.240  16.956  0.00  0.00    +0.000 OA
BRANCH  14  16
ATOM     16  C   UNL     1       6.910   5.250  15.620  0.00  0.00    +0.000 C 
ATOM     17  N   UNL     1       7.683   5.516  14.606  0.00  0.00    +0.000 NA
ATOM     18  N   UNL     1       7.501   4.791  13.470  0.00  0.00    +0.000 N 
ATOM     19  C   UNL     1       6.452   3.950  13.192  0.00  0.00    +0.000 C 
ATOM     20  O   UNL     1       6.365   3.373  12.111  0.00  0.00    +0.000 OA
ATOM     21  C   UNL     1       5.376   3.859  14.238  0.00  0.00    +0.000 C 
ATOM     22  C   UNL     1       5.888   4.149  15.632  0.00  0.00    +0.000 C 
ATOM     23  H   UNL     1       8.181   4.929  12.727  0.00  0.00    +0.000 HD
ENDBRANCH  14  16
ENDBRANCH  13  14
ENDBRANCH   1  13
TORSDOF 6
ENDMDL
MODEL 6
REMARK VINA RESULT:      -7.0      1.401      1.448
REMARK  Name = 
REMARK  6 active torsions:
REMARK  status: ('A' for Active; 'I' for Inactive)
REMARK    1  A    between atoms: C_2  and  C_3
REMARK    2  A    between atoms: C_7  and  N_8
REMARK    3  A    between atoms: C_9  and  C_11
REMARK    4  A    between atoms: C_11  and  O_12
REMARK    5  A    between atoms: O_12  and  C_13
REMARK    6  A    between atoms: C_13  and  C_15
REMARK                            x       y       z     vdW  Elec       q    Type
REMARK                         _______ _______ _______ _____ _____    ______ ____
ROOT
ATOM      1  C   UNL     1       4.549   6.546  17.518  0.00  0.00    +0.000 C 
ENDROOT
BRANCH   1   3
ATOM      2  N   UNL     1       3.827   5.074  19.317  0.00  0.00    +0.000 N 
ATOM      3  C   UNL     1       3.463   5.641  18.106  0.00  0.00    +0.000 C 
ATOM      4  O   UNL     1       2.396   5.451  17.528  0.00  0.00    +0.000 OA
ATOM      5  H   UNL     1       4.827   4.980  19.469  0.00  0.00    +0.000 HD
BRANCH   2  10
ATOM      6  C   UNL     1       2.835   2.778  19.758  0.00  0.00    +0.000 A 
ATOM      7  C   UNL     1       1.897   2.272  20.719  0.00  0.00    +0.000 A 
ATOM      8  C   UNL     1       1.417   3.260  21.555  0.00  0.00    +0.000 A 
ATOM      9  S   UNL     1       2.014   4.802  21.120  0.00  0.00    +0.000 S 
ATOM     10  C   UNL     1       3.020   4.134  19.919  0.00  0.00    +0.000 A 
BRANCH   6  12
ATOM     11  N   UNL     1       3.952   1.361  17.892  0.00  0.00    +0.000 NA
ATOM     12  C   UNL     1       3.406   1.975  18.713  0.00  0.00    +0.000 C 
ENDBRANCH   6  12
ENDBRANCH   2  10
ENDBRANCH   1   3
BRANCH   1  13
ATOM     13  O   UNL     1       5.842   6.223  18.048  0.00  0.00    +0.000 OA
BRANCH  13  14
ATOM     14  C   UNL     1       6.323   4.994  17.780  0.00  0.00    +0.000 C 
ATOM     15  O   UNL     1       6.492   4.070  18.552  0.00  0.00    +0.000 OA
BRANCH  14  16
ATOM     16  C   UNL     1       6.636   4.867  16.291  0.00  0.00    +0.000 C 
ATOM     17  N   UNL     1       7.517   5.667  15.760  0.00  0.00    +0.000 NA
ATOM     18  N   UNL     1       7.790   5.512  14.437  0.00  0.00    +0.000 N 
ATOM     19  C   UNL     1       7.088   4.747  13.538  0.00  0.00    +0.000 C 
ATOM     20  O   UNL     1       7.399   4.710  12.350  0.00  0.00    +0.000 OA
ATOM     21  C   UNL     1       5.870   4.044  14.070  0.00  0.00    +0.000 C 
ATOM     22  C   UNL     1       5.964   3.746  15.550  0.00  0.00    +0.000 C 
ATOM     23  H   UNL     1       8.556   6.063  14.061  0.00  0.00    +0.000 HD
ENDBRANCH  14  16
ENDBRANCH  13  14
ENDBRANCH   1  13
TORSDOF 6
ENDMDL
MODEL 7
REMARK VINA RESULT:      -6.9      1.510      1.713
REMARK  Name = 
REMARK  6 active torsions:
REMARK  status: ('A' for Active; 'I' for Inactive)
REMARK    1  A    between atoms: C_2  and  C_3
REMARK    2  A    between atoms: C_7  and  N_8
REMARK    3  A    between atoms: C_9  and  C_11
REMARK    4  A    between atoms: C_11  and  O_12
REMARK    5  A    between atoms: O_12  and  C_13
REMARK    6  A    between atoms: C_13  and  C_15
REMARK                            x       y       z     vdW  Elec       q    Type
REMARK                         _______ _______ _______ _____ _____    ______ ____
ROOT
ATOM      1  C   UNL     1       6.282   5.764  18.886  0.00  0.00    +0.000 C 
ENDROOT
BRANCH   1   3
ATOM      2  N   UNL     1       4.382   4.595  19.859  0.00  0.00    +0.000 N 
ATOM      3  C   UNL     1       4.798   5.396  18.807  0.00  0.00    +0.000 C 
ATOM      4  O   UNL     1       4.085   5.779  17.883  0.00  0.00    +0.000 OA
ATOM      5  H   UNL     1       5.110   4.039  20.295  0.00  0.00    +0.000 HD
BRANCH   2  10
ATOM      6  C   UNL     1       2.555   2.877  19.454  0.00  0.00    +0.000 A 
ATOM      7  C   UNL     1       1.159   2.820  19.783  0.00  0.00    +0.000 A 
ATOM      8  C   UNL     1       0.724   3.958  20.428  0.00  0.00    +0.000 A 
ATOM      9  S   UNL     1       1.963   5.131  20.547  0.00  0.00    +0.000 S 
ATOM     10  C   UNL     1       3.109   4.068  19.874  0.00  0.00    +0.000 A 
BRANCH   6  12
ATOM     11  N   UNL     1       3.851   1.056  18.136  0.00  0.00    +0.000 NA
ATOM     12  C   UNL     1       3.231   1.863  18.694  0.00  0.00    +0.000 C 
ENDBRANCH   6  12
ENDBRANCH   2  10
ENDBRANCH   1   3
BRANCH   1  13
ATOM     13  O   UNL     1       7.029   5.159  17.821  0.00  0.00    +0.000 OA
BRANCH  13  14
ATOM     14  C   UNL     1       7.297   5.928  16.748  0.00  0.00    +0.000 C 
ATOM     15  O   UNL     1       7.724   7.066  16.730  0.00  0.00    +0.000 OA
BRANCH  14  16
ATOM     16  C   UNL     1       7.006   5.156  15.464  0.00  0.00    +0.000 C 
ATOM     17  N   UNL     1       7.646   5.477  14.375  0.00  0.00    +0.000 NA
ATOM     18  N   UNL     1       7.382   4.754  13.254  0.00  0.00    +0.000 N 
ATOM     19  C   UNL     1       6.359   3.856  13.080  0.00  0.00    +0.000 C 
ATOM     20  O   UNL     1       6.187   3.284  12.006  0.00  0.00    +0.000 OA
ATOM     21  C   UNL     1       5.412   3.690  14.236  0.00  0.00    +0.000 C 
ATOM     22  C   UNL     1       6.057   3.996  15.570  0.00  0.00    +0.000 C 
ATOM     23  H   UNL     1       7.966   4.939  12.444  0.00  0.00    +0.000 HD
ENDBRANCH  14  16
ENDBRANCH  13  14
ENDBRANCH   1  13
TORSDOF 6
ENDMDL
MODEL 8
REMARK VINA RESULT:      -6.9      1.810      2.255
REMARK  Name = 
REMARK  6 active torsions:
REMARK  status: ('A' for Active; 'I' for Inactive)
REMARK    1  A    between atoms: C_2  and  C_3
REMARK    2  A    between atoms: C_7  and  N_8
REMARK    3  A    between atoms: C_9  and  C_11
REMARK    4  A    between atoms: C_11  and  O_12
REMARK    5  A    between atoms: O_12  and  C_13
REMARK    6  A    between atoms: C_13  and  C_15
REMARK                            x       y       z     vdW  Elec       q    Type
REMARK                         _______ _______ _______ _____ _____    ______ ____
ROOT
ATOM      1  C   UNL     1       4.833   6.683  17.120  0.00  0.00    +0.000 C 
ENDROOT
BRANCH   1   3
ATOM      2  N   UNL     1       4.133   5.370  19.046  0.00  0.00    +0.000 N 
ATOM      3  C   UNL     1       3.690   6.074  17.937  0.00  0.00    +0.000 C 
ATOM      4  O   UNL     1       2.515   6.206  17.605  0.00  0.00    +0.000 OA
ATOM      5  H   UNL     1       5.077   5.004  18.979  0.00  0.00    +0.000 HD
BRANCH   2  10
ATOM      6  C   UNL     1       2.128   4.976  20.555  0.00  0.00    +0.000 A 
ATOM      7  C   UNL     1       1.528   3.800  21.118  0.00  0.00    +0.000 A 
ATOM      8  C   UNL     1       2.213   2.651  20.785  0.00  0.00    +0.000 A 
ATOM      9  S   UNL     1       3.626   2.993  19.886  0.00  0.00    +0.000 S 
ATOM     10  C   UNL     1       3.246   4.651  19.817  0.00  0.00    +0.000 A 
BRANCH   6  12
ATOM     11  N   UNL     1       1.348   7.415  20.981  0.00  0.00    +0.000 NA
ATOM     12  C   UNL     1       1.666   6.309  20.831  0.00  0.00    +0.000 C 
ENDBRANCH   6  12
ENDBRANCH   2  10
ENDBRANCH   1   3
BRANCH   1  13
ATOM     13  O   UNL     1       6.104   6.452  17.745  0.00  0.00    +0.000 OA
BRANCH  13  14
ATOM     14  C   UNL     1       6.664   5.241  17.560  0.00  0.00    +0.000 C 
ATOM     15  O   UNL     1       7.003   4.436  18.405  0.00  0.00    +0.000 OA
BRANCH  14  16
ATOM     16  C   UNL     1       6.819   4.957  16.069  0.00  0.00    +0.000 C 
ATOM     17  N   UNL     1       7.605   5.717  15.359  0.00  0.00    +0.000 NA
ATOM     18  N   UNL     1       7.739   5.423  14.038  0.00  0.00    +0.000 N 
ATOM     19  C   UNL     1       6.976   4.542  13.312  0.00  0.00    +0.000 C 
ATOM     20  O   UNL     1       7.159   4.382  12.108  0.00  0.00    +0.000 OA
ATOM     21  C   UNL     1       5.852   3.869  14.049  0.00  0.00    +0.000 C 
ATOM     22  C   UNL     1       6.118   3.741  15.533  0.00  0.00    +0.000 C 
ATOM     23  H   UNL     1       8.438   5.950  13.522  0.00  0.00    +0.000 HD
ENDBRANCH  14  16
ENDBRANCH  13  14
ENDBRANCH   1  13
TORSDOF 6
ENDMDL
MODEL 9
REMARK VINA RESULT:      -6.8      1.250      1.276
REMARK  Name = 
REMARK  6 active torsions:
REMARK  status: ('A' for Active; 'I' for Inactive)
REMARK    1  A    between atoms: C_2  and  C_3
REMARK    2  A    between atoms: C_7  and  N_8
REMARK    3  A    between atoms: C_9  and  C_11
REMARK    4  A    between atoms: C_11  and  O_12
REMARK    5  A    between atoms: O_12  and  C_13
REMARK    6  A    between atoms: C_13  and  C_15
REMARK                            x       y       z     vdW  Elec       q    Type
REMARK                         _______ _______ _______ _____ _____    ______ ____
ROOT
ATOM      1  C   UNL     1       5.518   6.535  17.591  0.00  0.00    +0.000 C 
ENDROOT
BRANCH   1   3
ATOM      2  N   UNL     1       3.647   5.091  18.168  0.00  0.00    +0.000 N 
ATOM      3  C   UNL     1       4.833   5.642  18.628  0.00  0.00    +0.000 C 
ATOM      4  O   UNL     1       5.309   5.466  19.746  0.00  0.00    +0.000 OA
ATOM      5  H   UNL     1       3.182   5.614  17.433  0.00  0.00    +0.000 HD
BRANCH   2  10
ATOM      6  C   UNL     1       2.725   3.028  19.329  0.00  0.00    +0.000 A 
ATOM      7  C   UNL     1       1.741   2.825  20.354  0.00  0.00    +0.000 A 
ATOM      8  C   UNL     1       1.159   4.007  20.765  0.00  0.00    +0.000 A 
ATOM      9  S   UNL     1       1.720   5.340  19.853  0.00  0.00    +0.000 S 
ATOM     10  C   UNL     1       2.839   4.366  19.016  0.00  0.00    +0.000 A 
BRANCH   6  12
ATOM     11  N   UNL     1       3.931   1.029  18.197  0.00  0.00    +0.000 NA
ATOM     12  C   UNL     1       3.405   1.953  18.662  0.00  0.00    +0.000 C 
ENDBRANCH   6  12
ENDBRANCH   2  10
ENDBRANCH   1   3
BRANCH   1  13
ATOM     13  O   UNL     1       6.940   6.344  17.593  0.00  0.00    +0.000 OA
BRANCH  13  14
ATOM     14  C   UNL     1       7.391   5.103  17.323  0.00  0.00    +0.000 C 
ATOM     15  O   UNL     1       7.942   4.325  18.077  0.00  0.00    +0.000 OA
BRANCH  14  16
ATOM     16  C   UNL     1       7.094   4.743  15.870  0.00  0.00    +0.000 C 
ATOM     17  N   UNL     1       7.693   5.404  14.920  0.00  0.00    +0.000 NA
ATOM     18  N   UNL     1       7.425   5.042  13.636  0.00  0.00    +0.000 N 
ATOM     19  C   UNL     1       6.429   4.197  13.213  0.00  0.00    +0.000 C 
ATOM     20  O   UNL     1       6.249   3.970  12.020  0.00  0.00    +0.000 OA
ATOM     21  C   UNL     1       5.520   3.651  14.279  0.00  0.00    +0.000 C 
ATOM     22  C   UNL     1       6.189   3.567  15.633  0.00  0.00    +0.000 C 
ATOM     23  H   UNL     1       7.981   5.487  12.912  0.00  0.00    +0.000 HD
ENDBRANCH  14  16
ENDBRANCH  13  14
ENDBRANCH   1  13
TORSDOF 6
ENDMDL
