MODEL 1
REMARK VINA RESULT:      -6.9      0.000      0.000
REMARK  Name = 
REMARK  8 active torsions:
REMARK  status: ('A' for Active; 'I' for Inactive)
REMARK    1  A    between atoms: C_1  and  C_2
REMARK    2  A    between atoms: C_3  and  C_4
REMARK    3  A    between atoms: C_7  and  C_8
REMARK    4  A    between atoms: C_8  and  C_9
REMARK    5  A    between atoms: C_8  and  C_10
REMARK    6  A    between atoms: C_8  and  C_11
REMARK    7  A    between atoms: C_14  and  C_15
REMARK    8  A    between atoms: N_22  and  C_23
REMARK                            x       y       z     vdW  Elec       q    Type
REMARK                         _______ _______ _______ _____ _____    ______ ____
ROOT
ATOM      1  C   UNL     1       2.454  12.322  18.483  0.00  0.00    +0.000 C 
ATOM      2  C   UNL     1       1.191  11.849  19.117  0.00  0.00    +0.000 A 
ATOM      3  C   UNL     1       0.708  10.559  19.265  0.00  0.00    +0.000 A 
ATOM      4  N   UNL     1      -0.566  10.581  19.771  0.00  0.00    +0.000 NA
ATOM      5  C   UNL     1      -0.903  11.845  19.952  0.00  0.00    +0.000 A 
ATOM      6  N   UNL     1       0.168  12.685  19.577  0.00  0.00    +0.000 N 
ENDROOT
BRANCH   5   7
ATOM      7  C   UNL     1      -2.204  12.268  20.520  0.00  0.00    +0.000 A 
ATOM      8  C   UNL     1      -3.319  12.439  19.676  0.00  0.00    +0.000 A 
ATOM      9  C   UNL     1      -4.606  12.610  20.194  0.00  0.00    +0.000 A 
ATOM     10  C   UNL     1      -4.793  12.712  21.567  0.00  0.00    +0.000 A 
ATOM     11  C   UNL     1      -3.688  12.683  22.414  0.00  0.00    +0.000 A 
ATOM     12  C   UNL     1      -2.400  12.463  21.901  0.00  0.00    +0.000 A 
ATOM     13 CL   UNL     1      -1.115  12.401  23.059  0.00  0.00    +0.000 Cl
ENDBRANCH   5   7
BRANCH   6  14
ATOM     14  C   UNL     1       0.227  14.120  19.649  0.00  0.00    +0.000 A 
ATOM     15  C   UNL     1      -0.254  14.894  18.582  0.00  0.00    +0.000 A 
ATOM     16  C   UNL     1      -0.158  16.289  18.612  0.00  0.00    +0.000 A 
ATOM     17  C   UNL     1       0.459  16.918  19.686  0.00  0.00    +0.000 A 
ATOM     18 CL   UNL     1       0.627  18.629  19.694  0.00  0.00    +0.000 Cl
ATOM     19  C   UNL     1       0.953  16.165  20.748  0.00  0.00    +0.000 A 
ATOM     20  C   UNL     1       0.808  14.772  20.746  0.00  0.00    +0.000 A 
ENDBRANCH   6  14
BRANCH   3  21
ATOM     21  C   UNL     1       1.427   9.289  18.897  0.00  0.00    +0.000 A 
ATOM     22  N   UNL     1       1.903   9.042  17.692  0.00  0.00    +0.000 NA
ATOM     23  N   UNL     1       2.502   7.802  17.600  0.00  0.00    +0.000 NA
ATOM     24  C   UNL     1       2.463   7.136  18.734  0.00  0.00    +0.000 A 
ATOM     25  S   UNL     1       1.695   8.013  20.012  0.00  0.00    +0.000 S 
BRANCH  24  26
ATOM     26  C   UNL     1       3.005   5.726  18.935  0.00  0.00    +0.000 C 
ATOM     27  C   UNL     1       2.504   5.148  20.277  0.00  0.00    +0.000 C 
ATOM     28  C   UNL     1       2.528   4.787  17.813  0.00  0.00    +0.000 C 
ATOM     29  C   UNL     1       4.545   5.749  18.977  0.00  0.00    +0.000 C 
ENDBRANCH  24  26
ENDBRANCH   3  21
TORSDOF 4
ENDMDL
MODEL 2
REMARK VINA RESULT:      -6.9      0.163      1.218
REMARK  Name = 
REMARK  8 active torsions:
REMARK  status: ('A' for Active; 'I' for Inactive)
REMARK    1  A    between atoms: C_1  and  C_2
REMARK    2  A    between atoms: C_3  and  C_4
REMARK    3  A    between atoms: C_7  and  C_8
REMARK    4  A    between atoms: C_8  and  C_9
REMARK    5  A    between atoms: C_8  and  C_10
REMARK    6  A    between atoms: C_8  and  C_11
REMARK    7  A    between atoms: C_14  and  C_15
REMARK    8  A    between atoms: N_22  and  C_23
REMARK                            x       y       z     vdW  Elec       q    Type
REMARK                         _______ _______ _______ _____ _____    ______ ____
ROOT
ATOM      1  C   UNL     1       2.379  12.275  18.480  0.00  0.00    +0.000 C 
ATOM      2  C   UNL     1       1.120  11.823  19.136  0.00  0.00    +0.000 A 
ATOM      3  C   UNL     1       0.629  10.540  19.313  0.00  0.00    +0.000 A 
ATOM      4  N   UNL     1      -0.639  10.582  19.833  0.00  0.00    +0.000 NA
ATOM      5  C   UNL     1      -0.965  11.852  19.995  0.00  0.00    +0.000 A 
ATOM      6  N   UNL     1       0.109  12.676  19.594  0.00  0.00    +0.000 N 
ENDROOT
BRANCH   5   7
ATOM      7  C   UNL     1      -2.256  12.295  20.570  0.00  0.00    +0.000 A 
ATOM      8  C   UNL     1      -3.383  12.445  19.739  0.00  0.00    +0.000 A 
ATOM      9  C   UNL     1      -4.661  12.634  20.272  0.00  0.00    +0.000 A 
ATOM     10  C   UNL     1      -4.827  12.778  21.643  0.00  0.00    +0.000 A 
ATOM     11  C   UNL     1      -3.709  12.771  22.474  0.00  0.00    +0.000 A 
ATOM     12  C   UNL     1      -2.430  12.531  21.948  0.00  0.00    +0.000 A 
ATOM     13 CL   UNL     1      -1.127  12.500  23.088  0.00  0.00    +0.000 Cl
ENDBRANCH   5   7
BRANCH   6  14
ATOM     14  C   UNL     1       0.180  14.112  19.639  0.00  0.00    +0.000 A 
ATOM     15  C   UNL     1       0.694  14.751  20.777  0.00  0.00    +0.000 A 
ATOM     16  C   UNL     1       0.722  16.147  20.859  0.00  0.00    +0.000 A 
ATOM     17  C   UNL     1       0.197  16.913  19.826  0.00  0.00    +0.000 A 
ATOM     18 CL   UNL     1       0.181  18.628  19.955  0.00  0.00    +0.000 Cl
ATOM     19  C   UNL     1      -0.329  16.295  18.695  0.00  0.00    +0.000 A 
ATOM     20  C   UNL     1      -0.308  14.899  18.586  0.00  0.00    +0.000 A 
ENDBRANCH   6  14
BRANCH   3  21
ATOM     21  C   UNL     1       1.333   9.259  18.959  0.00  0.00    +0.000 A 
ATOM     22  N   UNL     1       1.778   8.978  17.750  0.00  0.00    +0.000 NA
ATOM     23  N   UNL     1       2.369   7.734  17.675  0.00  0.00    +0.000 NA
ATOM     24  C   UNL     1       2.356   7.098  18.825  0.00  0.00    +0.000 A 
ATOM     25  S   UNL     1       1.625   8.010  20.100  0.00  0.00    +0.000 S 
BRANCH  24  26
ATOM     26  C   UNL     1       2.898   5.690  19.049  0.00  0.00    +0.000 C 
ATOM     27  C   UNL     1       4.443   5.706  19.046  0.00  0.00    +0.000 C 
ATOM     28  C   UNL     1       2.438   5.132  20.407  0.00  0.00    +0.000 C 
ATOM     29  C   UNL     1       2.434   4.756  17.914  0.00  0.00    +0.000 C 
ENDBRANCH  24  26
ENDBRANCH   3  21
TORSDOF 4
ENDMDL
MODEL 3
REMARK VINA RESULT:      -6.9      1.107      1.478
REMARK  Name = 
REMARK  8 active torsions:
REMARK  status: ('A' for Active; 'I' for Inactive)
REMARK    1  A    between atoms: C_1  and  C_2
REMARK    2  A    between atoms: C_3  and  C_4
REMARK    3  A    between atoms: C_7  and  C_8
REMARK    4  A    between atoms: C_8  and  C_9
REMARK    5  A    between atoms: C_8  and  C_10
REMARK    6  A    between atoms: C_8  and  C_11
REMARK    7  A    between atoms: C_14  and  C_15
REMARK    8  A    between atoms: N_22  and  C_23
REMARK                            x       y       z     vdW  Elec       q    Type
REMARK                         _______ _______ _______ _____ _____    ______ ____
ROOT
ATOM      1  C   UNL     1       2.396  12.427  18.182  0.00  0.00    +0.000 C 
ATOM      2  C   UNL     1       1.331  11.860  19.057  0.00  0.00    +0.000 A 
ATOM      3  C   UNL     1       0.966  10.539  19.260  0.00  0.00    +0.000 A 
ATOM      4  N   UNL     1      -0.166  10.470  20.031  0.00  0.00    +0.000 NA
ATOM      5  C   UNL     1      -0.527  11.706  20.326  0.00  0.00    +0.000 A 
ATOM      6  N   UNL     1       0.388  12.620  19.759  0.00  0.00    +0.000 N 
ENDROOT
BRANCH   5   7
ATOM      7  C   UNL     1      -1.694  12.032  21.177  0.00  0.00    +0.000 A 
ATOM      8  C   UNL     1      -1.548  12.103  22.576  0.00  0.00    +0.000 A 
ATOM      9  C   UNL     1      -2.558  12.629  23.388  0.00  0.00    +0.000 A 
ATOM     10  C   UNL     1      -3.773  13.003  22.830  0.00  0.00    +0.000 A 
ATOM     11  C   UNL     1      -3.990  12.814  21.467  0.00  0.00    +0.000 A 
ATOM     12  C   UNL     1      -2.961  12.332  20.641  0.00  0.00    +0.000 A 
ATOM     13 CL   UNL     1      -3.338  12.185  18.957  0.00  0.00    +0.000 Cl
ENDBRANCH   5   7
BRANCH   6  14
ATOM     14  C   UNL     1       0.379  14.054  19.867  0.00  0.00    +0.000 A 
ATOM     15  C   UNL     1      -0.307  14.823  18.916  0.00  0.00    +0.000 A 
ATOM     16  C   UNL     1      -0.282  16.221  18.976  0.00  0.00    +0.000 A 
ATOM     17  C   UNL     1       0.463  16.859  19.960  0.00  0.00    +0.000 A 
ATOM     18 CL   UNL     1       0.537  18.576  19.998  0.00  0.00    +0.000 Cl
ATOM     19  C   UNL     1       1.160  16.110  20.905  0.00  0.00    +0.000 A 
ATOM     20  C   UNL     1       1.092  14.712  20.880  0.00  0.00    +0.000 A 
ENDBRANCH   6  14
BRANCH   3  21
ATOM     21  C   UNL     1       1.657   9.326  18.699  0.00  0.00    +0.000 A 
ATOM     22  N   UNL     1       2.105   9.247  17.462  0.00  0.00    +0.000 NA
ATOM     23  N   UNL     1       2.683   8.026  17.181  0.00  0.00    +0.000 NA
ATOM     24  C   UNL     1       2.655   7.206  18.209  0.00  0.00    +0.000 A 
ATOM     25  S   UNL     1       1.927   7.901  19.615  0.00  0.00    +0.000 S 
BRANCH  24  26
ATOM     26  C   UNL     1       3.179   5.774  18.195  0.00  0.00    +0.000 C 
ATOM     27  C   UNL     1       3.792   5.417  19.567  0.00  0.00    +0.000 C 
ATOM     28  C   UNL     1       2.043   4.775  17.914  0.00  0.00    +0.000 C 
ATOM     29  C   UNL     1       4.284   5.623  17.132  0.00  0.00    +0.000 C 
ENDBRANCH  24  26
ENDBRANCH   3  21
TORSDOF 4
ENDMDL
MODEL 4
REMARK VINA RESULT:      -6.7      3.107      7.461
REMARK  Name = 
REMARK  8 active torsions:
REMARK  status: ('A' for Active; 'I' for Inactive)
REMARK    1  A    between atoms: C_1  and  C_2
REMARK    2  A    between atoms: C_3  and  C_4
REMARK    3  A    between atoms: C_7  and  C_8
REMARK    4  A    between atoms: C_8  and  C_9
REMARK    5  A    between atoms: C_8  and  C_10
REMARK    6  A    between atoms: C_8  and  C_11
REMARK    7  A    between atoms: C_14  and  C_15
REMARK    8  A    between atoms: N_22  and  C_23
REMARK                            x       y       z     vdW  Elec       q    Type
REMARK                         _______ _______ _______ _____ _____    ______ ____
ROOT
ATOM      1  C   UNL     1      -0.993  14.668  21.479  0.00  0.00    +0.000 C 
ATOM      2  C   UNL     1      -1.043  13.237  21.063  0.00  0.00    +0.000 A 
ATOM      3  C   UNL     1      -2.010  12.278  21.316  0.00  0.00    +0.000 A 
ATOM      4  N   UNL     1      -1.589  11.049  20.879  0.00  0.00    +0.000 NA
ATOM      5  C   UNL     1      -0.387  11.200  20.354  0.00  0.00    +0.000 A 
ATOM      6  N   UNL     1      -0.001  12.557  20.423  0.00  0.00    +0.000 N 
ENDROOT
BRANCH   5   7
ATOM      7  C   UNL     1       0.381  10.090  19.743  0.00  0.00    +0.000 A 
ATOM      8  C   UNL     1       0.538  10.028  18.345  0.00  0.00    +0.000 A 
ATOM      9  C   UNL     1       1.439   9.138  17.752  0.00  0.00    +0.000 A 
ATOM     10  C   UNL     1       2.127   8.222  18.537  0.00  0.00    +0.000 A 
ATOM     11  C   UNL     1       1.885   8.173  19.908  0.00  0.00    +0.000 A 
ATOM     12  C   UNL     1       1.019   9.098  20.513  0.00  0.00    +0.000 A 
ATOM     13 CL   UNL     1       0.836   8.965  22.230  0.00  0.00    +0.000 Cl
ENDBRANCH   5   7
BRANCH   6  14
ATOM     14  C   UNL     1       1.215  13.151  19.937  0.00  0.00    +0.000 A 
ATOM     15  C   UNL     1       2.267  13.418  20.825  0.00  0.00    +0.000 A 
ATOM     16  C   UNL     1       3.436  14.043  20.379  0.00  0.00    +0.000 A 
ATOM     17  C   UNL     1       3.545  14.446  19.054  0.00  0.00    +0.000 A 
ATOM     18 CL   UNL     1       4.960  15.264  18.521  0.00  0.00    +0.000 Cl
ATOM     19  C   UNL     1       2.505  14.198  18.161  0.00  0.00    +0.000 A 
ATOM     20  C   UNL     1       1.356  13.524  18.593  0.00  0.00    +0.000 A 
ENDBRANCH   6  14
BRANCH   3  21
ATOM     21  C   UNL     1      -3.329  12.501  22.006  0.00  0.00    +0.000 A 
ATOM     22  N   UNL     1      -3.538  12.246  23.282  0.00  0.00    +0.000 NA
ATOM     23  N   UNL     1      -4.834  12.515  23.673  0.00  0.00    +0.000 NA
ATOM     24  C   UNL     1      -5.578  12.963  22.686  0.00  0.00    +0.000 A 
ATOM     25  S   UNL     1      -4.714  13.106  21.194  0.00  0.00    +0.000 S 
BRANCH  24  26
ATOM     26  C   UNL     1      -7.059  13.308  22.798  0.00  0.00    +0.000 C 
ATOM     27  C   UNL     1      -7.537  14.026  21.517  0.00  0.00    +0.000 C 
ATOM     28  C   UNL     1      -7.909  12.037  22.968  0.00  0.00    +0.000 C 
ATOM     29  C   UNL     1      -7.294  14.258  23.987  0.00  0.00    +0.000 C 
ENDBRANCH  24  26
ENDBRANCH   3  21
TORSDOF 4
ENDMDL
MODEL 5
REMARK VINA RESULT:      -6.6      1.078      1.896
REMARK  Name = 
REMARK  8 active torsions:
REMARK  status: ('A' for Active; 'I' for Inactive)
REMARK    1  A    between atoms: C_1  and  C_2
REMARK    2  A    between atoms: C_3  and  C_4
REMARK    3  A    between atoms: C_7  and  C_8
REMARK    4  A    between atoms: C_8  and  C_9
REMARK    5  A    between atoms: C_8  and  C_10
REMARK    6  A    between atoms: C_8  and  C_11
REMARK    7  A    between atoms: C_14  and  C_15
REMARK    8  A    between atoms: N_22  and  C_23
REMARK                            x       y       z     vdW  Elec       q    Type
REMARK                         _______ _______ _______ _____ _____    ______ ____
ROOT
ATOM      1  C   UNL     1       2.257  12.128  18.436  0.00  0.00    +0.000 C 
ATOM      2  C   UNL     1       1.184  11.751  19.398  0.00  0.00    +0.000 A 
ATOM      3  C   UNL     1       0.759  10.495  19.799  0.00  0.00    +0.000 A 
ATOM      4  N   UNL     1      -0.359  10.597  20.586  0.00  0.00    +0.000 NA
ATOM      5  C   UNL     1      -0.653  11.880  20.700  0.00  0.00    +0.000 A 
ATOM      6  N   UNL     1       0.293  12.653  19.991  0.00  0.00    +0.000 N 
ENDROOT
BRANCH   5   7
ATOM      7  C   UNL     1      -1.786  12.388  21.508  0.00  0.00    +0.000 A 
ATOM      8  C   UNL     1      -1.609  12.654  22.879  0.00  0.00    +0.000 A 
ATOM      9  C   UNL     1      -2.575  13.344  23.618  0.00  0.00    +0.000 A 
ATOM     10  C   UNL     1      -3.781  13.695  23.025  0.00  0.00    +0.000 A 
ATOM     11  C   UNL     1      -4.034  13.321  21.708  0.00  0.00    +0.000 A 
ATOM     12  C   UNL     1      -3.047  12.671  20.949  0.00  0.00    +0.000 A 
ATOM     13 CL   UNL     1      -3.464  12.299  19.310  0.00  0.00    +0.000 Cl
ENDBRANCH   5   7
BRANCH   6  14
ATOM     14  C   UNL     1       0.356  14.086  19.887  0.00  0.00    +0.000 A 
ATOM     15  C   UNL     1       1.005  14.832  20.882  0.00  0.00    +0.000 A 
ATOM     16  C   UNL     1       1.032  16.229  20.824  0.00  0.00    +0.000 A 
ATOM     17  C   UNL     1       0.372  16.892  19.796  0.00  0.00    +0.000 A 
ATOM     18 CL   UNL     1       0.358  18.611  19.757  0.00  0.00    +0.000 Cl
ATOM     19  C   UNL     1      -0.287  16.168  18.806  0.00  0.00    +0.000 A 
ATOM     20  C   UNL     1      -0.268  14.768  18.833  0.00  0.00    +0.000 A 
ENDBRANCH   6  14
BRANCH   3  21
ATOM     21  C   UNL     1       1.380   9.179  19.415  0.00  0.00    +0.000 A 
ATOM     22  N   UNL     1       1.852   8.917  18.213  0.00  0.00    +0.000 NA
ATOM     23  N   UNL     1       2.351   7.635  18.104  0.00  0.00    +0.000 NA
ATOM     24  C   UNL     1       2.242   6.953  19.223  0.00  0.00    +0.000 A 
ATOM     25  S   UNL     1       1.528   7.865  20.509  0.00  0.00    +0.000 S 
BRANCH  24  26
ATOM     26  C   UNL     1       2.667   5.500  19.403  0.00  0.00    +0.000 C 
ATOM     27  C   UNL     1       4.208   5.391  19.403  0.00  0.00    +0.000 C 
ATOM     28  C   UNL     1       2.157   4.939  20.742  0.00  0.00    +0.000 C 
ATOM     29  C   UNL     1       2.133   4.643  18.240  0.00  0.00    +0.000 C 
ENDBRANCH  24  26
ENDBRANCH   3  21
TORSDOF 4
ENDMDL
MODEL 6
REMARK VINA RESULT:      -6.6      1.596      3.927
REMARK  Name = 
REMARK  8 active torsions:
REMARK  status: ('A' for Active; 'I' for Inactive)
REMARK    1  A    between atoms: C_1  and  C_2
REMARK    2  A    between atoms: C_3  and  C_4
REMARK    3  A    between atoms: C_7  and  C_8
REMARK    4  A    between atoms: C_8  and  C_9
REMARK    5  A    between atoms: C_8  and  C_10
REMARK    6  A    between atoms: C_8  and  C_11
REMARK    7  A    between atoms: C_14  and  C_15
REMARK    8  A    between atoms: N_22  and  C_23
REMARK                            x       y       z     vdW  Elec       q    Type
REMARK                         _______ _______ _______ _____ _____    ______ ____
ROOT
ATOM      1  C   UNL     1      -0.486   9.457  21.080  0.00  0.00    +0.000 C 
ATOM      2  C   UNL     1       0.095  10.567  20.273  0.00  0.00    +0.000 A 
ATOM      3  C   UNL     1       1.072  10.528  19.292  0.00  0.00    +0.000 A 
ATOM      4  N   UNL     1       1.419  11.799  18.912  0.00  0.00    +0.000 NA
ATOM      5  C   UNL     1       0.688  12.642  19.619  0.00  0.00    +0.000 A 
ATOM      6  N   UNL     1      -0.176  11.926  20.475  0.00  0.00    +0.000 N 
ENDROOT
BRANCH   5   7
ATOM      7  C   UNL     1       0.759  14.113  19.460  0.00  0.00    +0.000 A 
ATOM      8  C   UNL     1      -0.211  14.787  18.694  0.00  0.00    +0.000 A 
ATOM      9  C   UNL     1      -0.313  16.182  18.710  0.00  0.00    +0.000 A 
ATOM     10  C   UNL     1       0.617  16.937  19.413  0.00  0.00    +0.000 A 
ATOM     11  C   UNL     1       1.668  16.297  20.066  0.00  0.00    +0.000 A 
ATOM     12  C   UNL     1       1.744  14.896  20.093  0.00  0.00    +0.000 A 
ATOM     13 CL   UNL     1       3.071  14.218  20.977  0.00  0.00    +0.000 Cl
ENDBRANCH   5   7
BRANCH   6  14
ATOM     14  C   UNL     1      -1.155  12.459  21.383  0.00  0.00    +0.000 A 
ATOM     15  C   UNL     1      -2.500  12.544  20.992  0.00  0.00    +0.000 A 
ATOM     16  C   UNL     1      -3.457  13.108  21.842  0.00  0.00    +0.000 A 
ATOM     17  C   UNL     1      -3.070  13.631  23.070  0.00  0.00    +0.000 A 
ATOM     18 CL   UNL     1      -4.238  14.375  24.089  0.00  0.00    +0.000 Cl
ATOM     19  C   UNL     1      -1.738  13.566  23.469  0.00  0.00    +0.000 A 
ATOM     20  C   UNL     1      -0.788  12.953  22.643  0.00  0.00    +0.000 A 
ENDBRANCH   6  14
BRANCH   3  21
ATOM     21  C   UNL     1       1.720   9.293  18.727  0.00  0.00    +0.000 A 
ATOM     22  N   UNL     1       2.135   9.190  17.480  0.00  0.00    +0.000 NA
ATOM     23  N   UNL     1       2.675   7.952  17.199  0.00  0.00    +0.000 NA
ATOM     24  C   UNL     1       2.654   7.144  18.236  0.00  0.00    +0.000 A 
ATOM     25  S   UNL     1       1.978   7.871  19.652  0.00  0.00    +0.000 S 
BRANCH  24  26
ATOM     26  C   UNL     1       3.143   5.699  18.225  0.00  0.00    +0.000 C 
ATOM     27  C   UNL     1       1.979   4.745  17.874  0.00  0.00    +0.000 C 
ATOM     28  C   UNL     1       4.246   5.499  17.172  0.00  0.00    +0.000 C 
ATOM     29  C   UNL     1       3.671   5.307  19.618  0.00  0.00    +0.000 C 
ENDBRANCH  24  26
ENDBRANCH   3  21
TORSDOF 4
ENDMDL
MODEL 7
REMARK VINA RESULT:      -6.6      1.569      4.053
REMARK  Name = 
REMARK  8 active torsions:
REMARK  status: ('A' for Active; 'I' for Inactive)
REMARK    1  A    between atoms: C_1  and  C_2
REMARK    2  A    between atoms: C_3  and  C_4
REMARK    3  A    between atoms: C_7  and  C_8
REMARK    4  A    between atoms: C_8  and  C_9
REMARK    5  A    between atoms: C_8  and  C_10
REMARK    6  A    between atoms: C_8  and  C_11
REMARK    7  A    between atoms: C_14  and  C_15
REMARK    8  A    between atoms: N_22  and  C_23
REMARK                            x       y       z     vdW  Elec       q    Type
REMARK                         _______ _______ _______ _____ _____    ______ ____
ROOT
ATOM      1  C   UNL     1      -0.525   9.470  21.001  0.00  0.00    +0.000 C 
ATOM      2  C   UNL     1       0.081  10.579  20.212  0.00  0.00    +0.000 A 
ATOM      3  C   UNL     1       1.080  10.537  19.253  0.00  0.00    +0.000 A 
ATOM      4  N   UNL     1       1.444  11.807  18.886  0.00  0.00    +0.000 NA
ATOM      5  C   UNL     1       0.703  12.653  19.579  0.00  0.00    +0.000 A 
ATOM      6  N   UNL     1      -0.185  11.938  20.414  0.00  0.00    +0.000 N 
ENDROOT
BRANCH   5   7
ATOM      7  C   UNL     1       0.788  14.123  19.429  0.00  0.00    +0.000 A 
ATOM      8  C   UNL     1      -0.162  14.808  18.646  0.00  0.00    +0.000 A 
ATOM      9  C   UNL     1      -0.254  16.203  18.666  0.00  0.00    +0.000 A 
ATOM     10  C   UNL     1       0.667  16.948  19.391  0.00  0.00    +0.000 A 
ATOM     11  C   UNL     1       1.700  16.299  20.063  0.00  0.00    +0.000 A 
ATOM     12  C   UNL     1       1.766  14.896  20.085  0.00  0.00    +0.000 A 
ATOM     13 CL   UNL     1       3.069  14.206  20.992  0.00  0.00    +0.000 Cl
ENDBRANCH   5   7
BRANCH   6  14
ATOM     14  C   UNL     1      -1.180  12.475  21.302  0.00  0.00    +0.000 A 
ATOM     15  C   UNL     1      -0.821  12.860  22.603  0.00  0.00    +0.000 A 
ATOM     16  C   UNL     1      -1.786  13.336  23.498  0.00  0.00    +0.000 A 
ATOM     17  C   UNL     1      -3.121  13.387  23.115  0.00  0.00    +0.000 A 
ATOM     18 CL   UNL     1      -4.312  13.919  24.235  0.00  0.00    +0.000 Cl
ATOM     19  C   UNL     1      -3.496  12.998  21.832  0.00  0.00    +0.000 A 
ATOM     20  C   UNL     1      -2.525  12.573  20.917  0.00  0.00    +0.000 A 
ENDBRANCH   6  14
BRANCH   3  21
ATOM     21  C   UNL     1       1.731   9.300  18.697  0.00  0.00    +0.000 A 
ATOM     22  N   UNL     1       2.159   9.194  17.455  0.00  0.00    +0.000 NA
ATOM     23  N   UNL     1       2.700   7.954  17.181  0.00  0.00    +0.000 NA
ATOM     24  C   UNL     1       2.667   7.148  18.219  0.00  0.00    +0.000 A 
ATOM     25  S   UNL     1       1.978   7.879  19.628  0.00  0.00    +0.000 S 
BRANCH  24  26
ATOM     26  C   UNL     1       3.154   5.703  18.216  0.00  0.00    +0.000 C 
ATOM     27  C   UNL     1       3.711   5.325  19.606  0.00  0.00    +0.000 C 
ATOM     28  C   UNL     1       2.002   4.735  17.894  0.00  0.00    +0.000 C 
ATOM     29  C   UNL     1       4.288   5.527  17.189  0.00  0.00    +0.000 C 
ENDBRANCH  24  26
ENDBRANCH   3  21
TORSDOF 4
ENDMDL
MODEL 8
REMARK VINA RESULT:      -6.6      1.054      1.118
REMARK  Name = 
REMARK  8 active torsions:
REMARK  status: ('A' for Active; 'I' for Inactive)
REMARK    1  A    between atoms: C_1  and  C_2
REMARK    2  A    between atoms: C_3  and  C_4
REMARK    3  A    between atoms: C_7  and  C_8
REMARK    4  A    between atoms: C_8  and  C_9
REMARK    5  A    between atoms: C_8  and  C_10
REMARK    6  A    between atoms: C_8  and  C_11
REMARK    7  A    between atoms: C_14  and  C_15
REMARK    8  A    between atoms: N_22  and  C_23
REMARK                            x       y       z     vdW  Elec       q    Type
REMARK                         _______ _______ _______ _____ _____    ______ ____
ROOT
ATOM      1  C   UNL     1       2.295  12.179  18.933  0.00  0.00    +0.000 C 
ATOM      2  C   UNL     1       1.009  11.829  19.600  0.00  0.00    +0.000 A 
ATOM      3  C   UNL     1       0.493  10.584  19.923  0.00  0.00    +0.000 A 
ATOM      4  N   UNL     1      -0.790  10.706  20.391  0.00  0.00    +0.000 NA
ATOM      5  C   UNL     1      -1.101  11.990  20.379  0.00  0.00    +0.000 A 
ATOM      6  N   UNL     1      -0.003  12.744  19.911  0.00  0.00    +0.000 N 
ENDROOT
BRANCH   5   7
ATOM      7  C   UNL     1      -2.402  12.517  20.849  0.00  0.00    +0.000 A 
ATOM      8  C   UNL     1      -3.511  12.536  19.981  0.00  0.00    +0.000 A 
ATOM      9  C   UNL     1      -4.800  12.806  20.450  0.00  0.00    +0.000 A 
ATOM     10  C   UNL     1      -4.994  13.162  21.778  0.00  0.00    +0.000 A 
ATOM     11  C   UNL     1      -3.894  13.284  22.624  0.00  0.00    +0.000 A 
ATOM     12  C   UNL     1      -2.605  12.965  22.169  0.00  0.00    +0.000 A 
ATOM     13 CL   UNL     1      -1.327  13.112  23.328  0.00  0.00    +0.000 Cl
ENDBRANCH   5   7
BRANCH   6  14
ATOM     14  C   UNL     1       0.088  14.173  19.774  0.00  0.00    +0.000 A 
ATOM     15  C   UNL     1      -0.371  14.794  18.604  0.00  0.00    +0.000 A 
ATOM     16  C   UNL     1      -0.243  16.177  18.432  0.00  0.00    +0.000 A 
ATOM     17  C   UNL     1       0.384  16.941  19.408  0.00  0.00    +0.000 A 
ATOM     18 CL   UNL     1       0.591  18.631  19.170  0.00  0.00    +0.000 Cl
ATOM     19  C   UNL     1       0.857  16.339  20.571  0.00  0.00    +0.000 A 
ATOM     20  C   UNL     1       0.681  14.964  20.769  0.00  0.00    +0.000 A 
ENDBRANCH   6  14
BRANCH   3  21
ATOM     21  C   UNL     1       1.189   9.260  19.759  0.00  0.00    +0.000 A 
ATOM     22  N   UNL     1       1.333   8.384  20.734  0.00  0.00    +0.000 NA
ATOM     23  N   UNL     1       2.024   7.257  20.339  0.00  0.00    +0.000 NA
ATOM     24  C   UNL     1       2.390   7.304  19.078  0.00  0.00    +0.000 A 
ATOM     25  S   UNL     1       1.884   8.750  18.275  0.00  0.00    +0.000 S 
BRANCH  24  26
ATOM     26  C   UNL     1       3.201   6.227  18.364  0.00  0.00    +0.000 C 
ATOM     27  C   UNL     1       4.160   5.536  19.358  0.00  0.00    +0.000 C 
ATOM     28  C   UNL     1       2.279   5.146  17.773  0.00  0.00    +0.000 C 
ATOM     29  C   UNL     1       4.053   6.857  17.246  0.00  0.00    +0.000 C 
ENDBRANCH  24  26
ENDBRANCH   3  21
TORSDOF 4
ENDMDL
MODEL 9
REMARK VINA RESULT:      -6.5      2.128      2.595
REMARK  Name = 
REMARK  8 active torsions:
REMARK  status: ('A' for Active; 'I' for Inactive)
REMARK    1  A    between atoms: C_1  and  C_2
REMARK    2  A    between atoms: C_3  and  C_4
REMARK    3  A    between atoms: C_7  and  C_8
REMARK    4  A    between atoms: C_8  and  C_9
REMARK    5  A    between atoms: C_8  and  C_10
REMARK    6  A    between atoms: C_8  and  C_11
REMARK    7  A    between atoms: C_14  and  C_15
REMARK    8  A    between atoms: N_22  and  C_23
REMARK                            x       y       z     vdW  Elec       q    Type
REMARK                         _______ _______ _______ _____ _____    ______ ____
ROOT
ATOM      1  C   UNL     1       1.855  12.050  19.819  0.00  0.00    +0.000 C 
ATOM      2  C   UNL     1       0.525  11.462  19.494  0.00  0.00    +0.000 A 
ATOM      3  C   UNL     1       0.190  10.151  19.193  0.00  0.00    +0.000 A 
ATOM      4  N   UNL     1      -1.123  10.071  18.807  0.00  0.00    +0.000 NA
ATOM      5  C   UNL     1      -1.632  11.289  18.860  0.00  0.00    +0.000 A 
ATOM      6  N   UNL     1      -0.649  12.200  19.304  0.00  0.00    +0.000 N 
ENDROOT
BRANCH   5   7
ATOM      7  C   UNL     1      -3.046  11.595  18.544  0.00  0.00    +0.000 A 
ATOM      8  C   UNL     1      -3.901  12.090  19.548  0.00  0.00    +0.000 A 
ATOM      9  C   UNL     1      -5.164  12.605  19.241  0.00  0.00    +0.000 A 
ATOM     10  C   UNL     1      -5.640  12.544  17.937  0.00  0.00    +0.000 A 
ATOM     11  C   UNL     1      -4.867  11.934  16.952  0.00  0.00    +0.000 A 
ATOM     12  C   UNL     1      -3.579  11.461  17.247  0.00  0.00    +0.000 A 
ATOM     13 CL   UNL     1      -2.699  10.765  15.928  0.00  0.00    +0.000 Cl
ENDBRANCH   5   7
BRANCH   6  14
ATOM     14  C   UNL     1      -0.797  13.612  19.531  0.00  0.00    +0.000 A 
ATOM     15  C   UNL     1      -0.333  14.526  18.573  0.00  0.00    +0.000 A 
ATOM     16  C   UNL     1      -0.421  15.904  18.800  0.00  0.00    +0.000 A 
ATOM     17  C   UNL     1      -0.933  16.377  20.002  0.00  0.00    +0.000 A 
ATOM     18 CL   UNL     1      -0.988  18.069  20.301  0.00  0.00    +0.000 Cl
ATOM     19  C   UNL     1      -1.387  15.483  20.968  0.00  0.00    +0.000 A 
ATOM     20  C   UNL     1      -1.350  14.105  20.721  0.00  0.00    +0.000 A 
ENDBRANCH   6  14
BRANCH   3  21
ATOM     21  C   UNL     1       1.113   8.964  19.227  0.00  0.00    +0.000 A 
ATOM     22  N   UNL     1       1.381   8.277  20.320  0.00  0.00    +0.000 NA
ATOM     23  N   UNL     1       2.271   7.247  20.098  0.00  0.00    +0.000 NA
ATOM     24  C   UNL     1       2.662   7.178  18.844  0.00  0.00    +0.000 A 
ATOM     25  S   UNL     1       1.932   8.380  17.837  0.00  0.00    +0.000 S 
BRANCH  24  26
ATOM     26  C   UNL     1       3.672   6.174  18.300  0.00  0.00    +0.000 C 
ATOM     27  C   UNL     1       2.938   4.963  17.681  0.00  0.00    +0.000 C 
ATOM     28  C   UNL     1       4.541   6.807  17.200  0.00  0.00    +0.000 C 
ATOM     29  C   UNL     1       4.567   5.651  19.439  0.00  0.00    +0.000 C 
ENDBRANCH  24  26
ENDBRANCH   3  21
TORSDOF 4
ENDMDL
