MODEL 1
REMARK VINA RESULT:      -8.2      0.000      0.000
REMARK  Name = 
REMARK  5 active torsions:
REMARK  status: ('A' for Active; 'I' for Inactive)
REMARK    1  A    between atoms: C_1  and  C_2
REMARK    2  A    between atoms: C_7  and  C_8
REMARK    3  A    between atoms: N_10  and  C_11
REMARK    4  A    between atoms: N_13  and  C_14
REMARK    5  A    between atoms: N_26  and  C_27
REMARK                            x       y       z     vdW  Elec       q    Type
REMARK                         _______ _______ _______ _____ _____    ______ ____
ROOT
ATOM      1  C   UNL     1       6.781   6.306  17.310  0.00  0.00    +0.000 C 
ATOM      2  O   UNL     1       7.591   5.993  16.430  0.00  0.00    +0.000 OA
ATOM      3  N   UNL     1       6.906   7.494  17.994  0.00  0.00    +0.000 N 
ATOM      4  H   UNL     1       6.204   7.743  18.687  0.00  0.00    +0.000 HD
ENDROOT
BRANCH   1  11
ATOM      5  C   UNL     1       1.616   1.949  18.163  0.00  0.00    +0.000 C 
ATOM      6  C   UNL     1       2.506   3.004  18.702  0.00  0.00    +0.000 A 
ATOM      7  C   UNL     1       3.553   3.715  18.160  0.00  0.00    +0.000 A 
ATOM      8  C   UNL     1       4.055   3.587  16.872  0.00  0.00    +0.000 A 
ATOM      9  C   UNL     1       5.129   4.475  16.643  0.00  0.00    +0.000 A 
ATOM     10  F   UNL     1       5.688   4.427  15.421  0.00  0.00    +0.000 F 
ATOM     11  C   UNL     1       5.644   5.391  17.614  0.00  0.00    +0.000 A 
ATOM     12  C   UNL     1       5.101   5.486  18.925  0.00  0.00    +0.000 A 
ATOM     13  C   UNL     1       4.028   4.616  19.181  0.00  0.00    +0.000 A 
ATOM     14  N   UNL     1       3.297   4.450  20.292  0.00  0.00    +0.000 NA
ATOM     15  N   UNL     1       2.400   3.489  19.985  0.00  0.00    +0.000 N 
ATOM     16  C   UNL     1       1.443   3.077  20.990  0.00  0.00    +0.000 C 
ENDBRANCH   1  11
BRANCH   3  17
ATOM     17  C   UNL     1       8.059   8.389  17.746  0.00  0.00    +0.000 C 
ATOM     18  C   UNL     1       7.787   9.903  17.576  0.00  0.00    +0.000 C 
ATOM     19  N   UNL     1       8.941  10.100  18.401  0.00  0.00    +0.000 N 
ATOM     20  C   UNL     1       8.837   8.811  19.001  0.00  0.00    +0.000 C 
BRANCH  19  21
ATOM     21  C   UNL     1       9.828  11.155  18.656  0.00  0.00    +0.000 A 
ATOM     22  C   UNL     1      10.539  11.689  17.567  0.00  0.00    +0.000 A 
ATOM     23  C   UNL     1      11.436  12.722  17.771  0.00  0.00    +0.000 A 
ATOM     24 CL   UNL     1      12.333  13.377  16.470  0.00  0.00    +0.000 Cl
ATOM     25  N   UNL     1      11.682  13.277  18.972  0.00  0.00    +0.000 NA
ATOM     26  C   UNL     1      10.994  12.763  20.014  0.00  0.00    +0.000 A 
ATOM     27  C   UNL     1      10.064  11.722  19.916  0.00  0.00    +0.000 A 
ATOM     28 CL   UNL     1       9.321  11.177  21.372  0.00  0.00    +0.000 Cl
ENDBRANCH  19  21
ENDBRANCH   3  17
TORSDOF 3
ENDMDL
MODEL 2
REMARK VINA RESULT:      -7.9      7.991     10.074
REMARK  Name = 
REMARK  5 active torsions:
REMARK  status: ('A' for Active; 'I' for Inactive)
REMARK    1  A    between atoms: C_1  and  C_2
REMARK    2  A    between atoms: C_7  and  C_8
REMARK    3  A    between atoms: N_10  and  C_11
REMARK    4  A    between atoms: N_13  and  C_14
REMARK    5  A    between atoms: N_26  and  C_27
REMARK                            x       y       z     vdW  Elec       q    Type
REMARK                         _______ _______ _______ _____ _____    ______ ____
ROOT
ATOM      1  C   UNL     1       0.828   9.840  21.254  0.00  0.00    +0.000 C 
ATOM      2  O   UNL     1       1.732   9.663  22.077  0.00  0.00    +0.000 OA
ATOM      3  N   UNL     1       0.896   9.277  19.999  0.00  0.00    +0.000 N 
ATOM      4  H   UNL     1       0.120   9.409  19.354  0.00  0.00    +0.000 HD
ENDROOT
BRANCH   1  11
ATOM      5  C   UNL     1      -4.573  13.322  23.512  0.00  0.00    +0.000 C 
ATOM      6  C   UNL     1      -3.630  12.984  22.419  0.00  0.00    +0.000 A 
ATOM      7  C   UNL     1      -2.542  12.143  22.346  0.00  0.00    +0.000 A 
ATOM      8  C   UNL     1      -2.040  11.356  23.374  0.00  0.00    +0.000 A 
ATOM      9  C   UNL     1      -0.917  10.610  22.954  0.00  0.00    +0.000 A 
ATOM     10  F   UNL     1      -0.353   9.814  23.880  0.00  0.00    +0.000 F 
ATOM     11  C   UNL     1      -0.360  10.656  21.637  0.00  0.00    +0.000 A 
ATOM     12  C   UNL     1      -0.906  11.480  20.614  0.00  0.00    +0.000 A 
ATOM     13  C   UNL     1      -2.026  12.233  21.002  0.00  0.00    +0.000 A 
ATOM     14  N   UNL     1      -2.772  13.096  20.299  0.00  0.00    +0.000 NA
ATOM     15  N   UNL     1      -3.718  13.529  21.159  0.00  0.00    +0.000 N 
ATOM     16  C   UNL     1      -4.703  14.484  20.696  0.00  0.00    +0.000 C 
ENDBRANCH   1  11
BRANCH   3  17
ATOM     17  C   UNL     1       2.092   8.511  19.581  0.00  0.00    +0.000 C 
ATOM     18  C   UNL     1       2.149   7.001  19.919  0.00  0.00    +0.000 C 
ATOM     19  N   UNL     1       2.663   6.827  18.594  0.00  0.00    +0.000 N 
ATOM     20  C   UNL     1       2.084   8.041  18.119  0.00  0.00    +0.000 C 
BRANCH  19  21
ATOM     21  C   UNL     1       3.380   5.832  17.916  0.00  0.00    +0.000 A 
ATOM     22  C   UNL     1       4.672   6.149  17.465  0.00  0.00    +0.000 A 
ATOM     23  C   UNL     1       5.413   5.204  16.778  0.00  0.00    +0.000 A 
ATOM     24 CL   UNL     1       6.980   5.569  16.196  0.00  0.00    +0.000 Cl
ATOM     25  N   UNL     1       4.977   3.961  16.506  0.00  0.00    +0.000 NA
ATOM     26  C   UNL     1       3.736   3.659  16.944  0.00  0.00    +0.000 A 
ATOM     27  C   UNL     1       2.907   4.539  17.649  0.00  0.00    +0.000 A 
ATOM     28 CL   UNL     1       1.337   3.979  18.084  0.00  0.00    +0.000 Cl
ENDBRANCH  19  21
ENDBRANCH   3  17
TORSDOF 3
ENDMDL
MODEL 3
REMARK VINA RESULT:      -7.7      1.701      2.497
REMARK  Name = 
REMARK  5 active torsions:
REMARK  status: ('A' for Active; 'I' for Inactive)
REMARK    1  A    between atoms: C_1  and  C_2
REMARK    2  A    between atoms: C_7  and  C_8
REMARK    3  A    between atoms: N_10  and  C_11
REMARK    4  A    between atoms: N_13  and  C_14
REMARK    5  A    between atoms: N_26  and  C_27
REMARK                            x       y       z     vdW  Elec       q    Type
REMARK                         _______ _______ _______ _____ _____    ______ ____
ROOT
ATOM      1  C   UNL     1       7.528   7.527  17.358  0.00  0.00    +0.000 C 
ATOM      2  O   UNL     1       8.387   7.392  16.480  0.00  0.00    +0.000 OA
ATOM      3  N   UNL     1       7.522   8.635  18.176  0.00  0.00    +0.000 N 
ATOM      4  H   UNL     1       6.782   8.738  18.866  0.00  0.00    +0.000 HD
ENDROOT
BRANCH   1  11
ATOM      5  C   UNL     1       2.454   2.991  17.631  0.00  0.00    +0.000 C 
ATOM      6  C   UNL     1       3.713   3.542  18.187  0.00  0.00    +0.000 A 
ATOM      7  C   UNL     1       4.533   4.579  17.801  0.00  0.00    +0.000 A 
ATOM      8  C   UNL     1       4.347   5.412  16.706  0.00  0.00    +0.000 A 
ATOM      9  C   UNL     1       5.375   6.376  16.607  0.00  0.00    +0.000 A 
ATOM     10  F   UNL     1       5.287   7.232  15.574  0.00  0.00    +0.000 F 
ATOM     11  C   UNL     1       6.474   6.484  17.516  0.00  0.00    +0.000 A 
ATOM     12  C   UNL     1       6.627   5.606  18.625  0.00  0.00    +0.000 A 
ATOM     13  C   UNL     1       5.618   4.637  18.751  0.00  0.00    +0.000 A 
ATOM     14  N   UNL     1       5.456   3.672  19.666  0.00  0.00    +0.000 NA
ATOM     15  N   UNL     1       4.320   3.035  19.312  0.00  0.00    +0.000 N 
ATOM     16  C   UNL     1       3.858   1.925  20.119  0.00  0.00    +0.000 C 
ENDBRANCH   1  11
BRANCH   3  17
ATOM     17  C   UNL     1       8.592   9.653  18.072  0.00  0.00    +0.000 C 
ATOM     18  C   UNL     1       8.178  11.139  17.940  0.00  0.00    +0.000 C 
ATOM     19  N   UNL     1       9.228  11.409  18.875  0.00  0.00    +0.000 N 
ATOM     20  C   UNL     1       9.208  10.088  19.410  0.00  0.00    +0.000 C 
BRANCH  19  21
ATOM     21  C   UNL     1       9.973  12.535  19.254  0.00  0.00    +0.000 A 
ATOM     22  C   UNL     1       9.636  13.165  20.465  0.00  0.00    +0.000 A 
ATOM     23  C   UNL     1      10.334  14.287  20.874  0.00  0.00    +0.000 A 
ATOM     24 CL   UNL     1       9.932  15.088  22.331  0.00  0.00    +0.000 Cl
ATOM     25  N   UNL     1      11.348  14.835  20.180  0.00  0.00    +0.000 NA
ATOM     26  C   UNL     1      11.669  14.225  19.020  0.00  0.00    +0.000 A 
ATOM     27  C   UNL     1      11.031  13.086  18.517  0.00  0.00    +0.000 A 
ATOM     28 CL   UNL     1      11.561  12.481  16.994  0.00  0.00    +0.000 Cl
ENDBRANCH  19  21
ENDBRANCH   3  17
TORSDOF 3
ENDMDL
MODEL 4
REMARK VINA RESULT:      -7.7      8.225      9.952
REMARK  Name = 
REMARK  5 active torsions:
REMARK  status: ('A' for Active; 'I' for Inactive)
REMARK    1  A    between atoms: C_1  and  C_2
REMARK    2  A    between atoms: C_7  and  C_8
REMARK    3  A    between atoms: N_10  and  C_11
REMARK    4  A    between atoms: N_13  and  C_14
REMARK    5  A    between atoms: N_26  and  C_27
REMARK                            x       y       z     vdW  Elec       q    Type
REMARK                         _______ _______ _______ _____ _____    ______ ____
ROOT
ATOM      1  C   UNL     1       0.241  10.704  19.102  0.00  0.00    +0.000 C 
ATOM      2  O   UNL     1       1.121  11.385  18.563  0.00  0.00    +0.000 OA
ATOM      3  N   UNL     1       0.500   9.418  19.520  0.00  0.00    +0.000 N 
ATOM      4  H   UNL     1      -0.233   8.894  19.993  0.00  0.00    +0.000 HD
ENDROOT
BRANCH   1  11
ATOM      5  C   UNL     1      -5.745  13.591  20.594  0.00  0.00    +0.000 C 
ATOM      6  C   UNL     1      -4.898  12.797  19.672  0.00  0.00    +0.000 A 
ATOM      7  C   UNL     1      -3.587  12.380  19.728  0.00  0.00    +0.000 A 
ATOM      8  C   UNL     1      -2.685  12.637  20.752  0.00  0.00    +0.000 A 
ATOM      9  C   UNL     1      -1.425  12.054  20.490  0.00  0.00    +0.000 A 
ATOM     10  F   UNL     1      -0.477  12.247  21.425  0.00  0.00    +0.000 F 
ATOM     11  C   UNL     1      -1.110  11.297  19.318  0.00  0.00    +0.000 A 
ATOM     12  C   UNL     1      -2.066  11.060  18.292  0.00  0.00    +0.000 A 
ATOM     13  C   UNL     1      -3.331  11.626  18.525  0.00  0.00    +0.000 A 
ATOM     14  N   UNL     1      -4.441  11.596  17.777  0.00  0.00    +0.000 NA
ATOM     15  N   UNL     1      -5.359  12.296  18.477  0.00  0.00    +0.000 N 
ATOM     16  C   UNL     1      -6.692  12.446  17.931  0.00  0.00    +0.000 C 
ENDBRANCH   1  11
BRANCH   3  17
ATOM     17  C   UNL     1       1.817   8.793  19.263  0.00  0.00    +0.000 C 
ATOM     18  C   UNL     1       2.037   7.332  19.726  0.00  0.00    +0.000 C 
ATOM     19  N   UNL     1       2.687   7.138  18.466  0.00  0.00    +0.000 N 
ATOM     20  C   UNL     1       2.003   8.227  17.849  0.00  0.00    +0.000 C 
BRANCH  19  21
ATOM     21  C   UNL     1       3.585   6.204  17.930  0.00  0.00    +0.000 A 
ATOM     22  C   UNL     1       4.911   6.618  17.718  0.00  0.00    +0.000 A 
ATOM     23  C   UNL     1       5.830   5.737  17.179  0.00  0.00    +0.000 A 
ATOM     24 CL   UNL     1       7.445   6.220  16.888  0.00  0.00    +0.000 Cl
ATOM     25  N   UNL     1       5.542   4.468  16.836  0.00  0.00    +0.000 NA
ATOM     26  C   UNL     1       4.267   4.073  17.044  0.00  0.00    +0.000 A 
ATOM     27  C   UNL     1       3.263   4.884  17.585  0.00  0.00    +0.000 A 
ATOM     28 CL   UNL     1       1.685   4.207  17.732  0.00  0.00    +0.000 Cl
ENDBRANCH  19  21
ENDBRANCH   3  17
TORSDOF 3
ENDMDL
MODEL 5
REMARK VINA RESULT:      -7.6      6.924      8.649
REMARK  Name = 
REMARK  5 active torsions:
REMARK  status: ('A' for Active; 'I' for Inactive)
REMARK    1  A    between atoms: C_1  and  C_2
REMARK    2  A    between atoms: C_7  and  C_8
REMARK    3  A    between atoms: N_10  and  C_11
REMARK    4  A    between atoms: N_13  and  C_14
REMARK    5  A    between atoms: N_26  and  C_27
REMARK                            x       y       z     vdW  Elec       q    Type
REMARK                         _______ _______ _______ _____ _____    ______ ____
ROOT
ATOM      1  C   UNL     1       1.350   9.366  18.549  0.00  0.00    +0.000 C 
ATOM      2  O   UNL     1       1.711   9.948  17.520  0.00  0.00    +0.000 OA
ATOM      3  N   UNL     1       1.748   8.073  18.805  0.00  0.00    +0.000 N 
ATOM      4  H   UNL     1       1.466   7.631  19.678  0.00  0.00    +0.000 HD
ENDROOT
BRANCH   1  11
ATOM      5  C   UNL     1      -2.307  12.367  23.450  0.00  0.00    +0.000 C 
ATOM      6  C   UNL     1      -2.005  12.171  22.011  0.00  0.00    +0.000 A 
ATOM      7  C   UNL     1      -1.084  11.395  21.344  0.00  0.00    +0.000 A 
ATOM      8  C   UNL     1      -0.147  10.550  21.922  0.00  0.00    +0.000 A 
ATOM      9  C   UNL     1       0.637   9.899  20.944  0.00  0.00    +0.000 A 
ATOM     10  F   UNL     1       1.579   9.057  21.403  0.00  0.00    +0.000 F 
ATOM     11  C   UNL     1       0.491  10.086  19.533  0.00  0.00    +0.000 A 
ATOM     12  C   UNL     1      -0.482  10.966  18.983  0.00  0.00    +0.000 A 
ATOM     13  C   UNL     1      -1.279  11.626  19.933  0.00  0.00    +0.000 A 
ATOM     14  N   UNL     1      -2.274  12.507  19.763  0.00  0.00    +0.000 NA
ATOM     15  N   UNL     1      -2.690  12.817  21.009  0.00  0.00    +0.000 N 
ATOM     16  C   UNL     1      -3.780  13.757  21.171  0.00  0.00    +0.000 C 
ENDBRANCH   1  11
BRANCH   3  17
ATOM     17  C   UNL     1       2.554   7.322  17.816  0.00  0.00    +0.000 C 
ATOM     18  C   UNL     1       3.979   7.833  17.494  0.00  0.00    +0.000 C 
ATOM     19  N   UNL     1       4.373   6.458  17.542  0.00  0.00    +0.000 N 
ATOM     20  C   UNL     1       3.273   6.083  18.368  0.00  0.00    +0.000 C 
BRANCH  19  21
ATOM     21  C   UNL     1       5.459   5.705  17.074  0.00  0.00    +0.000 A 
ATOM     22  C   UNL     1       5.467   5.345  15.715  0.00  0.00    +0.000 A 
ATOM     23  C   UNL     1       6.510   4.591  15.209  0.00  0.00    +0.000 A 
ATOM     24 CL   UNL     1       6.535   4.117  13.565  0.00  0.00    +0.000 Cl
ATOM     25  N   UNL     1       7.556   4.167  15.942  0.00  0.00    +0.000 NA
ATOM     26  C   UNL     1       7.545   4.519  17.246  0.00  0.00    +0.000 A 
ATOM     27  C   UNL     1       6.542   5.280  17.856  0.00  0.00    +0.000 A 
ATOM     28 CL   UNL     1       6.689   5.587  19.545  0.00  0.00    +0.000 Cl
ENDBRANCH  19  21
ENDBRANCH   3  17
TORSDOF 3
ENDMDL
MODEL 6
REMARK VINA RESULT:      -7.6      8.115      9.906
REMARK  Name = 
REMARK  5 active torsions:
REMARK  status: ('A' for Active; 'I' for Inactive)
REMARK    1  A    between atoms: C_1  and  C_2
REMARK    2  A    between atoms: C_7  and  C_8
REMARK    3  A    between atoms: N_10  and  C_11
REMARK    4  A    between atoms: N_13  and  C_14
REMARK    5  A    between atoms: N_26  and  C_27
REMARK                            x       y       z     vdW  Elec       q    Type
REMARK                         _______ _______ _______ _____ _____    ______ ____
ROOT
ATOM      1  C   UNL     1       0.429  10.646  19.135  0.00  0.00    +0.000 C 
ATOM      2  O   UNL     1       1.312  11.296  18.566  0.00  0.00    +0.000 OA
ATOM      3  N   UNL     1       0.651   9.344  19.525  0.00  0.00    +0.000 N 
ATOM      4  H   UNL     1      -0.082   8.844  20.024  0.00  0.00    +0.000 HD
ENDROOT
BRANCH   1  11
ATOM      5  C   UNL     1      -5.738  13.428  19.922  0.00  0.00    +0.000 C 
ATOM      6  C   UNL     1      -4.376  13.161  20.442  0.00  0.00    +0.000 A 
ATOM      7  C   UNL     1      -3.295  12.478  19.930  0.00  0.00    +0.000 A 
ATOM      8  C   UNL     1      -3.236  11.829  18.705  0.00  0.00    +0.000 A 
ATOM      9  C   UNL     1      -1.972  11.236  18.492  0.00  0.00    +0.000 A 
ATOM     10  F   UNL     1      -1.814  10.578  17.330  0.00  0.00    +0.000 F 
ATOM     11  C   UNL     1      -0.885  11.291  19.420  0.00  0.00    +0.000 A 
ATOM     12  C   UNL     1      -0.990  11.966  20.668  0.00  0.00    +0.000 A 
ATOM     13  C   UNL     1      -2.236  12.568  20.907  0.00  0.00    +0.000 A 
ATOM     14  N   UNL     1      -2.667  13.273  21.962  0.00  0.00    +0.000 NA
ATOM     15  N   UNL     1      -3.938  13.615  21.665  0.00  0.00    +0.000 N 
ATOM     16  C   UNL     1      -4.695  14.401  22.617  0.00  0.00    +0.000 C 
ENDBRANCH   1  11
BRANCH   3  17
ATOM     17  C   UNL     1       1.927   8.668  19.200  0.00  0.00    +0.000 C 
ATOM     18  C   UNL     1       2.163   7.243  19.759  0.00  0.00    +0.000 C 
ATOM     19  N   UNL     1       2.690   6.933  18.464  0.00  0.00    +0.000 N 
ATOM     20  C   UNL     1       1.971   7.985  17.826  0.00  0.00    +0.000 C 
BRANCH  19  21
ATOM     21  C   UNL     1       3.517   5.937  17.927  0.00  0.00    +0.000 A 
ATOM     22  C   UNL     1       4.871   6.252  17.721  0.00  0.00    +0.000 A 
ATOM     23  C   UNL     1       5.724   5.307  17.180  0.00  0.00    +0.000 A 
ATOM     24 CL   UNL     1       7.372   5.669  16.896  0.00  0.00    +0.000 Cl
ATOM     25  N   UNL     1       5.343   4.065  16.830  0.00  0.00    +0.000 NA
ATOM     26  C   UNL     1       4.042   3.765  17.033  0.00  0.00    +0.000 A 
ATOM     27  C   UNL     1       3.099   4.646  17.575  0.00  0.00    +0.000 A 
ATOM     28 CL   UNL     1       1.475   4.088  17.714  0.00  0.00    +0.000 Cl
ENDBRANCH  19  21
ENDBRANCH   3  17
TORSDOF 3
ENDMDL
MODEL 7
REMARK VINA RESULT:      -7.6      8.031     10.114
REMARK  Name = 
REMARK  5 active torsions:
REMARK  status: ('A' for Active; 'I' for Inactive)
REMARK    1  A    between atoms: C_1  and  C_2
REMARK    2  A    between atoms: C_7  and  C_8
REMARK    3  A    between atoms: N_10  and  C_11
REMARK    4  A    between atoms: N_13  and  C_14
REMARK    5  A    between atoms: N_26  and  C_27
REMARK                            x       y       z     vdW  Elec       q    Type
REMARK                         _______ _______ _______ _____ _____    ______ ____
ROOT
ATOM      1  C   UNL     1       0.599  10.110  21.288  0.00  0.00    +0.000 C 
ATOM      2  O   UNL     1       1.588  10.382  21.977  0.00  0.00    +0.000 OA
ATOM      3  N   UNL     1       0.595   9.008  20.462  0.00  0.00    +0.000 N 
ATOM      4  H   UNL     1      -0.246   8.787  19.935  0.00  0.00    +0.000 HD
ENDROOT
BRANCH   1  11
ATOM      5  C   UNL     1      -4.846  14.199  21.123  0.00  0.00    +0.000 C 
ATOM      6  C   UNL     1      -3.933  13.308  21.879  0.00  0.00    +0.000 A 
ATOM      7  C   UNL     1      -2.823  12.578  21.516  0.00  0.00    +0.000 A 
ATOM      8  C   UNL     1      -2.264  12.506  20.248  0.00  0.00    +0.000 A 
ATOM      9  C   UNL     1      -1.126  11.669  20.230  0.00  0.00    +0.000 A 
ATOM     10  F   UNL     1      -0.511  11.531  19.042  0.00  0.00    +0.000 F 
ATOM     11  C   UNL     1      -0.610  10.978  21.371  0.00  0.00    +0.000 A 
ATOM     12  C   UNL     1      -1.217  11.079  22.654  0.00  0.00    +0.000 A 
ATOM     13  C   UNL     1      -2.352  11.907  22.703  0.00  0.00    +0.000 A 
ATOM     14  N   UNL     1      -3.149  12.219  23.734  0.00  0.00    +0.000 NA
ATOM     15  N   UNL     1      -4.080  13.052  23.222  0.00  0.00    +0.000 N 
ATOM     16  C   UNL     1      -5.103  13.583  24.098  0.00  0.00    +0.000 C 
ENDBRANCH   1  11
BRANCH   3  17
ATOM     17  C   UNL     1       1.805   8.167  20.323  0.00  0.00    +0.000 C 
ATOM     18  C   UNL     1       1.635   6.628  20.358  0.00  0.00    +0.000 C 
ATOM     19  N   UNL     1       2.568   6.603  19.272  0.00  0.00    +0.000 N 
ATOM     20  C   UNL     1       2.279   7.943  18.880  0.00  0.00    +0.000 C 
BRANCH  19  21
ATOM     21  C   UNL     1       3.406   5.642  18.688  0.00  0.00    +0.000 A 
ATOM     22  C   UNL     1       4.794   5.813  18.831  0.00  0.00    +0.000 A 
ATOM     23  C   UNL     1       5.662   4.899  18.261  0.00  0.00    +0.000 A 
ATOM     24 CL   UNL     1       7.356   5.093  18.397  0.00  0.00    +0.000 Cl
ATOM     25  N   UNL     1       5.264   3.821  17.562  0.00  0.00    +0.000 NA
ATOM     26  C   UNL     1       3.930   3.659  17.430  0.00  0.00    +0.000 A 
ATOM     27  C   UNL     1       2.969   4.522  17.969  0.00  0.00    +0.000 A 
ATOM     28 CL   UNL     1       1.313   4.166  17.653  0.00  0.00    +0.000 Cl
ENDBRANCH  19  21
ENDBRANCH   3  17
TORSDOF 3
ENDMDL
MODEL 8
REMARK VINA RESULT:      -7.6      7.353      8.200
REMARK  Name = 
REMARK  5 active torsions:
REMARK  status: ('A' for Active; 'I' for Inactive)
REMARK    1  A    between atoms: C_1  and  C_2
REMARK    2  A    between atoms: C_7  and  C_8
REMARK    3  A    between atoms: N_10  and  C_11
REMARK    4  A    between atoms: N_13  and  C_14
REMARK    5  A    between atoms: N_26  and  C_27
REMARK                            x       y       z     vdW  Elec       q    Type
REMARK                         _______ _______ _______ _____ _____    ______ ____
ROOT
ATOM      1  C   UNL     1       1.800   8.849  18.519  0.00  0.00    +0.000 C 
ATOM      2  O   UNL     1       2.262   9.233  17.439  0.00  0.00    +0.000 OA
ATOM      3  N   UNL     1       1.070   9.701  19.318  0.00  0.00    +0.000 N 
ATOM      4  H   UNL     1       0.671   9.347  20.184  0.00  0.00    +0.000 HD
ENDROOT
BRANCH   1  11
ATOM      5  C   UNL     1       2.692   2.571  21.006  0.00  0.00    +0.000 C 
ATOM      6  C   UNL     1       2.712   3.512  19.861  0.00  0.00    +0.000 A 
ATOM      7  C   UNL     1       2.432   4.855  19.746  0.00  0.00    +0.000 A 
ATOM      8  C   UNL     1       2.028   5.702  20.769  0.00  0.00    +0.000 A 
ATOM      9  C   UNL     1       1.832   7.021  20.303  0.00  0.00    +0.000 A 
ATOM     10  F   UNL     1       1.437   7.921  21.221  0.00  0.00    +0.000 F 
ATOM     11  C   UNL     1       2.021   7.438  18.948  0.00  0.00    +0.000 A 
ATOM     12  C   UNL     1       2.433   6.535  17.930  0.00  0.00    +0.000 A 
ATOM     13  C   UNL     1       2.638   5.214  18.364  0.00  0.00    +0.000 A 
ATOM     14  N   UNL     1       3.024   4.130  17.678  0.00  0.00    +0.000 NA
ATOM     15  N   UNL     1       3.061   3.131  18.586  0.00  0.00    +0.000 N 
ATOM     16  C   UNL     1       3.455   1.806  18.155  0.00  0.00    +0.000 C 
ENDBRANCH   1  11
BRANCH   3  17
ATOM     17  C   UNL     1       0.888  11.120  18.936  0.00  0.00    +0.000 C 
ATOM     18  C   UNL     1      -0.553  11.635  18.705  0.00  0.00    +0.000 C 
ATOM     19  N   UNL     1      -0.144  12.800  19.430  0.00  0.00    +0.000 N 
ATOM     20  C   UNL     1       0.907  12.115  20.106  0.00  0.00    +0.000 C 
BRANCH  19  21
ATOM     21  C   UNL     1      -0.605  14.118  19.560  0.00  0.00    +0.000 A 
ATOM     22  C   UNL     1      -0.078  15.085  18.686  0.00  0.00    +0.000 A 
ATOM     23  C   UNL     1      -0.492  16.401  18.786  0.00  0.00    +0.000 A 
ATOM     24 CL   UNL     1       0.149  17.604  17.752  0.00  0.00    +0.000 Cl
ATOM     25  N   UNL     1      -1.396  16.838  19.681  0.00  0.00    +0.000 NA
ATOM     26  C   UNL     1      -1.901  15.905  20.516  0.00  0.00    +0.000 A 
ATOM     27  C   UNL     1      -1.553  14.550  20.498  0.00  0.00    +0.000 A 
ATOM     28 CL   UNL     1      -2.279  13.524  21.676  0.00  0.00    +0.000 Cl
ENDBRANCH  19  21
ENDBRANCH   3  17
TORSDOF 3
ENDMDL
MODEL 9
REMARK VINA RESULT:      -7.5      8.051      9.805
REMARK  Name = 
REMARK  5 active torsions:
REMARK  status: ('A' for Active; 'I' for Inactive)
REMARK    1  A    between atoms: C_1  and  C_2
REMARK    2  A    between atoms: C_7  and  C_8
REMARK    3  A    between atoms: N_10  and  C_11
REMARK    4  A    between atoms: N_13  and  C_14
REMARK    5  A    between atoms: N_26  and  C_27
REMARK                            x       y       z     vdW  Elec       q    Type
REMARK                         _______ _______ _______ _____ _____    ______ ____
ROOT
ATOM      1  C   UNL     1       1.353   8.895  21.117  0.00  0.00    +0.000 C 
ATOM      2  O   UNL     1       1.828   9.036  22.249  0.00  0.00    +0.000 OA
ATOM      3  N   UNL     1       0.546   9.864  20.564  0.00  0.00    +0.000 N 
ATOM      4  H   UNL     1       0.199   9.739  19.616  0.00  0.00    +0.000 HD
ENDROOT
BRANCH   1  11
ATOM      5  C   UNL     1       2.995   3.628  17.123  0.00  0.00    +0.000 C 
ATOM      6  C   UNL     1       2.462   4.149  18.405  0.00  0.00    +0.000 A 
ATOM      7  C   UNL     1       2.272   5.422  18.892  0.00  0.00    +0.000 A 
ATOM      8  C   UNL     1       2.567   6.608  18.233  0.00  0.00    +0.000 A 
ATOM      9  C   UNL     1       2.240   7.734  19.021  0.00  0.00    +0.000 A 
ATOM     10  F   UNL     1       2.490   8.935  18.472  0.00  0.00    +0.000 F 
ATOM     11  C   UNL     1       1.679   7.667  20.336  0.00  0.00    +0.000 A 
ATOM     12  C   UNL     1       1.395   6.429  20.975  0.00  0.00    +0.000 A 
ATOM     13  C   UNL     1       1.708   5.290  20.213  0.00  0.00    +0.000 A 
ATOM     14  N   UNL     1       1.569   3.990  20.507  0.00  0.00    +0.000 NA
ATOM     15  N   UNL     1       2.022   3.331  19.420  0.00  0.00    +0.000 N 
ATOM     16  C   UNL     1       2.000   1.883  19.417  0.00  0.00    +0.000 C 
ENDBRANCH   1  11
BRANCH   3  17
ATOM     17  C   UNL     1       0.166  11.063  21.345  0.00  0.00    +0.000 C 
ATOM     18  C   UNL     1      -0.963  11.968  20.794  0.00  0.00    +0.000 C 
ATOM     19  N   UNL     1      -1.438  12.024  22.143  0.00  0.00    +0.000 N 
ATOM     20  C   UNL     1      -0.802  10.801  22.508  0.00  0.00    +0.000 C 
BRANCH  19  21
ATOM     21  C   UNL     1      -2.287  12.865  22.877  0.00  0.00    +0.000 A 
ATOM     22  C   UNL     1      -3.580  12.397  23.166  0.00  0.00    +0.000 A 
ATOM     23  C   UNL     1      -4.458  13.196  23.875  0.00  0.00    +0.000 A 
ATOM     24 CL   UNL     1      -6.047  12.664  24.222  0.00  0.00    +0.000 Cl
ATOM     25  N   UNL     1      -4.155  14.426  24.330  0.00  0.00    +0.000 NA
ATOM     26  C   UNL     1      -2.910  14.869  24.053  0.00  0.00    +0.000 A 
ATOM     27  C   UNL     1      -1.947  14.141  23.346  0.00  0.00    +0.000 A 
ATOM     28 CL   UNL     1      -0.428  14.901  23.057  0.00  0.00    +0.000 Cl
ENDBRANCH  19  21
ENDBRANCH   3  17
TORSDOF 3
ENDMDL
