MODEL 1
REMARK VINA RESULT:      -8.0      0.000      0.000
REMARK  Name = 
REMARK  12 active torsions:
REMARK  status: ('A' for Active; 'I' for Inactive)
REMARK    1  A    between atoms: C_1  and  O_2
REMARK    2  A    between atoms: O_2  and  C_3
REMARK    3  A    between atoms: C_10  and  C_11
REMARK    4  A    between atoms: C_11  and  O_12
REMARK    5  A    between atoms: C_11  and  C_13
REMARK    6  A    between atoms: C_13  and  C_14
REMARK    7  A    between atoms: C_14  and  C_15
REMARK    8  A    between atoms: N_18  and  C_19
REMARK    9  A    between atoms: C_21  and  C_22
REMARK   10  A    between atoms: N_25  and  C_26
REMARK   11  A    between atoms: C_30  and  C_31
REMARK   12  A    between atoms: C_31  and  O_33
REMARK                            x       y       z     vdW  Elec       q    Type
REMARK                         _______ _______ _______ _____ _____    ______ ____
ROOT
ATOM      1  C   UNL     1       2.806   5.434  19.570  0.00  0.00    +0.000 C 
ATOM      2  C   UNL     1       4.320   5.720  19.638  0.00  0.00    +0.000 C 
ATOM      3  C   UNL     1       5.100   5.189  18.427  0.00  0.00    +0.000 C 
ATOM      4  N   UNL     1       4.937   3.742  18.165  0.00  0.00    +0.000 NA
ATOM      5  C   UNL     1       3.508   3.344  18.198  0.00  0.00    +0.000 C 
ATOM      6  C   UNL     1       2.678   3.904  19.384  0.00  0.00    +0.000 C 
ENDROOT
BRANCH   4   7
ATOM      7  C   UNL     1       5.535   3.468  16.814  0.00  0.00    +0.000 C 
ATOM      8  C   UNL     1       4.678   4.145  15.720  0.00  0.00    +0.000 C 
ATOM      9  C   UNL     1       5.916   4.909  15.180  0.00  0.00    +0.000 C 
ATOM     10  C   UNL     1       6.689   4.410  16.427  0.00  0.00    +0.000 C 
BRANCH   9  11
ATOM     11  C   UNL     1       6.424   4.416  13.816  0.00  0.00    +0.000 A 
ATOM     12  C   UNL     1       7.380   5.133  13.054  0.00  0.00    +0.000 A 
ATOM     13  C   UNL     1       7.578   4.376  11.924  0.00  0.00    +0.000 A 
ATOM     14  N   UNL     1       6.768   3.286  12.063  0.00  0.00    +0.000 N 
ATOM     15  C   UNL     1       6.642   2.187  11.134  0.00  0.00    +0.000 C 
ATOM     16  N   UNL     1       6.048   3.293  13.202  0.00  0.00    +0.000 NA
ENDBRANCH   9  11
ENDBRANCH   4   7
BRANCH   6  17
ATOM     17  C   UNL     1       1.250   3.395  19.298  0.00  0.00    +0.000 C 
ATOM     18  O   UNL     1       0.741   2.916  18.296  0.00  0.00    +0.000 OA
BRANCH  17  19
ATOM     19  O   UNL     1       0.550   3.544  20.447  0.00  0.00    +0.000 OA
ATOM     20  H   UNL     1       0.941   4.166  21.089  0.00  0.00    +0.000 HD
ENDBRANCH  17  19
ENDBRANCH   6  17
BRANCH   1  21
ATOM     21  C   UNL     1       2.057   6.382  18.570  0.00  0.00    +0.000 C 
BRANCH  21  22
ATOM     22  C   UNL     1       2.123   7.866  18.973  0.00  0.00    +0.000 C 
BRANCH  22  23
ATOM     23  C   UNL     1       1.321   8.917  18.187  0.00  0.00    +0.000 C 
BRANCH  23  31
ATOM     24  C   UNL     1      -2.532  11.083  16.991  0.00  0.00    +0.000 A 
ATOM     25  C   UNL     1      -3.208  11.725  18.016  0.00  0.00    +0.000 A 
ATOM     26  C   UNL     1      -2.651  11.803  19.293  0.00  0.00    +0.000 A 
ATOM     27  C   UNL     1      -1.440  11.212  19.594  0.00  0.00    +0.000 A 
ATOM     28  N   UNL     1      -1.022  11.348  20.865  0.00  0.00    +0.000 NA
ATOM     29  C   UNL     1       0.127  10.759  21.221  0.00  0.00    +0.000 A 
ATOM     30  C   UNL     1       0.889  10.010  20.354  0.00  0.00    +0.000 A 
ATOM     31  C   UNL     1       0.467   9.850  19.014  0.00  0.00    +0.000 A 
ATOM     32  C   UNL     1      -0.732  10.511  18.587  0.00  0.00    +0.000 A 
ATOM     33  C   UNL     1      -1.283  10.515  17.265  0.00  0.00    +0.000 A 
BRANCH  24  35
ATOM     34  C   UNL     1      -3.210   9.933  14.985  0.00  0.00    +0.000 C 
ATOM     35  O   UNL     1      -3.201  11.079  15.802  0.00  0.00    +0.000 OA
ENDBRANCH  24  35
ENDBRANCH  23  31
BRANCH  23  36
ATOM     36  O   UNL     1       2.055   9.564  17.161  0.00  0.00    +0.000 OA
ATOM     37  H   UNL     1       1.914  10.516  17.210  0.00  0.00    +0.000 HD
ENDBRANCH  23  36
ENDBRANCH  22  23
ENDBRANCH  21  22
ENDBRANCH   1  21
TORSDOF 10
ENDMDL
MODEL 2
REMARK VINA RESULT:      -7.9      4.009     10.220
REMARK  Name = 
REMARK  12 active torsions:
REMARK  status: ('A' for Active; 'I' for Inactive)
REMARK    1  A    between atoms: C_1  and  O_2
REMARK    2  A    between atoms: O_2  and  C_3
REMARK    3  A    between atoms: C_10  and  C_11
REMARK    4  A    between atoms: C_11  and  O_12
REMARK    5  A    between atoms: C_11  and  C_13
REMARK    6  A    between atoms: C_13  and  C_14
REMARK    7  A    between atoms: C_14  and  C_15
REMARK    8  A    between atoms: N_18  and  C_19
REMARK    9  A    between atoms: C_21  and  C_22
REMARK   10  A    between atoms: N_25  and  C_26
REMARK   11  A    between atoms: C_30  and  C_31
REMARK   12  A    between atoms: C_31  and  O_33
REMARK                            x       y       z     vdW  Elec       q    Type
REMARK                         _______ _______ _______ _____ _____    ______ ____
ROOT
ATOM      1  C   UNL     1       0.340   9.815  19.024  0.00  0.00    +0.000 C 
ATOM      2  C   UNL     1      -0.342  10.953  18.239  0.00  0.00    +0.000 C 
ATOM      3  C   UNL     1       0.154  12.353  18.630  0.00  0.00    +0.000 C 
ATOM      4  N   UNL     1       0.034  12.677  20.069  0.00  0.00    +0.000 NA
ATOM      5  C   UNL     1       0.560  11.579  20.917  0.00  0.00    +0.000 C 
ATOM      6  C   UNL     1       0.116  10.146  20.519  0.00  0.00    +0.000 C 
ENDROOT
BRANCH   4   7
ATOM      7  C   UNL     1       0.807  13.946  20.301  0.00  0.00    +0.000 C 
ATOM      8  C   UNL     1       2.253  13.602  20.728  0.00  0.00    +0.000 C 
ATOM      9  C   UNL     1       2.830  14.456  19.568  0.00  0.00    +0.000 C 
ATOM     10  C   UNL     1       1.385  14.580  19.023  0.00  0.00    +0.000 C 
BRANCH   9  11
ATOM     11  C   UNL     1       3.508  15.761  20.014  0.00  0.00    +0.000 A 
ATOM     12  C   UNL     1       4.642  16.297  19.353  0.00  0.00    +0.000 A 
ATOM     13  C   UNL     1       4.940  17.454  20.032  0.00  0.00    +0.000 A 
ATOM     14  N   UNL     1       4.005  17.552  21.022  0.00  0.00    +0.000 N 
ATOM     15  C   UNL     1       3.890  18.617  21.991  0.00  0.00    +0.000 C 
ATOM     16  N   UNL     1       3.129  16.528  21.038  0.00  0.00    +0.000 NA
ENDBRANCH   9  11
ENDBRANCH   4   7
BRANCH   6  17
ATOM     17  C   UNL     1       0.709   9.137  21.485  0.00  0.00    +0.000 C 
ATOM     18  O   UNL     1       0.482   7.936  21.463  0.00  0.00    +0.000 OA
BRANCH  17  19
ATOM     19  O   UNL     1       1.515   9.689  22.423  0.00  0.00    +0.000 OA
ATOM     20  H   UNL     1       2.462   9.475  22.329  0.00  0.00    +0.000 HD
ENDBRANCH  17  19
ENDBRANCH   6  17
BRANCH   1  21
ATOM     21  C   UNL     1       1.797   9.526  18.524  0.00  0.00    +0.000 C 
BRANCH  21  22
ATOM     22  C   UNL     1       1.949   8.148  17.855  0.00  0.00    +0.000 C 
BRANCH  22  23
ATOM     23  C   UNL     1       2.225   6.899  18.710  0.00  0.00    +0.000 C 
BRANCH  23  31
ATOM     24  C   UNL     1       6.351   6.450  16.774  0.00  0.00    +0.000 A 
ATOM     25  C   UNL     1       6.678   5.176  16.335  0.00  0.00    +0.000 A 
ATOM     26  C   UNL     1       5.733   4.150  16.372  0.00  0.00    +0.000 A 
ATOM     27  C   UNL     1       4.466   4.348  16.882  0.00  0.00    +0.000 A 
ATOM     28  N   UNL     1       3.657   3.273  16.874  0.00  0.00    +0.000 NA
ATOM     29  C   UNL     1       2.429   3.400  17.395  0.00  0.00    +0.000 A 
ATOM     30  C   UNL     1       1.965   4.569  17.951  0.00  0.00    +0.000 A 
ATOM     31  C   UNL     1       2.799   5.709  17.975  0.00  0.00    +0.000 A 
ATOM     32  C   UNL     1       4.100   5.623  17.378  0.00  0.00    +0.000 A 
ATOM     33  C   UNL     1       5.057   6.681  17.255  0.00  0.00    +0.000 A 
BRANCH  24  35
ATOM     34  C   UNL     1       7.846   8.015  17.832  0.00  0.00    +0.000 C 
ATOM     35  O   UNL     1       7.375   7.347  16.686  0.00  0.00    +0.000 OA
ENDBRANCH  24  35
ENDBRANCH  23  31
BRANCH  23  36
ATOM     36  O   UNL     1       2.855   7.169  19.952  0.00  0.00    +0.000 OA
ATOM     37  H   UNL     1       2.408   6.684  20.654  0.00  0.00    +0.000 HD
ENDBRANCH  23  36
ENDBRANCH  22  23
ENDBRANCH  21  22
ENDBRANCH   1  21
TORSDOF 10
ENDMDL
MODEL 3
REMARK VINA RESULT:      -7.9      4.383      9.583
REMARK  Name = 
REMARK  12 active torsions:
REMARK  status: ('A' for Active; 'I' for Inactive)
REMARK    1  A    between atoms: C_1  and  O_2
REMARK    2  A    between atoms: O_2  and  C_3
REMARK    3  A    between atoms: C_10  and  C_11
REMARK    4  A    between atoms: C_11  and  O_12
REMARK    5  A    between atoms: C_11  and  C_13
REMARK    6  A    between atoms: C_13  and  C_14
REMARK    7  A    between atoms: C_14  and  C_15
REMARK    8  A    between atoms: N_18  and  C_19
REMARK    9  A    between atoms: C_21  and  C_22
REMARK   10  A    between atoms: N_25  and  C_26
REMARK   11  A    between atoms: C_30  and  C_31
REMARK   12  A    between atoms: C_31  and  O_33
REMARK                            x       y       z     vdW  Elec       q    Type
REMARK                         _______ _______ _______ _____ _____    ______ ____
ROOT
ATOM      1  C   UNL     1       0.046   9.588  20.335  0.00  0.00    +0.000 C 
ATOM      2  C   UNL     1       0.062  10.315  18.975  0.00  0.00    +0.000 C 
ATOM      3  C   UNL     1       1.065  11.477  18.910  0.00  0.00    +0.000 C 
ATOM      4  N   UNL     1       0.895  12.507  19.959  0.00  0.00    +0.000 NA
ATOM      5  C   UNL     1       0.750  11.893  21.302  0.00  0.00    +0.000 C 
ATOM      6  C   UNL     1      -0.220  10.685  21.392  0.00  0.00    +0.000 C 
ENDROOT
BRANCH   4   7
ATOM      7  C   UNL     1       2.107  13.394  19.906  0.00  0.00    +0.000 C 
ATOM      8  C   UNL     1       2.927  13.077  18.634  0.00  0.00    +0.000 C 
ATOM      9  C   UNL     1       2.861  14.561  18.185  0.00  0.00    +0.000 C 
ATOM     10  C   UNL     1       1.842  14.797  19.329  0.00  0.00    +0.000 C 
BRANCH   9  11
ATOM     11  C   UNL     1       4.195  15.317  18.288  0.00  0.00    +0.000 A 
ATOM     12  C   UNL     1       4.280  16.653  18.753  0.00  0.00    +0.000 A 
ATOM     13  C   UNL     1       5.618  16.964  18.708  0.00  0.00    +0.000 A 
ATOM     14  N   UNL     1       6.242  15.843  18.242  0.00  0.00    +0.000 N 
ATOM     15  C   UNL     1       7.661  15.673  18.039  0.00  0.00    +0.000 C 
ATOM     16  N   UNL     1       5.396  14.830  17.969  0.00  0.00    +0.000 NA
ENDBRANCH   9  11
ENDBRANCH   4   7
BRANCH   6  17
ATOM     17  C   UNL     1      -0.283  10.181  22.822  0.00  0.00    +0.000 C 
ATOM     18  O   UNL     1       0.671   9.744  23.449  0.00  0.00    +0.000 OA
BRANCH  17  19
ATOM     19  O   UNL     1      -1.524  10.228  23.362  0.00  0.00    +0.000 OA
ATOM     20  H   UNL     1      -1.565  10.587  24.269  0.00  0.00    +0.000 HD
ENDBRANCH  17  19
ENDBRANCH   6  17
BRANCH   1  21
ATOM     21  C   UNL     1       1.280   8.639  20.525  0.00  0.00    +0.000 C 
BRANCH  21  22
ATOM     22  C   UNL     1       1.385   7.553  19.439  0.00  0.00    +0.000 C 
BRANCH  22  23
ATOM     23  C   UNL     1       2.535   7.588  18.418  0.00  0.00    +0.000 C 
BRANCH  23  31
ATOM     24  C   UNL     1       6.705   6.361  16.978  0.00  0.00    +0.000 A 
ATOM     25  C   UNL     1       6.888   5.009  16.736  0.00  0.00    +0.000 A 
ATOM     26  C   UNL     1       5.810   4.125  16.803  0.00  0.00    +0.000 A 
ATOM     27  C   UNL     1       4.544   4.549  17.155  0.00  0.00    +0.000 A 
ATOM     28  N   UNL     1       3.598   3.594  17.198  0.00  0.00    +0.000 NA
ATOM     29  C   UNL     1       2.360   3.945  17.573  0.00  0.00    +0.000 A 
ATOM     30  C   UNL     1       2.018   5.228  17.931  0.00  0.00    +0.000 A 
ATOM     31  C   UNL     1       2.997   6.247  17.897  0.00  0.00    +0.000 A 
ATOM     32  C   UNL     1       4.319   5.916  17.451  0.00  0.00    +0.000 A 
ATOM     33  C   UNL     1       5.420   6.818  17.294  0.00  0.00    +0.000 A 
BRANCH  24  35
ATOM     34  C   UNL     1       7.961   8.337  17.548  0.00  0.00    +0.000 C 
ATOM     35  O   UNL     1       7.847   7.101  16.884  0.00  0.00    +0.000 OA
ENDBRANCH  24  35
ENDBRANCH  23  31
BRANCH  23  36
ATOM     36  O   UNL     1       2.394   8.580  17.414  0.00  0.00    +0.000 OA
ATOM     37  H   UNL     1       2.131   8.168  16.585  0.00  0.00    +0.000 HD
ENDBRANCH  23  36
ENDBRANCH  22  23
ENDBRANCH  21  22
ENDBRANCH   1  21
TORSDOF 10
ENDMDL
MODEL 4
REMARK VINA RESULT:      -7.5      3.965      9.753
REMARK  Name = 
REMARK  12 active torsions:
REMARK  status: ('A' for Active; 'I' for Inactive)
REMARK    1  A    between atoms: C_1  and  O_2
REMARK    2  A    between atoms: O_2  and  C_3
REMARK    3  A    between atoms: C_10  and  C_11
REMARK    4  A    between atoms: C_11  and  O_12
REMARK    5  A    between atoms: C_11  and  C_13
REMARK    6  A    between atoms: C_13  and  C_14
REMARK    7  A    between atoms: C_14  and  C_15
REMARK    8  A    between atoms: N_18  and  C_19
REMARK    9  A    between atoms: C_21  and  C_22
REMARK   10  A    between atoms: N_25  and  C_26
REMARK   11  A    between atoms: C_30  and  C_31
REMARK   12  A    between atoms: C_31  and  O_33
REMARK                            x       y       z     vdW  Elec       q    Type
REMARK                         _______ _______ _______ _____ _____    ______ ____
ROOT
ATOM      1  C   UNL     1       0.247   9.163  20.255  0.00  0.00    +0.000 C 
ATOM      2  C   UNL     1      -0.131   9.764  18.886  0.00  0.00    +0.000 C 
ATOM      3  C   UNL     1       0.404  11.187  18.670  0.00  0.00    +0.000 C 
ATOM      4  N   UNL     1       0.005  12.167  19.705  0.00  0.00    +0.000 NA
ATOM      5  C   UNL     1       0.222  11.629  21.071  0.00  0.00    +0.000 C 
ATOM      6  C   UNL     1      -0.264  10.174  21.309  0.00  0.00    +0.000 C 
ENDROOT
BRANCH   4   7
ATOM      7  C   UNL     1       0.830  13.404  19.483  0.00  0.00    +0.000 C 
ATOM      8  C   UNL     1       1.904  13.517  20.590  0.00  0.00    +0.000 C 
ATOM      9  C   UNL     1       3.033  13.592  19.528  0.00  0.00    +0.000 C 
ATOM     10  C   UNL     1       1.968  13.232  18.461  0.00  0.00    +0.000 C 
BRANCH   9  11
ATOM     11  C   UNL     1       3.694  14.974  19.398  0.00  0.00    +0.000 A 
ATOM     12  C   UNL     1       3.570  15.772  18.234  0.00  0.00    +0.000 A 
ATOM     13  C   UNL     1       4.282  16.916  18.506  0.00  0.00    +0.000 A 
ATOM     14  N   UNL     1       4.771  16.755  19.770  0.00  0.00    +0.000 N 
ATOM     15  C   UNL     1       5.569  17.704  20.508  0.00  0.00    +0.000 C 
ATOM     16  N   UNL     1       4.436  15.575  20.330  0.00  0.00    +0.000 NA
ENDBRANCH   9  11
ENDBRANCH   4   7
BRANCH   6  17
ATOM     17  C   UNL     1       0.001   9.772  22.749  0.00  0.00    +0.000 C 
ATOM     18  O   UNL     1       1.103   9.763  23.278  0.00  0.00    +0.000 OA
BRANCH  17  19
ATOM     19  O   UNL     1      -1.110   9.384  23.419  0.00  0.00    +0.000 OA
ATOM     20  H   UNL     1      -1.642  10.114  23.789  0.00  0.00    +0.000 HD
ENDBRANCH  17  19
ENDBRANCH   6  17
BRANCH   1  21
ATOM     21  C   UNL     1       1.743   8.698  20.317  0.00  0.00    +0.000 C 
BRANCH  21  22
ATOM     22  C   UNL     1       2.071   7.572  19.320  0.00  0.00    +0.000 C 
BRANCH  22  23
ATOM     23  C   UNL     1       1.950   6.099  19.748  0.00  0.00    +0.000 C 
BRANCH  23  31
ATOM     24  C   UNL     1       5.501   6.271  16.861  0.00  0.00    +0.000 A 
ATOM     25  C   UNL     1       5.772   5.103  16.166  0.00  0.00    +0.000 A 
ATOM     26  C   UNL     1       4.915   4.006  16.261  0.00  0.00    +0.000 A 
ATOM     27  C   UNL     1       3.801   4.025  17.075  0.00  0.00    +0.000 A 
ATOM     28  N   UNL     1       3.066   2.898  17.088  0.00  0.00    +0.000 NA
ATOM     29  C   UNL     1       1.997   2.848  17.893  0.00  0.00    +0.000 A 
ATOM     30  C   UNL     1       1.626   3.884  18.717  0.00  0.00    +0.000 A 
ATOM     31  C   UNL     1       2.385   5.076  18.724  0.00  0.00    +0.000 A 
ATOM     32  C   UNL     1       3.506   5.183  17.836  0.00  0.00    +0.000 A 
ATOM     33  C   UNL     1       4.353   6.324  17.659  0.00  0.00    +0.000 A 
BRANCH  24  35
ATOM     34  C   UNL     1       7.479   7.432  17.600  0.00  0.00    +0.000 C 
ATOM     35  O   UNL     1       6.429   7.254  16.679  0.00  0.00    +0.000 OA
ENDBRANCH  24  35
ENDBRANCH  23  31
BRANCH  23  36
ATOM     36  O   UNL     1       2.413   5.834  21.062  0.00  0.00    +0.000 OA
ATOM     37  H   UNL     1       3.183   5.256  21.025  0.00  0.00    +0.000 HD
ENDBRANCH  23  36
ENDBRANCH  22  23
ENDBRANCH  21  22
ENDBRANCH   1  21
TORSDOF 10
ENDMDL
MODEL 5
REMARK VINA RESULT:      -7.5      4.021     10.023
REMARK  Name = 
REMARK  12 active torsions:
REMARK  status: ('A' for Active; 'I' for Inactive)
REMARK    1  A    between atoms: C_1  and  O_2
REMARK    2  A    between atoms: O_2  and  C_3
REMARK    3  A    between atoms: C_10  and  C_11
REMARK    4  A    between atoms: C_11  and  O_12
REMARK    5  A    between atoms: C_11  and  C_13
REMARK    6  A    between atoms: C_13  and  C_14
REMARK    7  A    between atoms: C_14  and  C_15
REMARK    8  A    between atoms: N_18  and  C_19
REMARK    9  A    between atoms: C_21  and  C_22
REMARK   10  A    between atoms: N_25  and  C_26
REMARK   11  A    between atoms: C_30  and  C_31
REMARK   12  A    between atoms: C_31  and  O_33
REMARK                            x       y       z     vdW  Elec       q    Type
REMARK                         _______ _______ _______ _____ _____    ______ ____
ROOT
ATOM      1  C   UNL     1      -0.046   9.430  20.268  0.00  0.00    +0.000 C 
ATOM      2  C   UNL     1      -0.251  10.160  18.925  0.00  0.00    +0.000 C 
ATOM      3  C   UNL     1       0.330  11.581  18.903  0.00  0.00    +0.000 C 
ATOM      4  N   UNL     1      -0.169  12.476  19.972  0.00  0.00    +0.000 NA
ATOM      5  C   UNL     1      -0.122  11.813  21.298  0.00  0.00    +0.000 C 
ATOM      6  C   UNL     1      -0.658  10.357  21.345  0.00  0.00    +0.000 C 
ENDROOT
BRANCH   4   7
ATOM      7  C   UNL     1       0.698  13.704  19.959  0.00  0.00    +0.000 C 
ATOM      8  C   UNL     1       2.052  13.390  20.637  0.00  0.00    +0.000 C 
ATOM      9  C   UNL     1       2.826  13.858  19.376  0.00  0.00    +0.000 C 
ATOM     10  C   UNL     1       1.462  13.928  18.642  0.00  0.00    +0.000 C 
BRANCH   9  11
ATOM     11  C   UNL     1       3.581  15.185  19.548  0.00  0.00    +0.000 A 
ATOM     12  C   UNL     1       4.606  15.599  18.662  0.00  0.00    +0.000 A 
ATOM     13  C   UNL     1       5.020  16.821  19.137  0.00  0.00    +0.000 A 
ATOM     14  N   UNL     1       4.249  17.069  20.237  0.00  0.00    +0.000 N 
ATOM     15  C   UNL     1       4.298  18.247  21.070  0.00  0.00    +0.000 C 
ATOM     16  N   UNL     1       3.373  16.083  20.513  0.00  0.00    +0.000 NA
ENDBRANCH   9  11
ENDBRANCH   4   7
BRANCH   6  17
ATOM     17  C   UNL     1      -0.570   9.821  22.762  0.00  0.00    +0.000 C 
ATOM     18  O   UNL     1      -0.161  10.457  23.723  0.00  0.00    +0.000 OA
BRANCH  17  19
ATOM     19  O   UNL     1      -0.966   8.531  22.883  0.00  0.00    +0.000 OA
ATOM     20  H   UNL     1      -0.686   8.091  23.707  0.00  0.00    +0.000 HD
ENDBRANCH  17  19
ENDBRANCH   6  17
BRANCH   1  21
ATOM     21  C   UNL     1       1.424   8.919  20.458  0.00  0.00    +0.000 C 
BRANCH  21  22
ATOM     22  C   UNL     1       1.733   7.643  19.654  0.00  0.00    +0.000 C 
BRANCH  22  23
ATOM     23  C   UNL     1       2.642   7.710  18.415  0.00  0.00    +0.000 C 
BRANCH  23  31
ATOM     24  C   UNL     1       6.999   6.680  17.452  0.00  0.00    +0.000 A 
ATOM     25  C   UNL     1       7.268   5.338  17.229  0.00  0.00    +0.000 A 
ATOM     26  C   UNL     1       6.231   4.407  17.174  0.00  0.00    +0.000 A 
ATOM     27  C   UNL     1       4.916   4.772  17.381  0.00  0.00    +0.000 A 
ATOM     28  N   UNL     1       4.014   3.776  17.316  0.00  0.00    +0.000 NA
ATOM     29  C   UNL     1       2.728   4.069  17.550  0.00  0.00    +0.000 A 
ATOM     30  C   UNL     1       2.290   5.333  17.869  0.00  0.00    +0.000 A 
ATOM     31  C   UNL     1       3.220   6.394  17.948  0.00  0.00    +0.000 A 
ATOM     32  C   UNL     1       4.597   6.125  17.652  0.00  0.00    +0.000 A 
ATOM     33  C   UNL     1       5.667   7.076  17.622  0.00  0.00    +0.000 A 
BRANCH  24  35
ATOM     34  C   UNL     1       7.999   8.859  17.685  0.00  0.00    +0.000 C 
ATOM     35  O   UNL     1       8.110   7.470  17.488  0.00  0.00    +0.000 OA
ENDBRANCH  24  35
ENDBRANCH  23  31
BRANCH  23  36
ATOM     36  O   UNL     1       2.143   8.527  17.368  0.00  0.00    +0.000 OA
ATOM     37  H   UNL     1       2.873   8.836  16.822  0.00  0.00    +0.000 HD
ENDBRANCH  23  36
ENDBRANCH  22  23
ENDBRANCH  21  22
ENDBRANCH   1  21
TORSDOF 10
ENDMDL
MODEL 6
REMARK VINA RESULT:      -7.4      2.523     10.100
REMARK  Name = 
REMARK  12 active torsions:
REMARK  status: ('A' for Active; 'I' for Inactive)
REMARK    1  A    between atoms: C_1  and  O_2
REMARK    2  A    between atoms: O_2  and  C_3
REMARK    3  A    between atoms: C_10  and  C_11
REMARK    4  A    between atoms: C_11  and  O_12
REMARK    5  A    between atoms: C_11  and  C_13
REMARK    6  A    between atoms: C_13  and  C_14
REMARK    7  A    between atoms: C_14  and  C_15
REMARK    8  A    between atoms: N_18  and  C_19
REMARK    9  A    between atoms: C_21  and  C_22
REMARK   10  A    between atoms: N_25  and  C_26
REMARK   11  A    between atoms: C_30  and  C_31
REMARK   12  A    between atoms: C_31  and  O_33
REMARK                            x       y       z     vdW  Elec       q    Type
REMARK                         _______ _______ _______ _____ _____    ______ ____
ROOT
ATOM      1  C   UNL     1       2.462   6.041  19.322  0.00  0.00    +0.000 C 
ATOM      2  C   UNL     1       2.071   5.991  20.813  0.00  0.00    +0.000 C 
ATOM      3  C   UNL     1       0.957   6.978  21.190  0.00  0.00    +0.000 C 
ATOM      4  N   UNL     1       1.237   8.392  20.856  0.00  0.00    +0.000 NA
ATOM      5  C   UNL     1       1.737   8.531  19.466  0.00  0.00    +0.000 C 
ATOM      6  C   UNL     1       2.830   7.516  19.037  0.00  0.00    +0.000 C 
ENDROOT
BRANCH   4   7
ATOM      7  C   UNL     1      -0.047   9.152  21.039  0.00  0.00    +0.000 C 
ATOM      8  C   UNL     1       0.242  10.498  21.742  0.00  0.00    +0.000 C 
ATOM      9  C   UNL     1      -0.440  11.282  20.589  0.00  0.00    +0.000 C 
ATOM     10  C   UNL     1      -0.495   9.949  19.800  0.00  0.00    +0.000 C 
BRANCH   9  11
ATOM     11  C   UNL     1      -1.791  11.914  20.961  0.00  0.00    +0.000 A 
ATOM     12  C   UNL     1      -2.690  12.417  19.988  0.00  0.00    +0.000 A 
ATOM     13  C   UNL     1      -3.768  12.883  20.703  0.00  0.00    +0.000 A 
ATOM     14  N   UNL     1      -3.474  12.640  22.014  0.00  0.00    +0.000 N 
ATOM     15  C   UNL     1      -4.314  12.935  23.150  0.00  0.00    +0.000 C 
ATOM     16  N   UNL     1      -2.271  12.060  22.197  0.00  0.00    +0.000 NA
ENDBRANCH   9  11
ENDBRANCH   4   7
BRANCH   6  17
ATOM     17  C   UNL     1       3.258   7.795  17.607  0.00  0.00    +0.000 C 
ATOM     18  O   UNL     1       4.192   7.247  17.041  0.00  0.00    +0.000 OA
BRANCH  17  19
ATOM     19  O   UNL     1       2.520   8.751  16.995  0.00  0.00    +0.000 OA
ATOM     20  H   UNL     1       2.078   9.378  17.598  0.00  0.00    +0.000 HD
ENDBRANCH  17  19
ENDBRANCH   6  17
BRANCH   1  21
ATOM     21  C   UNL     1       1.411   5.333  18.399  0.00  0.00    +0.000 C 
BRANCH  21  22
ATOM     22  C   UNL     1       2.031   4.270  17.475  0.00  0.00    +0.000 C 
BRANCH  22  23
ATOM     23  C   UNL     1       3.159   3.360  17.991  0.00  0.00    +0.000 C 
BRANCH  23  31
ATOM     24  C   UNL     1       5.904   3.970  14.376  0.00  0.00    +0.000 A 
ATOM     25  C   UNL     1       7.053   4.710  14.608  0.00  0.00    +0.000 A 
ATOM     26  C   UNL     1       7.390   5.110  15.901  0.00  0.00    +0.000 A 
ATOM     27  C   UNL     1       6.580   4.829  16.982  0.00  0.00    +0.000 A 
ATOM     28  N   UNL     1       7.011   5.284  18.172  0.00  0.00    +0.000 NA
ATOM     29  C   UNL     1       6.241   5.074  19.248  0.00  0.00    +0.000 A 
ATOM     30  C   UNL     1       5.027   4.430  19.191  0.00  0.00    +0.000 A 
ATOM     31  C   UNL     1       4.552   3.947  17.951  0.00  0.00    +0.000 A 
ATOM     32  C   UNL     1       5.374   4.110  16.788  0.00  0.00    +0.000 A 
ATOM     33  C   UNL     1       5.091   3.638  15.466  0.00  0.00    +0.000 A 
BRANCH  24  35
ATOM     34  C   UNL     1       6.743   3.774  12.126  0.00  0.00    +0.000 C 
ATOM     35  O   UNL     1       5.700   3.658  13.065  0.00  0.00    +0.000 OA
ENDBRANCH  24  35
ENDBRANCH  23  31
BRANCH  23  36
ATOM     36  O   UNL     1       2.854   2.678  19.196  0.00  0.00    +0.000 OA
ATOM     37  H   UNL     1       2.266   1.939  19.011  0.00  0.00    +0.000 HD
ENDBRANCH  23  36
ENDBRANCH  22  23
ENDBRANCH  21  22
ENDBRANCH   1  21
TORSDOF 10
ENDMDL
MODEL 7
REMARK VINA RESULT:      -7.4      0.888      1.016
REMARK  Name = 
REMARK  12 active torsions:
REMARK  status: ('A' for Active; 'I' for Inactive)
REMARK    1  A    between atoms: C_1  and  O_2
REMARK    2  A    between atoms: O_2  and  C_3
REMARK    3  A    between atoms: C_10  and  C_11
REMARK    4  A    between atoms: C_11  and  O_12
REMARK    5  A    between atoms: C_11  and  C_13
REMARK    6  A    between atoms: C_13  and  C_14
REMARK    7  A    between atoms: C_14  and  C_15
REMARK    8  A    between atoms: N_18  and  C_19
REMARK    9  A    between atoms: C_21  and  C_22
REMARK   10  A    between atoms: N_25  and  C_26
REMARK   11  A    between atoms: C_30  and  C_31
REMARK   12  A    between atoms: C_31  and  O_33
REMARK                            x       y       z     vdW  Elec       q    Type
REMARK                         _______ _______ _______ _____ _____    ______ ____
ROOT
ATOM      1  C   UNL     1       3.349   5.924  19.644  0.00  0.00    +0.000 C 
ATOM      2  C   UNL     1       4.807   6.231  19.245  0.00  0.00    +0.000 C 
ATOM      3  C   UNL     1       5.276   5.469  17.996  0.00  0.00    +0.000 C 
ATOM      4  N   UNL     1       5.142   3.998  18.077  0.00  0.00    +0.000 NA
ATOM      5  C   UNL     1       3.800   3.603  18.569  0.00  0.00    +0.000 C 
ATOM      6  C   UNL     1       3.274   4.387  19.801  0.00  0.00    +0.000 C 
ENDROOT
BRANCH   4   7
ATOM      7  C   UNL     1       5.383   3.457  16.695  0.00  0.00    +0.000 C 
ATOM      8  C   UNL     1       4.424   4.144  15.695  0.00  0.00    +0.000 C 
ATOM      9  C   UNL     1       5.619   4.596  14.814  0.00  0.00    +0.000 C 
ATOM     10  C   UNL     1       6.557   4.117  15.951  0.00  0.00    +0.000 C 
BRANCH   9  11
ATOM     11  C   UNL     1       5.736   3.857  13.471  0.00  0.00    +0.000 A 
ATOM     12  C   UNL     1       4.644   3.720  12.579  0.00  0.00    +0.000 A 
ATOM     13  C   UNL     1       5.143   3.019  11.507  0.00  0.00    +0.000 A 
ATOM     14  N   UNL     1       6.456   2.785  11.797  0.00  0.00    +0.000 N 
ATOM     15  C   UNL     1       7.410   2.096  10.961  0.00  0.00    +0.000 C 
ATOM     16  N   UNL     1       6.838   3.277  12.993  0.00  0.00    +0.000 NA
ENDBRANCH   9  11
ENDBRANCH   4   7
BRANCH   6  17
ATOM     17  C   UNL     1       1.909   3.859  20.203  0.00  0.00    +0.000 C 
ATOM     18  O   UNL     1       0.992   3.638  19.427  0.00  0.00    +0.000 OA
BRANCH  17  19
ATOM     19  O   UNL     1       1.769   3.672  21.538  0.00  0.00    +0.000 OA
ATOM     20  H   UNL     1       1.269   4.371  22.000  0.00  0.00    +0.000 HD
ENDBRANCH  17  19
ENDBRANCH   6  17
BRANCH   1  21
ATOM     21  C   UNL     1       2.307   6.639  18.716  0.00  0.00    +0.000 C 
BRANCH  21  22
ATOM     22  C   UNL     1       1.960   8.066  19.179  0.00  0.00    +0.000 C 
BRANCH  22  23
ATOM     23  C   UNL     1       1.301   9.057  18.203  0.00  0.00    +0.000 C 
BRANCH  23  31
ATOM     24  C   UNL     1      -2.871  10.338  16.815  0.00  0.00    +0.000 A 
ATOM     25  C   UNL     1      -3.574  11.153  17.687  0.00  0.00    +0.000 A 
ATOM     26  C   UNL     1      -2.967  11.646  18.843  0.00  0.00    +0.000 A 
ATOM     27  C   UNL     1      -1.673  11.308  19.182  0.00  0.00    +0.000 A 
ATOM     28  N   UNL     1      -1.211  11.838  20.330  0.00  0.00    +0.000 NA
ATOM     29  C   UNL     1       0.025  11.509  20.727  0.00  0.00    +0.000 A 
ATOM     30  C   UNL     1       0.836  10.646  20.028  0.00  0.00    +0.000 A 
ATOM     31  C   UNL     1       0.371  10.074  18.823  0.00  0.00    +0.000 A 
ATOM     32  C   UNL     1      -0.928  10.445  18.342  0.00  0.00    +0.000 A 
ATOM     33  C   UNL     1      -1.543  10.019  17.120  0.00  0.00    +0.000 A 
BRANCH  24  35
ATOM     34  C   UNL     1      -3.130  10.163  14.425  0.00  0.00    +0.000 C 
ATOM     35  O   UNL     1      -3.594   9.927  15.734  0.00  0.00    +0.000 OA
ENDBRANCH  24  35
ENDBRANCH  23  31
BRANCH  23  36
ATOM     36  O   UNL     1       2.184   9.597  17.234  0.00  0.00    +0.000 OA
ATOM     37  H   UNL     1       2.984   9.916  17.665  0.00  0.00    +0.000 HD
ENDBRANCH  23  36
ENDBRANCH  22  23
ENDBRANCH  21  22
ENDBRANCH   1  21
TORSDOF 10
ENDMDL
MODEL 8
REMARK VINA RESULT:      -7.3      3.280     11.656
REMARK  Name = 
REMARK  12 active torsions:
REMARK  status: ('A' for Active; 'I' for Inactive)
REMARK    1  A    between atoms: C_1  and  O_2
REMARK    2  A    between atoms: O_2  and  C_3
REMARK    3  A    between atoms: C_10  and  C_11
REMARK    4  A    between atoms: C_11  and  O_12
REMARK    5  A    between atoms: C_11  and  C_13
REMARK    6  A    between atoms: C_13  and  C_14
REMARK    7  A    between atoms: C_14  and  C_15
REMARK    8  A    between atoms: N_18  and  C_19
REMARK    9  A    between atoms: C_21  and  C_22
REMARK   10  A    between atoms: N_25  and  C_26
REMARK   11  A    between atoms: C_30  and  C_31
REMARK   12  A    between atoms: C_31  and  O_33
REMARK                            x       y       z     vdW  Elec       q    Type
REMARK                         _______ _______ _______ _____ _____    ______ ____
ROOT
ATOM      1  C   UNL     1       0.884  10.011  20.555  0.00  0.00    +0.000 C 
ATOM      2  C   UNL     1       0.930  10.868  21.836  0.00  0.00    +0.000 C 
ATOM      3  C   UNL     1      -0.429  11.472  22.220  0.00  0.00    +0.000 C 
ATOM      4  N   UNL     1      -1.069  12.290  21.166  0.00  0.00    +0.000 NA
ATOM      5  C   UNL     1      -1.054  11.593  19.857  0.00  0.00    +0.000 C 
ATOM      6  C   UNL     1       0.292  10.929  19.459  0.00  0.00    +0.000 C 
ENDROOT
BRANCH   4   7
ATOM      7  C   UNL     1      -2.479  12.559  21.611  0.00  0.00    +0.000 C 
ATOM      8  C   UNL     1      -2.468  13.164  23.034  0.00  0.00    +0.000 C 
ATOM      9  C   UNL     1      -3.280  14.394  22.549  0.00  0.00    +0.000 C 
ATOM     10  C   UNL     1      -3.063  13.888  21.101  0.00  0.00    +0.000 C 
BRANCH   9  11
ATOM     11  C   UNL     1      -4.733  14.436  23.051  0.00  0.00    +0.000 A 
ATOM     12  C   UNL     1      -5.347  15.629  23.508  0.00  0.00    +0.000 A 
ATOM     13  C   UNL     1      -6.626  15.263  23.855  0.00  0.00    +0.000 A 
ATOM     14  N   UNL     1      -6.711  13.925  23.593  0.00  0.00    +0.000 N 
ATOM     15  C   UNL     1      -7.872  13.088  23.777  0.00  0.00    +0.000 C 
ATOM     16  N   UNL     1      -5.568  13.397  23.113  0.00  0.00    +0.000 NA
ENDBRANCH   9  11
ENDBRANCH   4   7
BRANCH   6  17
ATOM     17  C   UNL     1       0.162  10.280  18.094  0.00  0.00    +0.000 C 
ATOM     18  O   UNL     1      -0.890   9.899  17.601  0.00  0.00    +0.000 OA
BRANCH  17  19
ATOM     19  O   UNL     1       1.344  10.122  17.452  0.00  0.00    +0.000 OA
ATOM     20  H   UNL     1       2.009  10.809  17.642  0.00  0.00    +0.000 HD
ENDBRANCH  17  19
ENDBRANCH   6  17
BRANCH   1  21
ATOM     21  C   UNL     1       0.235   8.604  20.793  0.00  0.00    +0.000 C 
BRANCH  21  22
ATOM     22  C   UNL     1       1.267   7.501  21.091  0.00  0.00    +0.000 C 
BRANCH  22  23
ATOM     23  C   UNL     1       2.185   6.979  19.972  0.00  0.00    +0.000 C 
BRANCH  23  31
ATOM     24  C   UNL     1       4.485   4.529  16.861  0.00  0.00    +0.000 A 
ATOM     25  C   UNL     1       4.356   3.153  16.959  0.00  0.00    +0.000 A 
ATOM     26  C   UNL     1       3.465   2.587  17.872  0.00  0.00    +0.000 A 
ATOM     27  C   UNL     1       2.720   3.366  18.735  0.00  0.00    +0.000 A 
ATOM     28  N   UNL     1       1.911   2.696  19.576  0.00  0.00    +0.000 NA
ATOM     29  C   UNL     1       1.196   3.401  20.463  0.00  0.00    +0.000 A 
ATOM     30  C   UNL     1       1.262   4.771  20.564  0.00  0.00    +0.000 A 
ATOM     31  C   UNL     1       2.108   5.495  19.694  0.00  0.00    +0.000 A 
ATOM     32  C   UNL     1       2.849   4.776  18.698  0.00  0.00    +0.000 A 
ATOM     33  C   UNL     1       3.706   5.336  17.697  0.00  0.00    +0.000 A 
BRANCH  24  35
ATOM     34  C   UNL     1       6.215   4.002  15.269  0.00  0.00    +0.000 C 
ATOM     35  O   UNL     1       5.397   4.936  15.932  0.00  0.00    +0.000 OA
ENDBRANCH  24  35
ENDBRANCH  23  31
BRANCH  23  36
ATOM     36  O   UNL     1       2.200   7.785  18.805  0.00  0.00    +0.000 OA
ATOM     37  H   UNL     1       1.926   8.681  19.026  0.00  0.00    +0.000 HD
ENDBRANCH  23  36
ENDBRANCH  22  23
ENDBRANCH  21  22
ENDBRANCH   1  21
TORSDOF 10
ENDMDL
MODEL 9
REMARK VINA RESULT:      -7.2      3.960     10.189
REMARK  Name = 
REMARK  12 active torsions:
REMARK  status: ('A' for Active; 'I' for Inactive)
REMARK    1  A    between atoms: C_1  and  O_2
REMARK    2  A    between atoms: O_2  and  C_3
REMARK    3  A    between atoms: C_10  and  C_11
REMARK    4  A    between atoms: C_11  and  O_12
REMARK    5  A    between atoms: C_11  and  C_13
REMARK    6  A    between atoms: C_13  and  C_14
REMARK    7  A    between atoms: C_14  and  C_15
REMARK    8  A    between atoms: N_18  and  C_19
REMARK    9  A    between atoms: C_21  and  C_22
REMARK   10  A    between atoms: N_25  and  C_26
REMARK   11  A    between atoms: C_30  and  C_31
REMARK   12  A    between atoms: C_31  and  O_33
REMARK                            x       y       z     vdW  Elec       q    Type
REMARK                         _______ _______ _______ _____ _____    ______ ____
ROOT
ATOM      1  C   UNL     1      -0.211   9.653  20.260  0.00  0.00    +0.000 C 
ATOM      2  C   UNL     1      -0.697  10.609  19.151  0.00  0.00    +0.000 C 
ATOM      3  C   UNL     1      -0.178  12.046  19.306  0.00  0.00    +0.000 C 
ATOM      4  N   UNL     1      -0.486  12.684  20.605  0.00  0.00    +0.000 NA
ATOM      5  C   UNL     1      -0.160  11.786  21.740  0.00  0.00    +0.000 C 
ATOM      6  C   UNL     1      -0.629  10.314  21.594  0.00  0.00    +0.000 C 
ENDROOT
BRANCH   4   7
ATOM      7  C   UNL     1       0.321  13.950  20.677  0.00  0.00    +0.000 C 
ATOM      8  C   UNL     1       1.811  13.602  20.904  0.00  0.00    +0.000 C 
ATOM      9  C   UNL     1       2.222  14.408  19.643  0.00  0.00    +0.000 C 
ATOM     10  C   UNL     1       0.714  14.531  19.307  0.00  0.00    +0.000 C 
BRANCH   9  11
ATOM     11  C   UNL     1       2.968  15.719  19.940  0.00  0.00    +0.000 A 
ATOM     12  C   UNL     1       2.314  16.870  20.445  0.00  0.00    +0.000 A 
ATOM     13  C   UNL     1       3.305  17.813  20.584  0.00  0.00    +0.000 A 
ATOM     14  N   UNL     1       4.456  17.202  20.177  0.00  0.00    +0.000 N 
ATOM     15  C   UNL     1       5.776  17.785  20.160  0.00  0.00    +0.000 C 
ATOM     16  N   UNL     1       4.275  15.929  19.771  0.00  0.00    +0.000 NA
ENDBRANCH   9  11
ENDBRANCH   4   7
BRANCH   6  17
ATOM     17  C   UNL     1      -0.248   9.527  22.835  0.00  0.00    +0.000 C 
ATOM     18  O   UNL     1       0.617   9.859  23.632  0.00  0.00    +0.000 OA
BRANCH  17  19
ATOM     19  O   UNL     1      -0.944   8.375  22.984  0.00  0.00    +0.000 OA
ATOM     20  H   UNL     1      -1.492   8.327  23.789  0.00  0.00    +0.000 HD
ENDBRANCH  17  19
ENDBRANCH   6  17
BRANCH   1  21
ATOM     21  C   UNL     1       1.284   9.219  20.068  0.00  0.00    +0.000 C 
BRANCH  21  22
ATOM     22  C   UNL     1       1.538   7.742  20.416  0.00  0.00    +0.000 C 
BRANCH  22  23
ATOM     23  C   UNL     1       2.468   6.889  19.537  0.00  0.00    +0.000 C 
BRANCH  23  31
ATOM     24  C   UNL     1       4.429   3.614  17.007  0.00  0.00    +0.000 A 
ATOM     25  C   UNL     1       4.146   2.310  17.381  0.00  0.00    +0.000 A 
ATOM     26  C   UNL     1       3.211   2.046  18.383  0.00  0.00    +0.000 A 
ATOM     27  C   UNL     1       2.571   3.063  19.063  0.00  0.00    +0.000 A 
ATOM     28  N   UNL     1       1.705   2.675  20.016  0.00  0.00    +0.000 NA
ATOM     29  C   UNL     1       1.087   3.621  20.735  0.00  0.00    +0.000 A 
ATOM     30  C   UNL     1       1.310   4.967  20.557  0.00  0.00    +0.000 A 
ATOM     31  C   UNL     1       2.220   5.398  19.565  0.00  0.00    +0.000 A 
ATOM     32  C   UNL     1       2.859   4.412  18.742  0.00  0.00    +0.000 A 
ATOM     33  C   UNL     1       3.759   4.657  17.656  0.00  0.00    +0.000 A 
BRANCH  24  35
ATOM     34  C   UNL     1       6.598   4.356  16.266  0.00  0.00    +0.000 C 
ATOM     35  O   UNL     1       5.367   3.718  16.022  0.00  0.00    +0.000 OA
ENDBRANCH  24  35
ENDBRANCH  23  31
BRANCH  23  36
ATOM     36  O   UNL     1       2.687   7.413  18.237  0.00  0.00    +0.000 OA
ATOM     37  H   UNL     1       2.336   6.805  17.578  0.00  0.00    +0.000 HD
ENDBRANCH  23  36
ENDBRANCH  22  23
ENDBRANCH  21  22
ENDBRANCH   1  21
TORSDOF 10
ENDMDL
