MODEL 1
REMARK VINA RESULT:      -8.9      0.000      0.000
REMARK  Name = 
REMARK  8 active torsions:
REMARK  status: ('A' for Active; 'I' for Inactive)
REMARK    1  A    between atoms: C_1  and  C_2
REMARK    2  A    between atoms: C_2  and  C_3
REMARK    3  A    between atoms: C_2  and  C_4
REMARK    4  A    between atoms: C_2  and  O_5
REMARK    5  A    between atoms: O_5  and  C_6
REMARK    6  A    between atoms: C_9  and  C_10
REMARK    7  A    between atoms: C_17  and  N_18
REMARK    8  A    between atoms: C_19  and  C_21
REMARK                            x       y       z     vdW  Elec       q    Type
REMARK                         _______ _______ _______ _____ _____    ______ ____
ROOT
ATOM      1  C   UNL     1      -1.701  12.916  21.606  0.00  0.00    +0.000 A 
ATOM      2  C   UNL     1      -1.042  13.865  20.803  0.00  0.00    +0.000 A 
ATOM      3  C   UNL     1       0.099  13.509  20.064  0.00  0.00    +0.000 A 
ATOM      4  C   UNL     1       0.612  12.240  20.248  0.00  0.00    +0.000 A 
ATOM      5  C   UNL     1       0.210  11.476  21.345  0.00  0.00    +0.000 A 
ATOM      6  C   UNL     1      -0.980  11.767  21.980  0.00  0.00    +0.000 A 
ATOM      7  C   UNL     1       0.936  10.167  21.351  0.00  0.00    +0.000 C 
ATOM      8  C   UNL     1       0.850   9.948  19.838  0.00  0.00    +0.000 C 
ATOM      9  C   UNL     1       1.324  11.324  19.257  0.00  0.00    +0.000 C 
ENDROOT
BRANCH   1  13
ATOM     10  C   UNL     1      -4.193  12.363  19.728  0.00  0.00    +0.000 C 
ATOM     11  O   UNL     1      -3.284  11.661  19.307  0.00  0.00    +0.000 OA
ATOM     12  N   UNL     1      -4.254  12.758  21.083  0.00  0.00    +0.000 N 
ATOM     13  C   UNL     1      -3.149  12.971  21.948  0.00  0.00    +0.000 A 
ATOM     14  C   UNL     1      -3.664  13.054  23.234  0.00  0.00    +0.000 A 
ATOM     15  C   UNL     1      -5.061  12.911  23.198  0.00  0.00    +0.000 A 
ATOM     16  C   UNL     1      -6.031  12.835  24.217  0.00  0.00    +0.000 A 
ATOM     17  C   UNL     1      -7.373  12.678  23.878  0.00  0.00    +0.000 A 
ATOM     18  C   UNL     1      -7.748  12.598  22.544  0.00  0.00    +0.000 A 
ATOM     19  C   UNL     1      -6.795  12.652  21.517  0.00  0.00    +0.000 A 
ATOM     20  C   UNL     1      -5.434  12.809  21.857  0.00  0.00    +0.000 A 
BRANCH  10  21
ATOM     21  O   UNL     1      -5.227  12.874  18.992  0.00  0.00    +0.000 OA
BRANCH  21  23
ATOM     22  C   UNL     1      -6.378  10.710  18.633  0.00  0.00    +0.000 C 
ATOM     23  C   UNL     1      -5.868  12.013  18.000  0.00  0.00    +0.000 C 
ATOM     24  C   UNL     1      -4.931  11.741  16.812  0.00  0.00    +0.000 C 
ATOM     25  C   UNL     1      -7.091  12.776  17.461  0.00  0.00    +0.000 C 
ENDBRANCH  21  23
ENDBRANCH  10  21
ENDBRANCH   1  13
BRANCH   8  26
ATOM     26  N   UNL     1       1.393   8.691  19.366  0.00  0.00    +0.000 N 
ATOM     27  C   UNL     1       2.065   8.523  18.184  0.00  0.00    +0.000 C 
ATOM     28  O   UNL     1       2.069   9.355  17.287  0.00  0.00    +0.000 OA
ATOM     29  H   UNL     1       1.431   7.944  20.046  0.00  0.00    +0.000 HD
BRANCH  27  30
ATOM     30  C   UNL     1       2.805   7.234  18.032  0.00  0.00    +0.000 A 
ATOM     31  C   UNL     1       4.037   7.266  17.370  0.00  0.00    +0.000 A 
ATOM     32  C   UNL     1       4.770   6.092  17.190  0.00  0.00    +0.000 A 
ATOM     33  C   UNL     1       4.285   4.883  17.684  0.00  0.00    +0.000 A 
ATOM     34  C   UNL     1       3.070   4.845  18.371  0.00  0.00    +0.000 A 
ATOM     35  C   UNL     1       2.329   6.019  18.551  0.00  0.00    +0.000 A 
ENDBRANCH  27  30
ENDBRANCH   8  26
TORSDOF 5
ENDMDL
MODEL 2
REMARK VINA RESULT:      -8.9      1.728      3.604
REMARK  Name = 
REMARK  8 active torsions:
REMARK  status: ('A' for Active; 'I' for Inactive)
REMARK    1  A    between atoms: C_1  and  C_2
REMARK    2  A    between atoms: C_2  and  C_3
REMARK    3  A    between atoms: C_2  and  C_4
REMARK    4  A    between atoms: C_2  and  O_5
REMARK    5  A    between atoms: O_5  and  C_6
REMARK    6  A    between atoms: C_9  and  C_10
REMARK    7  A    between atoms: C_17  and  N_18
REMARK    8  A    between atoms: C_19  and  C_21
REMARK                            x       y       z     vdW  Elec       q    Type
REMARK                         _______ _______ _______ _____ _____    ______ ____
ROOT
ATOM      1  C   UNL     1      -1.439  12.124  19.515  0.00  0.00    +0.000 A 
ATOM      2  C   UNL     1      -0.616  13.118  18.953  0.00  0.00    +0.000 A 
ATOM      3  C   UNL     1       0.686  12.809  18.522  0.00  0.00    +0.000 A 
ATOM      4  C   UNL     1       1.161  11.537  18.777  0.00  0.00    +0.000 A 
ATOM      5  C   UNL     1       0.505  10.717  19.696  0.00  0.00    +0.000 A 
ATOM      6  C   UNL     1      -0.815  10.966  20.012  0.00  0.00    +0.000 A 
ATOM      7  C   UNL     1       1.232   9.417  19.833  0.00  0.00    +0.000 C 
ATOM      8  C   UNL     1       1.548   9.270  18.341  0.00  0.00    +0.000 C 
ATOM      9  C   UNL     1       2.125  10.677  17.966  0.00  0.00    +0.000 C 
ENDROOT
BRANCH   1  13
ATOM     10  C   UNL     1      -3.443  13.692  21.403  0.00  0.00    +0.000 C 
ATOM     11  O   UNL     1      -2.423  14.366  21.351  0.00  0.00    +0.000 OA
ATOM     12  N   UNL     1      -3.811  12.827  20.349  0.00  0.00    +0.000 N 
ATOM     13  C   UNL     1      -2.927  12.148  19.470  0.00  0.00    +0.000 A 
ATOM     14  C   UNL     1      -3.705  11.659  18.430  0.00  0.00    +0.000 A 
ATOM     15  C   UNL     1      -5.051  12.001  18.638  0.00  0.00    +0.000 A 
ATOM     16  C   UNL     1      -6.205  11.822  17.851  0.00  0.00    +0.000 A 
ATOM     17  C   UNL     1      -7.434  12.284  18.318  0.00  0.00    +0.000 A 
ATOM     18  C   UNL     1      -7.516  12.915  19.552  0.00  0.00    +0.000 A 
ATOM     19  C   UNL     1      -6.375  13.120  20.340  0.00  0.00    +0.000 A 
ATOM     20  C   UNL     1      -5.128  12.655  19.869  0.00  0.00    +0.000 A 
BRANCH  10  21
ATOM     21  O   UNL     1      -4.331  13.650  22.443  0.00  0.00    +0.000 OA
BRANCH  21  23
ATOM     22  C   UNL     1      -2.799  11.997  23.471  0.00  0.00    +0.000 C 
ATOM     23  C   UNL     1      -3.902  13.040  23.701  0.00  0.00    +0.000 C 
ATOM     24  C   UNL     1      -5.096  12.448  24.467  0.00  0.00    +0.000 C 
ATOM     25  C   UNL     1      -3.305  14.163  24.569  0.00  0.00    +0.000 C 
ENDBRANCH  21  23
ENDBRANCH  10  21
ENDBRANCH   1  13
BRANCH   8  26
ATOM     26  N   UNL     1       2.222   8.043  17.972  0.00  0.00    +0.000 N 
ATOM     27  C   UNL     1       2.371   6.955  18.791  0.00  0.00    +0.000 C 
ATOM     28  O   UNL     1       2.168   6.986  19.998  0.00  0.00    +0.000 OA
ATOM     29  H   UNL     1       2.427   7.930  16.989  0.00  0.00    +0.000 HD
BRANCH  27  30
ATOM     30  C   UNL     1       2.817   5.693  18.126  0.00  0.00    +0.000 A 
ATOM     31  C   UNL     1       4.104   5.665  17.580  0.00  0.00    +0.000 A 
ATOM     32  C   UNL     1       4.572   4.518  16.938  0.00  0.00    +0.000 A 
ATOM     33  C   UNL     1       3.764   3.385  16.855  0.00  0.00    +0.000 A 
ATOM     34  C   UNL     1       2.489   3.393  17.422  0.00  0.00    +0.000 A 
ATOM     35  C   UNL     1       2.013   4.544  18.063  0.00  0.00    +0.000 A 
ENDBRANCH  27  30
ENDBRANCH   8  26
TORSDOF 5
ENDMDL
MODEL 3
REMARK VINA RESULT:      -8.9      1.715      3.632
REMARK  Name = 
REMARK  8 active torsions:
REMARK  status: ('A' for Active; 'I' for Inactive)
REMARK    1  A    between atoms: C_1  and  C_2
REMARK    2  A    between atoms: C_2  and  C_3
REMARK    3  A    between atoms: C_2  and  C_4
REMARK    4  A    between atoms: C_2  and  O_5
REMARK    5  A    between atoms: O_5  and  C_6
REMARK    6  A    between atoms: C_9  and  C_10
REMARK    7  A    between atoms: C_17  and  N_18
REMARK    8  A    between atoms: C_19  and  C_21
REMARK                            x       y       z     vdW  Elec       q    Type
REMARK                         _______ _______ _______ _____ _____    ______ ____
ROOT
ATOM      1  C   UNL     1      -1.451  12.233  19.555  0.00  0.00    +0.000 A 
ATOM      2  C   UNL     1      -0.636  13.239  19.004  0.00  0.00    +0.000 A 
ATOM      3  C   UNL     1       0.667  12.946  18.567  0.00  0.00    +0.000 A 
ATOM      4  C   UNL     1       1.153  11.675  18.807  0.00  0.00    +0.000 A 
ATOM      5  C   UNL     1       0.505  10.840  19.719  0.00  0.00    +0.000 A 
ATOM      6  C   UNL     1      -0.816  11.075  20.039  0.00  0.00    +0.000 A 
ATOM      7  C   UNL     1       1.243   9.544  19.840  0.00  0.00    +0.000 C 
ATOM      8  C   UNL     1       1.557   9.416  18.347  0.00  0.00    +0.000 C 
ATOM      9  C   UNL     1       2.123  10.832  17.985  0.00  0.00    +0.000 C 
ENDROOT
BRANCH   1  13
ATOM     10  C   UNL     1      -3.460  13.882  21.368  0.00  0.00    +0.000 C 
ATOM     11  O   UNL     1      -2.444  14.558  21.280  0.00  0.00    +0.000 OA
ATOM     12  N   UNL     1      -3.825  12.963  20.360  0.00  0.00    +0.000 N 
ATOM     13  C   UNL     1      -2.939  12.246  19.513  0.00  0.00    +0.000 A 
ATOM     14  C   UNL     1      -3.715  11.701  18.501  0.00  0.00    +0.000 A 
ATOM     15  C   UNL     1      -5.064  12.045  18.695  0.00  0.00    +0.000 A 
ATOM     16  C   UNL     1      -6.218  11.820  17.921  0.00  0.00    +0.000 A 
ATOM     17  C   UNL     1      -7.449  12.296  18.367  0.00  0.00    +0.000 A 
ATOM     18  C   UNL     1      -7.532  12.988  19.568  0.00  0.00    +0.000 A 
ATOM     19  C   UNL     1      -6.390  13.239  20.343  0.00  0.00    +0.000 A 
ATOM     20  C   UNL     1      -5.142  12.759  19.892  0.00  0.00    +0.000 A 
BRANCH  10  21
ATOM     21  O   UNL     1      -4.345  13.886  22.412  0.00  0.00    +0.000 OA
BRANCH  21  23
ATOM     22  C   UNL     1      -3.399  14.290  24.666  0.00  0.00    +0.000 C 
ATOM     23  C   UNL     1      -3.943  13.257  23.669  0.00  0.00    +0.000 C 
ATOM     24  C   UNL     1      -2.941  12.117  23.424  0.00  0.00    +0.000 C 
ATOM     25  C   UNL     1      -5.209  12.636  24.289  0.00  0.00    +0.000 C 
ENDBRANCH  21  23
ENDBRANCH  10  21
ENDBRANCH   1  13
BRANCH   8  26
ATOM     26  N   UNL     1       2.241   8.198  17.963  0.00  0.00    +0.000 N 
ATOM     27  C   UNL     1       2.438   7.120  18.784  0.00  0.00    +0.000 C 
ATOM     28  O   UNL     1       2.277   7.157  19.997  0.00  0.00    +0.000 OA
ATOM     29  H   UNL     1       2.413   8.081  16.974  0.00  0.00    +0.000 HD
BRANCH  27  30
ATOM     30  C   UNL     1       2.883   5.861  18.113  0.00  0.00    +0.000 A 
ATOM     31  C   UNL     1       2.002   4.774  18.120  0.00  0.00    +0.000 A 
ATOM     32  C   UNL     1       2.365   3.569  17.517  0.00  0.00    +0.000 A 
ATOM     33  C   UNL     1       3.603   3.449  16.888  0.00  0.00    +0.000 A 
ATOM     34  C   UNL     1       4.477   4.536  16.851  0.00  0.00    +0.000 A 
ATOM     35  C   UNL     1       4.119   5.746  17.459  0.00  0.00    +0.000 A 
ENDBRANCH  27  30
ENDBRANCH   8  26
TORSDOF 5
ENDMDL
MODEL 4
REMARK VINA RESULT:      -8.7      2.113      4.446
REMARK  Name = 
REMARK  8 active torsions:
REMARK  status: ('A' for Active; 'I' for Inactive)
REMARK    1  A    between atoms: C_1  and  C_2
REMARK    2  A    between atoms: C_2  and  C_3
REMARK    3  A    between atoms: C_2  and  C_4
REMARK    4  A    between atoms: C_2  and  O_5
REMARK    5  A    between atoms: O_5  and  C_6
REMARK    6  A    between atoms: C_9  and  C_10
REMARK    7  A    between atoms: C_17  and  N_18
REMARK    8  A    between atoms: C_19  and  C_21
REMARK                            x       y       z     vdW  Elec       q    Type
REMARK                         _______ _______ _______ _____ _____    ______ ____
ROOT
ATOM      1  C   UNL     1      -0.316  10.918  19.018  0.00  0.00    +0.000 A 
ATOM      2  C   UNL     1       0.658  11.618  18.282  0.00  0.00    +0.000 A 
ATOM      3  C   UNL     1       1.858  10.991  17.906  0.00  0.00    +0.000 A 
ATOM      4  C   UNL     1       2.092   9.716  18.384  0.00  0.00    +0.000 A 
ATOM      5  C   UNL     1       1.330   9.214  19.440  0.00  0.00    +0.000 A 
ATOM      6  C   UNL     1       0.095   9.767  19.713  0.00  0.00    +0.000 A 
ATOM      7  C   UNL     1       1.801   7.842  19.805  0.00  0.00    +0.000 C 
ATOM      8  C   UNL     1       2.022   7.376  18.363  0.00  0.00    +0.000 C 
ATOM      9  C   UNL     1       2.841   8.556  17.736  0.00  0.00    +0.000 C 
ENDROOT
BRANCH   1  13
ATOM     10  C   UNL     1      -1.940  13.013  20.756  0.00  0.00    +0.000 C 
ATOM     11  O   UNL     1      -0.812  13.470  20.634  0.00  0.00    +0.000 OA
ATOM     12  N   UNL     1      -2.490  12.140  19.792  0.00  0.00    +0.000 N 
ATOM     13  C   UNL     1      -1.773  11.224  18.978  0.00  0.00    +0.000 A 
ATOM     14  C   UNL     1      -2.653  10.798  17.993  0.00  0.00    +0.000 A 
ATOM     15  C   UNL     1      -3.904  11.411  18.173  0.00  0.00    +0.000 A 
ATOM     16  C   UNL     1      -5.089  11.383  17.413  0.00  0.00    +0.000 A 
ATOM     17  C   UNL     1      -6.196  12.114  17.838  0.00  0.00    +0.000 A 
ATOM     18  C   UNL     1      -6.128  12.862  19.006  0.00  0.00    +0.000 A 
ATOM     19  C   UNL     1      -4.951  12.917  19.766  0.00  0.00    +0.000 A 
ATOM     20  C   UNL     1      -3.827  12.179  19.336  0.00  0.00    +0.000 A 
BRANCH  10  21
ATOM     21  O   UNL     1      -2.796  13.240  21.799  0.00  0.00    +0.000 OA
BRANCH  21  23
ATOM     22  C   UNL     1      -1.616  13.868  23.885  0.00  0.00    +0.000 C 
ATOM     23  C   UNL     1      -2.404  12.786  23.132  0.00  0.00    +0.000 C 
ATOM     24  C   UNL     1      -1.629  11.460  23.062  0.00  0.00    +0.000 C 
ATOM     25  C   UNL     1      -3.701  12.524  23.920  0.00  0.00    +0.000 C 
ENDBRANCH  21  23
ENDBRANCH  10  21
ENDBRANCH   1  13
BRANCH   8  26
ATOM     26  N   UNL     1       2.435   5.996  18.218  0.00  0.00    +0.000 N 
ATOM     27  C   UNL     1       3.554   5.449  18.788  0.00  0.00    +0.000 C 
ATOM     28  O   UNL     1       4.454   6.117  19.279  0.00  0.00    +0.000 OA
ATOM     29  H   UNL     1       1.748   5.369  17.822  0.00  0.00    +0.000 HD
BRANCH  27  30
ATOM     30  C   UNL     1       3.632   3.957  18.774  0.00  0.00    +0.000 A 
ATOM     31  C   UNL     1       2.898   3.277  17.795  0.00  0.00    +0.000 A 
ATOM     32  C   UNL     1       2.925   1.883  17.737  0.00  0.00    +0.000 A 
ATOM     33  C   UNL     1       3.698   1.161  18.644  0.00  0.00    +0.000 A 
ATOM     34  C   UNL     1       4.456   1.832  19.606  0.00  0.00    +0.000 A 
ATOM     35  C   UNL     1       4.429   3.230  19.671  0.00  0.00    +0.000 A 
ENDBRANCH  27  30
ENDBRANCH   8  26
TORSDOF 5
ENDMDL
MODEL 5
REMARK VINA RESULT:      -8.6      2.070      4.330
REMARK  Name = 
REMARK  8 active torsions:
REMARK  status: ('A' for Active; 'I' for Inactive)
REMARK    1  A    between atoms: C_1  and  C_2
REMARK    2  A    between atoms: C_2  and  C_3
REMARK    3  A    between atoms: C_2  and  C_4
REMARK    4  A    between atoms: C_2  and  O_5
REMARK    5  A    between atoms: O_5  and  C_6
REMARK    6  A    between atoms: C_9  and  C_10
REMARK    7  A    between atoms: C_17  and  N_18
REMARK    8  A    between atoms: C_19  and  C_21
REMARK                            x       y       z     vdW  Elec       q    Type
REMARK                         _______ _______ _______ _____ _____    ______ ____
ROOT
ATOM      1  C   UNL     1      -0.468  11.074  19.147  0.00  0.00    +0.000 A 
ATOM      2  C   UNL     1       0.518  11.806  18.460  0.00  0.00    +0.000 A 
ATOM      3  C   UNL     1       1.724  11.195  18.075  0.00  0.00    +0.000 A 
ATOM      4  C   UNL     1       1.950   9.899  18.497  0.00  0.00    +0.000 A 
ATOM      5  C   UNL     1       1.170   9.350  19.516  0.00  0.00    +0.000 A 
ATOM      6  C   UNL     1      -0.069   9.891  19.794  0.00  0.00    +0.000 A 
ATOM      7  C   UNL     1       1.634   7.962  19.825  0.00  0.00    +0.000 C 
ATOM      8  C   UNL     1       1.878   7.563  18.366  0.00  0.00    +0.000 C 
ATOM      9  C   UNL     1       2.709   8.769  17.808  0.00  0.00    +0.000 C 
ENDROOT
BRANCH   1  13
ATOM     10  C   UNL     1      -2.102  13.159  20.887  0.00  0.00    +0.000 C 
ATOM     11  O   UNL     1      -0.972  13.615  20.778  0.00  0.00    +0.000 OA
ATOM     12  N   UNL     1      -2.646  12.295  19.912  0.00  0.00    +0.000 N 
ATOM     13  C   UNL     1      -1.924  11.384  19.097  0.00  0.00    +0.000 A 
ATOM     14  C   UNL     1      -2.797  10.967  18.102  0.00  0.00    +0.000 A 
ATOM     15  C   UNL     1      -4.048  11.581  18.276  0.00  0.00    +0.000 A 
ATOM     16  C   UNL     1      -5.226  11.562  17.506  0.00  0.00    +0.000 A 
ATOM     17  C   UNL     1      -6.335  12.292  17.928  0.00  0.00    +0.000 A 
ATOM     18  C   UNL     1      -6.275  13.032  19.102  0.00  0.00    +0.000 A 
ATOM     19  C   UNL     1      -5.104  13.078  19.872  0.00  0.00    +0.000 A 
ATOM     20  C   UNL     1      -3.978  12.341  19.445  0.00  0.00    +0.000 A 
BRANCH  10  21
ATOM     21  O   UNL     1      -2.965  13.380  21.925  0.00  0.00    +0.000 OA
BRANCH  21  23
ATOM     22  C   UNL     1      -1.759  11.578  23.123  0.00  0.00    +0.000 C 
ATOM     23  C   UNL     1      -2.626  12.841  23.240  0.00  0.00    +0.000 C 
ATOM     24  C   UNL     1      -3.888  12.591  24.081  0.00  0.00    +0.000 C 
ATOM     25  C   UNL     1      -1.789  13.911  23.966  0.00  0.00    +0.000 C 
ENDBRANCH  21  23
ENDBRANCH  10  21
ENDBRANCH   1  13
BRANCH   8  26
ATOM     26  N   UNL     1       2.292   6.190  18.164  0.00  0.00    +0.000 N 
ATOM     27  C   UNL     1       3.358   5.595  18.784  0.00  0.00    +0.000 C 
ATOM     28  O   UNL     1       4.221   6.218  19.389  0.00  0.00    +0.000 OA
ATOM     29  H   UNL     1       1.635   5.599  17.673  0.00  0.00    +0.000 HD
BRANCH  27  30
ATOM     30  C   UNL     1       3.427   4.106  18.677  0.00  0.00    +0.000 A 
ATOM     31  C   UNL     1       4.199   3.422  19.622  0.00  0.00    +0.000 A 
ATOM     32  C   UNL     1       4.308   2.031  19.569  0.00  0.00    +0.000 A 
ATOM     33  C   UNL     1       3.633   1.315  18.582  0.00  0.00    +0.000 A 
ATOM     34  C   UNL     1       2.838   1.987  17.651  0.00  0.00    +0.000 A 
ATOM     35  C   UNL     1       2.729   3.382  17.699  0.00  0.00    +0.000 A 
ENDBRANCH  27  30
ENDBRANCH   8  26
TORSDOF 5
ENDMDL
MODEL 6
REMARK VINA RESULT:      -8.6      2.715     10.527
REMARK  Name = 
REMARK  8 active torsions:
REMARK  status: ('A' for Active; 'I' for Inactive)
REMARK    1  A    between atoms: C_1  and  C_2
REMARK    2  A    between atoms: C_2  and  C_3
REMARK    3  A    between atoms: C_2  and  C_4
REMARK    4  A    between atoms: C_2  and  O_5
REMARK    5  A    between atoms: O_5  and  C_6
REMARK    6  A    between atoms: C_9  and  C_10
REMARK    7  A    between atoms: C_17  and  N_18
REMARK    8  A    between atoms: C_19  and  C_21
REMARK                            x       y       z     vdW  Elec       q    Type
REMARK                         _______ _______ _______ _____ _____    ______ ____
ROOT
ATOM      1  C   UNL     1       2.028   7.374  19.763  0.00  0.00    +0.000 A 
ATOM      2  C   UNL     1       2.098   7.724  21.124  0.00  0.00    +0.000 A 
ATOM      3  C   UNL     1       1.419   8.856  21.608  0.00  0.00    +0.000 A 
ATOM      4  C   UNL     1       0.787   9.667  20.685  0.00  0.00    +0.000 A 
ATOM      5  C   UNL     1       1.084   9.544  19.327  0.00  0.00    +0.000 A 
ATOM      6  C   UNL     1       1.638   8.373  18.853  0.00  0.00    +0.000 A 
ATOM      7  C   UNL     1       0.313  10.557  18.541  0.00  0.00    +0.000 C 
ATOM      8  C   UNL     1      -0.982  10.408  19.344  0.00  0.00    +0.000 C 
ATOM      9  C   UNL     1      -0.486  10.495  20.828  0.00  0.00    +0.000 C 
ENDROOT
BRANCH   1  13
ATOM     10  C   UNL     1       4.429   6.143  18.100  0.00  0.00    +0.000 C 
ATOM     11  O   UNL     1       4.914   7.013  18.809  0.00  0.00    +0.000 OA
ATOM     12  N   UNL     1       3.249   5.461  18.471  0.00  0.00    +0.000 N 
ATOM     13  C   UNL     1       2.183   5.985  19.248  0.00  0.00    +0.000 A 
ATOM     14  C   UNL     1       1.390   4.905  19.610  0.00  0.00    +0.000 A 
ATOM     15  C   UNL     1       1.922   3.721  19.073  0.00  0.00    +0.000 A 
ATOM     16  C   UNL     1       1.553   2.370  19.213  0.00  0.00    +0.000 A 
ATOM     17  C   UNL     1       2.287   1.385  18.556  0.00  0.00    +0.000 A 
ATOM     18  C   UNL     1       3.375   1.738  17.769  0.00  0.00    +0.000 A 
ATOM     19  C   UNL     1       3.770   3.077  17.634  0.00  0.00    +0.000 A 
ATOM     20  C   UNL     1       3.028   4.076  18.300  0.00  0.00    +0.000 A 
BRANCH  10  21
ATOM     21  O   UNL     1       4.908   5.728  16.888  0.00  0.00    +0.000 OA
BRANCH  21  23
ATOM     22  C   UNL     1       6.923   4.568  17.746  0.00  0.00    +0.000 C 
ATOM     23  C   UNL     1       6.352   5.567  16.728  0.00  0.00    +0.000 C 
ATOM     24  C   UNL     1       7.073   6.923  16.793  0.00  0.00    +0.000 C 
ATOM     25  C   UNL     1       6.590   4.983  15.323  0.00  0.00    +0.000 C 
ENDBRANCH  21  23
ENDBRANCH  10  21
ENDBRANCH   1  13
BRANCH   8  26
ATOM     26  N   UNL     1      -2.099  11.194  18.863  0.00  0.00    +0.000 N 
ATOM     27  C   UNL     1      -3.196  10.685  18.220  0.00  0.00    +0.000 C 
ATOM     28  O   UNL     1      -3.244   9.549  17.766  0.00  0.00    +0.000 OA
ATOM     29  H   UNL     1      -2.142  12.149  19.193  0.00  0.00    +0.000 HD
BRANCH  27  30
ATOM     30  C   UNL     1      -4.362  11.609  18.086  0.00  0.00    +0.000 A 
ATOM     31  C   UNL     1      -4.812  12.261  19.239  0.00  0.00    +0.000 A 
ATOM     32  C   UNL     1      -5.902  13.130  19.177  0.00  0.00    +0.000 A 
ATOM     33  C   UNL     1      -6.539  13.366  17.960  0.00  0.00    +0.000 A 
ATOM     34  C   UNL     1      -6.080  12.742  16.799  0.00  0.00    +0.000 A 
ATOM     35  C   UNL     1      -4.989  11.866  16.856  0.00  0.00    +0.000 A 
ENDBRANCH  27  30
ENDBRANCH   8  26
TORSDOF 5
ENDMDL
MODEL 7
REMARK VINA RESULT:      -8.6      1.910      3.982
REMARK  Name = 
REMARK  8 active torsions:
REMARK  status: ('A' for Active; 'I' for Inactive)
REMARK    1  A    between atoms: C_1  and  C_2
REMARK    2  A    between atoms: C_2  and  C_3
REMARK    3  A    between atoms: C_2  and  C_4
REMARK    4  A    between atoms: C_2  and  O_5
REMARK    5  A    between atoms: O_5  and  C_6
REMARK    6  A    between atoms: C_9  and  C_10
REMARK    7  A    between atoms: C_17  and  N_18
REMARK    8  A    between atoms: C_19  and  C_21
REMARK                            x       y       z     vdW  Elec       q    Type
REMARK                         _______ _______ _______ _____ _____    ______ ____
ROOT
ATOM      1  C   UNL     1      -1.009  11.631  19.275  0.00  0.00    +0.000 A 
ATOM      2  C   UNL     1      -0.124  12.454  18.554  0.00  0.00    +0.000 A 
ATOM      3  C   UNL     1       1.146  11.983  18.180  0.00  0.00    +0.000 A 
ATOM      4  C   UNL     1       1.532  10.740  18.644  0.00  0.00    +0.000 A 
ATOM      5  C   UNL     1       0.831  10.136  19.688  0.00  0.00    +0.000 A 
ATOM      6  C   UNL     1      -0.463  10.530  19.959  0.00  0.00    +0.000 A 
ATOM      7  C   UNL     1       1.465   8.827  20.040  0.00  0.00    +0.000 C 
ATOM      8  C   UNL     1       1.749   8.411  18.594  0.00  0.00    +0.000 C 
ATOM      9  C   UNL     1       2.421   9.689  17.987  0.00  0.00    +0.000 C 
ENDROOT
BRANCH   1  13
ATOM     10  C   UNL     1      -2.888  13.471  21.044  0.00  0.00    +0.000 C 
ATOM     11  O   UNL     1      -1.824  14.066  20.942  0.00  0.00    +0.000 OA
ATOM     12  N   UNL     1      -3.321  12.559  20.056  0.00  0.00    +0.000 N 
ATOM     13  C   UNL     1      -2.492  11.757  19.229  0.00  0.00    +0.000 A 
ATOM     14  C   UNL     1      -3.307  11.248  18.228  0.00  0.00    +0.000 A 
ATOM     15  C   UNL     1      -4.625  11.699  18.410  0.00  0.00    +0.000 A 
ATOM     16  C   UNL     1      -5.793  11.544  17.639  0.00  0.00    +0.000 A 
ATOM     17  C   UNL     1      -6.984  12.123  18.070  0.00  0.00    +0.000 A 
ATOM     18  C   UNL     1      -7.015  12.848  19.254  0.00  0.00    +0.000 A 
ATOM     19  C   UNL     1      -5.858  13.030  20.025  0.00  0.00    +0.000 A 
ATOM     20  C   UNL     1      -4.650  12.445  19.589  0.00  0.00    +0.000 A 
BRANCH  10  21
ATOM     21  O   UNL     1      -3.772  13.568  22.084  0.00  0.00    +0.000 OA
BRANCH  21  23
ATOM     22  C   UNL     1      -2.602  14.224  24.167  0.00  0.00    +0.000 C 
ATOM     23  C   UNL     1      -3.343  13.114  23.406  0.00  0.00    +0.000 C 
ATOM     24  C   UNL     1      -2.504  11.830  23.308  0.00  0.00    +0.000 C 
ATOM     25  C   UNL     1      -4.616  12.776  24.204  0.00  0.00    +0.000 C 
ENDBRANCH  21  23
ENDBRANCH  10  21
ENDBRANCH   1  13
BRANCH   8  26
ATOM     26  N   UNL     1       2.328   7.093  18.436  0.00  0.00    +0.000 N 
ATOM     27  C   UNL     1       2.185   6.062  19.327  0.00  0.00    +0.000 C 
ATOM     28  O   UNL     1       1.760   6.210  20.465  0.00  0.00    +0.000 OA
ATOM     29  H   UNL     1       2.703   6.882  17.521  0.00  0.00    +0.000 HD
BRANCH  27  30
ATOM     30  C   UNL     1       2.594   4.712  18.835  0.00  0.00    +0.000 A 
ATOM     31  C   UNL     1       2.064   3.594  19.487  0.00  0.00    +0.000 A 
ATOM     32  C   UNL     1       2.415   2.307  19.078  0.00  0.00    +0.000 A 
ATOM     33  C   UNL     1       3.284   2.129  18.003  0.00  0.00    +0.000 A 
ATOM     34  C   UNL     1       3.796   3.238  17.327  0.00  0.00    +0.000 A 
ATOM     35  C   UNL     1       3.449   4.532  17.737  0.00  0.00    +0.000 A 
ENDBRANCH  27  30
ENDBRANCH   8  26
TORSDOF 5
ENDMDL
MODEL 8
REMARK VINA RESULT:      -8.5      1.992      3.966
REMARK  Name = 
REMARK  8 active torsions:
REMARK  status: ('A' for Active; 'I' for Inactive)
REMARK    1  A    between atoms: C_1  and  C_2
REMARK    2  A    between atoms: C_2  and  C_3
REMARK    3  A    between atoms: C_2  and  C_4
REMARK    4  A    between atoms: C_2  and  O_5
REMARK    5  A    between atoms: O_5  and  C_6
REMARK    6  A    between atoms: C_9  and  C_10
REMARK    7  A    between atoms: C_17  and  N_18
REMARK    8  A    between atoms: C_19  and  C_21
REMARK                            x       y       z     vdW  Elec       q    Type
REMARK                         _______ _______ _______ _____ _____    ______ ____
ROOT
ATOM      1  C   UNL     1      -0.936  11.633  19.269  0.00  0.00    +0.000 A 
ATOM      2  C   UNL     1      -0.048  12.430  18.522  0.00  0.00    +0.000 A 
ATOM      3  C   UNL     1       1.218  11.942  18.157  0.00  0.00    +0.000 A 
ATOM      4  C   UNL     1       1.599  10.711  18.655  0.00  0.00    +0.000 A 
ATOM      5  C   UNL     1       0.898  10.140  19.718  0.00  0.00    +0.000 A 
ATOM      6  C   UNL     1      -0.393  10.549  19.982  0.00  0.00    +0.000 A 
ATOM      7  C   UNL     1       1.526   8.839  20.105  0.00  0.00    +0.000 C 
ATOM      8  C   UNL     1       1.803   8.379  18.671  0.00  0.00    +0.000 C 
ATOM      9  C   UNL     1       2.480   9.637  18.025  0.00  0.00    +0.000 C 
ENDROOT
BRANCH   1  13
ATOM     10  C   UNL     1      -2.803  13.499  21.022  0.00  0.00    +0.000 C 
ATOM     11  O   UNL     1      -1.736  14.087  20.913  0.00  0.00    +0.000 OA
ATOM     12  N   UNL     1      -3.242  12.579  20.044  0.00  0.00    +0.000 N 
ATOM     13  C   UNL     1      -2.418  11.765  19.223  0.00  0.00    +0.000 A 
ATOM     14  C   UNL     1      -3.237  11.251  18.229  0.00  0.00    +0.000 A 
ATOM     15  C   UNL     1      -4.553  11.709  18.408  0.00  0.00    +0.000 A 
ATOM     16  C   UNL     1      -5.722  11.552  17.640  0.00  0.00    +0.000 A 
ATOM     17  C   UNL     1      -6.910  12.142  18.068  0.00  0.00    +0.000 A 
ATOM     18  C   UNL     1      -6.936  12.878  19.245  0.00  0.00    +0.000 A 
ATOM     19  C   UNL     1      -5.777  13.062  20.013  0.00  0.00    +0.000 A 
ATOM     20  C   UNL     1      -4.572  12.467  19.580  0.00  0.00    +0.000 A 
BRANCH  10  21
ATOM     21  O   UNL     1      -3.684  13.610  22.063  0.00  0.00    +0.000 OA
BRANCH  21  23
ATOM     22  C   UNL     1      -2.412  11.799  23.177  0.00  0.00    +0.000 C 
ATOM     23  C   UNL     1      -3.316  13.028  23.352  0.00  0.00    +0.000 C 
ATOM     24  C   UNL     1      -4.561  12.705  24.193  0.00  0.00    +0.000 C 
ATOM     25  C   UNL     1      -2.506  14.094  24.114  0.00  0.00    +0.000 C 
ENDBRANCH  21  23
ENDBRANCH  10  21
ENDBRANCH   1  13
BRANCH   8  26
ATOM     26  N   UNL     1       2.375   7.054  18.548  0.00  0.00    +0.000 N 
ATOM     27  C   UNL     1       2.198   6.039  19.450  0.00  0.00    +0.000 C 
ATOM     28  O   UNL     1       1.743   6.207  20.573  0.00  0.00    +0.000 OA
ATOM     29  H   UNL     1       2.772   6.827  17.647  0.00  0.00    +0.000 HD
BRANCH  27  30
ATOM     30  C   UNL     1       2.608   4.678  18.989  0.00  0.00    +0.000 A 
ATOM     31  C   UNL     1       2.080   4.214  17.780  0.00  0.00    +0.000 A 
ATOM     32  C   UNL     1       2.420   2.947  17.302  0.00  0.00    +0.000 A 
ATOM     33  C   UNL     1       3.303   2.144  18.022  0.00  0.00    +0.000 A 
ATOM     34  C   UNL     1       3.857   2.609  19.215  0.00  0.00    +0.000 A 
ATOM     35  C   UNL     1       3.516   3.878  19.700  0.00  0.00    +0.000 A 
ENDBRANCH  27  30
ENDBRANCH   8  26
TORSDOF 5
ENDMDL
MODEL 9
REMARK VINA RESULT:      -8.4      2.689     10.471
REMARK  Name = 
REMARK  8 active torsions:
REMARK  status: ('A' for Active; 'I' for Inactive)
REMARK    1  A    between atoms: C_1  and  C_2
REMARK    2  A    between atoms: C_2  and  C_3
REMARK    3  A    between atoms: C_2  and  C_4
REMARK    4  A    between atoms: C_2  and  O_5
REMARK    5  A    between atoms: O_5  and  C_6
REMARK    6  A    between atoms: C_9  and  C_10
REMARK    7  A    between atoms: C_17  and  N_18
REMARK    8  A    between atoms: C_19  and  C_21
REMARK                            x       y       z     vdW  Elec       q    Type
REMARK                         _______ _______ _______ _____ _____    ______ ____
ROOT
ATOM      1  C   UNL     1       1.983   7.423  19.828  0.00  0.00    +0.000 A 
ATOM      2  C   UNL     1       2.079   7.781  21.185  0.00  0.00    +0.000 A 
ATOM      3  C   UNL     1       1.418   8.922  21.672  0.00  0.00    +0.000 A 
ATOM      4  C   UNL     1       0.777   9.732  20.755  0.00  0.00    +0.000 A 
ATOM      5  C   UNL     1       1.050   9.598  19.393  0.00  0.00    +0.000 A 
ATOM      6  C   UNL     1       1.585   8.419  18.918  0.00  0.00    +0.000 A 
ATOM      7  C   UNL     1       0.273  10.612  18.613  0.00  0.00    +0.000 C 
ATOM      8  C   UNL     1      -1.009  10.479  19.440  0.00  0.00    +0.000 C 
ATOM      9  C   UNL     1      -0.486  10.572  20.914  0.00  0.00    +0.000 C 
ENDROOT
BRANCH   1  13
ATOM     10  C   UNL     1       4.334   6.166  18.114  0.00  0.00    +0.000 C 
ATOM     11  O   UNL     1       4.841   7.039  18.803  0.00  0.00    +0.000 OA
ATOM     12  N   UNL     1       3.160   5.494  18.520  0.00  0.00    +0.000 N 
ATOM     13  C   UNL     1       2.117   6.029  19.320  0.00  0.00    +0.000 A 
ATOM     14  C   UNL     1       1.328   4.956  19.711  0.00  0.00    +0.000 A 
ATOM     15  C   UNL     1       1.840   3.765  19.169  0.00  0.00    +0.000 A 
ATOM     16  C   UNL     1       1.467   2.417  19.329  0.00  0.00    +0.000 A 
ATOM     17  C   UNL     1       2.180   1.423  18.662  0.00  0.00    +0.000 A 
ATOM     18  C   UNL     1       3.249   1.765  17.844  0.00  0.00    +0.000 A 
ATOM     19  C   UNL     1       3.647   3.100  17.688  0.00  0.00    +0.000 A 
ATOM     20  C   UNL     1       2.928   4.109  18.365  0.00  0.00    +0.000 A 
BRANCH  10  21
ATOM     21  O   UNL     1       4.779   5.739  16.892  0.00  0.00    +0.000 OA
BRANCH  21  23
ATOM     22  C   UNL     1       7.009   6.816  16.804  0.00  0.00    +0.000 C 
ATOM     23  C   UNL     1       6.212   5.506  16.717  0.00  0.00    +0.000 C 
ATOM     24  C   UNL     1       6.495   4.751  15.408  0.00  0.00    +0.000 C 
ATOM     25  C   UNL     1       6.670   4.606  17.880  0.00  0.00    +0.000 C 
ENDBRANCH  21  23
ENDBRANCH  10  21
ENDBRANCH   1  13
BRANCH   8  26
ATOM     26  N   UNL     1      -2.128  11.271  18.973  0.00  0.00    +0.000 N 
ATOM     27  C   UNL     1      -3.201  10.778  18.280  0.00  0.00    +0.000 C 
ATOM     28  O   UNL     1      -3.221   9.666  17.769  0.00  0.00    +0.000 OA
ATOM     29  H   UNL     1      -2.193  12.207  19.349  0.00  0.00    +0.000 HD
BRANCH  27  30
ATOM     30  C   UNL     1      -4.379  11.690  18.165  0.00  0.00    +0.000 A 
ATOM     31  C   UNL     1      -4.948  11.861  16.898  0.00  0.00    +0.000 A 
ATOM     32  C   UNL     1      -6.044  12.707  16.727  0.00  0.00    +0.000 A 
ATOM     33  C   UNL     1      -6.590  13.373  17.823  0.00  0.00    +0.000 A 
ATOM     34  C   UNL     1      -6.048  13.187  19.095  0.00  0.00    +0.000 A 
ATOM     35  C   UNL     1      -4.944  12.343  19.272  0.00  0.00    +0.000 A 
ENDBRANCH  27  30
ENDBRANCH   8  26
TORSDOF 5
ENDMDL
