MODEL 1
REMARK VINA RESULT:      -7.7      0.000      0.000
REMARK  Name = 
REMARK  7 active torsions:
REMARK  status: ('A' for Active; 'I' for Inactive)
REMARK    1  A    between atoms: C_1  and  C_2
REMARK    2  A    between atoms: C_4  and  C_5
REMARK    3  A    between atoms: C_8  and  S_9
REMARK    4  A    between atoms: S_9  and  C_10
REMARK    5  A    between atoms: C_10  and  C_11
REMARK    6  A    between atoms: N_13  and  C_14
REMARK    7  A    between atoms: N_21  and  C_22
REMARK                            x       y       z     vdW  Elec       q    Type
REMARK                         _______ _______ _______ _____ _____    ______ ____
ROOT
ATOM      1  S   UNL     1       2.958   2.468  20.549  0.00  0.00    +0.000 S 
ENDROOT
BRANCH   1   5
ATOM      2  C   UNL     1       5.234   4.160  17.926  0.00  0.00    +0.000 A 
ATOM      3  N   UNL     1       5.884   4.466  19.036  0.00  0.00    +0.000 NA
ATOM      4  N   UNL     1       5.186   3.940  20.099  0.00  0.00    +0.000 NA
ATOM      5  C   UNL     1       4.165   3.275  19.616  0.00  0.00    +0.000 A 
ATOM      6  N   UNL     1       4.141   3.385  18.253  0.00  0.00    +0.000 N 
ATOM      7  C   UNL     1       3.170   2.859  17.330  0.00  0.00    +0.000 C 
BRANCH   2  11
ATOM      8  C   UNL     1       7.369   4.947  13.358  0.00  0.00    +0.000 C 
ATOM      9  C   UNL     1       6.611   4.913  14.621  0.00  0.00    +0.000 A 
ATOM     10  C   UNL     1       6.559   4.060  15.697  0.00  0.00    +0.000 A 
ATOM     11  C   UNL     1       5.620   4.655  16.571  0.00  0.00    +0.000 A 
ATOM     12  N   UNL     1       5.122   5.783  16.046  0.00  0.00    +0.000 NA
ATOM     13  O   UNL     1       5.754   5.947  14.830  0.00  0.00    +0.000 OA
ENDBRANCH   2  11
ENDBRANCH   1   5
BRANCH   1  14
ATOM     14  C   UNL     1       2.269   3.851  21.508  0.00  0.00    +0.000 C 
BRANCH  14  15
ATOM     15  C   UNL     1       1.780   4.945  20.577  0.00  0.00    +0.000 C 
ATOM     16  O   UNL     1       0.886   4.734  19.760  0.00  0.00    +0.000 OA
ATOM     17  N   UNL     1       2.497   6.133  20.687  0.00  0.00    +0.000 N 
ATOM     18  H   UNL     1       3.458   6.022  21.003  0.00  0.00    +0.000 HD
BRANCH  17  19
ATOM     19  C   UNL     1       2.242   7.216  19.813  0.00  0.00    +0.000 A 
ATOM     20  C   UNL     1       2.812   7.149  18.536  0.00  0.00    +0.000 A 
ATOM     21  C   UNL     1       2.538   8.139  17.589  0.00  0.00    +0.000 A 
ATOM     22  C   UNL     1       1.733   9.226  17.927  0.00  0.00    +0.000 A 
ATOM     23  C   UNL     1       1.212   9.332  19.218  0.00  0.00    +0.000 A 
ATOM     24  C   UNL     1       1.466   8.334  20.163  0.00  0.00    +0.000 A 
ATOM     25 CL   UNL     1       0.920   8.617  21.781  0.00  0.00    +0.000 Cl
ENDBRANCH  17  19
ENDBRANCH  14  15
ENDBRANCH   1  14
TORSDOF 5
ENDMDL
MODEL 2
REMARK VINA RESULT:      -7.5      3.207      4.784
REMARK  Name = 
REMARK  7 active torsions:
REMARK  status: ('A' for Active; 'I' for Inactive)
REMARK    1  A    between atoms: C_1  and  C_2
REMARK    2  A    between atoms: C_4  and  C_5
REMARK    3  A    between atoms: C_8  and  S_9
REMARK    4  A    between atoms: S_9  and  C_10
REMARK    5  A    between atoms: C_10  and  C_11
REMARK    6  A    between atoms: N_13  and  C_14
REMARK    7  A    between atoms: N_21  and  C_22
REMARK                            x       y       z     vdW  Elec       q    Type
REMARK                         _______ _______ _______ _____ _____    ______ ____
ROOT
ATOM      1  S   UNL     1       7.338   5.270  17.392  0.00  0.00    +0.000 S 
ENDROOT
BRANCH   1   5
ATOM      2  C   UNL     1       6.551   4.253  13.749  0.00  0.00    +0.000 A 
ATOM      3  N   UNL     1       7.498   5.152  13.545  0.00  0.00    +0.000 NA
ATOM      4  N   UNL     1       7.895   5.642  14.768  0.00  0.00    +0.000 NA
ATOM      5  C   UNL     1       7.230   4.992  15.692  0.00  0.00    +0.000 A 
ATOM      6  N   UNL     1       6.364   4.110  15.108  0.00  0.00    +0.000 N 
ATOM      7  C   UNL     1       5.411   3.238  15.743  0.00  0.00    +0.000 C 
BRANCH   2  11
ATOM      8  C   UNL     1       3.114   2.825  10.257  0.00  0.00    +0.000 C 
ATOM      9  C   UNL     1       4.239   3.046  11.183  0.00  0.00    +0.000 A 
ATOM     10  C   UNL     1       4.565   4.021  12.095  0.00  0.00    +0.000 A 
ATOM     11  C   UNL     1       5.788   3.583  12.654  0.00  0.00    +0.000 A 
ATOM     12  N   UNL     1       6.185   2.430  12.099  0.00  0.00    +0.000 NA
ATOM     13  O   UNL     1       5.206   2.091  11.186  0.00  0.00    +0.000 OA
ENDBRANCH   2  11
ENDBRANCH   1   5
BRANCH   1  14
ATOM     14  C   UNL     1       5.801   6.196  17.696  0.00  0.00    +0.000 C 
BRANCH  14  15
ATOM     15  C   UNL     1       4.835   5.357  18.512  0.00  0.00    +0.000 C 
ATOM     16  O   UNL     1       5.224   4.677  19.460  0.00  0.00    +0.000 OA
ATOM     17  N   UNL     1       3.532   5.371  18.022  0.00  0.00    +0.000 N 
ATOM     18  H   UNL     1       3.455   5.542  17.022  0.00  0.00    +0.000 HD
BRANCH  17  19
ATOM     19  C   UNL     1       2.532   4.555  18.601  0.00  0.00    +0.000 A 
ATOM     20  C   UNL     1       2.241   3.350  17.950  0.00  0.00    +0.000 A 
ATOM     21  C   UNL     1       1.326   2.452  18.505  0.00  0.00    +0.000 A 
ATOM     22  C   UNL     1       0.660   2.774  19.687  0.00  0.00    +0.000 A 
ATOM     23  C   UNL     1       0.898   4.000  20.308  0.00  0.00    +0.000 A 
ATOM     24  C   UNL     1       1.829   4.894  19.769  0.00  0.00    +0.000 A 
ATOM     25 CL   UNL     1       1.949   6.455  20.507  0.00  0.00    +0.000 Cl
ENDBRANCH  17  19
ENDBRANCH  14  15
ENDBRANCH   1  14
TORSDOF 5
ENDMDL
MODEL 3
REMARK VINA RESULT:      -7.4      1.232      1.592
REMARK  Name = 
REMARK  7 active torsions:
REMARK  status: ('A' for Active; 'I' for Inactive)
REMARK    1  A    between atoms: C_1  and  C_2
REMARK    2  A    between atoms: C_4  and  C_5
REMARK    3  A    between atoms: C_8  and  S_9
REMARK    4  A    between atoms: S_9  and  C_10
REMARK    5  A    between atoms: C_10  and  C_11
REMARK    6  A    between atoms: N_13  and  C_14
REMARK    7  A    between atoms: N_21  and  C_22
REMARK                            x       y       z     vdW  Elec       q    Type
REMARK                         _______ _______ _______ _____ _____    ______ ____
ROOT
ATOM      1  S   UNL     1       2.945   2.869  20.300  0.00  0.00    +0.000 S 
ENDROOT
BRANCH   1   5
ATOM      2  C   UNL     1       5.436   4.078  17.606  0.00  0.00    +0.000 A 
ATOM      3  N   UNL     1       6.175   4.219  18.693  0.00  0.00    +0.000 NA
ATOM      4  N   UNL     1       5.419   3.837  19.778  0.00  0.00    +0.000 NA
ATOM      5  C   UNL     1       4.263   3.415  19.328  0.00  0.00    +0.000 A 
ATOM      6  N   UNL     1       4.215   3.550  17.969  0.00  0.00    +0.000 N 
ATOM      7  C   UNL     1       3.121   3.260  17.079  0.00  0.00    +0.000 C 
BRANCH   2  11
ATOM      8  C   UNL     1       6.909   4.325  12.726  0.00  0.00    +0.000 C 
ATOM      9  C   UNL     1       6.504   4.499  14.132  0.00  0.00    +0.000 A 
ATOM     10  C   UNL     1       6.032   3.662  15.115  0.00  0.00    +0.000 A 
ATOM     11  C   UNL     1       5.871   4.502  16.242  0.00  0.00    +0.000 A 
ATOM     12  N   UNL     1       6.201   5.767  15.951  0.00  0.00    +0.000 NA
ATOM     13  O   UNL     1       6.609   5.759  14.632  0.00  0.00    +0.000 OA
ENDBRANCH   2  11
ENDBRANCH   1   5
BRANCH   1  14
ATOM     14  C   UNL     1       2.581   4.363  21.273  0.00  0.00    +0.000 C 
BRANCH  14  15
ATOM     15  C   UNL     1       1.911   5.408  20.400  0.00  0.00    +0.000 C 
ATOM     16  O   UNL     1       1.132   5.087  19.504  0.00  0.00    +0.000 OA
ATOM     17  N   UNL     1       2.336   6.708  20.659  0.00  0.00    +0.000 N 
ATOM     18  H   UNL     1       3.278   6.780  21.036  0.00  0.00    +0.000 HD
BRANCH  17  19
ATOM     19  C   UNL     1       1.892   7.787  19.860  0.00  0.00    +0.000 A 
ATOM     20  C   UNL     1       0.915   8.626  20.411  0.00  0.00    +0.000 A 
ATOM     21  C   UNL     1       0.486   9.760  19.718  0.00  0.00    +0.000 A 
ATOM     22  C   UNL     1       0.994  10.038  18.450  0.00  0.00    +0.000 A 
ATOM     23  C   UNL     1       1.922   9.173  17.867  0.00  0.00    +0.000 A 
ATOM     24  C   UNL     1       2.371   8.048  18.565  0.00  0.00    +0.000 A 
ATOM     25 CL   UNL     1       3.396   6.943  17.714  0.00  0.00    +0.000 Cl
ENDBRANCH  17  19
ENDBRANCH  14  15
ENDBRANCH   1  14
TORSDOF 5
ENDMDL
MODEL 4
REMARK VINA RESULT:      -7.0      1.115      1.593
REMARK  Name = 
REMARK  7 active torsions:
REMARK  status: ('A' for Active; 'I' for Inactive)
REMARK    1  A    between atoms: C_1  and  C_2
REMARK    2  A    between atoms: C_4  and  C_5
REMARK    3  A    between atoms: C_8  and  S_9
REMARK    4  A    between atoms: S_9  and  C_10
REMARK    5  A    between atoms: C_10  and  C_11
REMARK    6  A    between atoms: N_13  and  C_14
REMARK    7  A    between atoms: N_21  and  C_22
REMARK                            x       y       z     vdW  Elec       q    Type
REMARK                         _______ _______ _______ _____ _____    ______ ____
ROOT
ATOM      1  S   UNL     1       2.165   2.559  20.229  0.00  0.00    +0.000 S 
ENDROOT
BRANCH   1   5
ATOM      2  C   UNL     1       4.127   3.863  17.168  0.00  0.00    +0.000 A 
ATOM      3  N   UNL     1       2.928   3.710  16.633  0.00  0.00    +0.000 NA
ATOM      4  N   UNL     1       2.084   3.226  17.606  0.00  0.00    +0.000 NA
ATOM      5  C   UNL     1       2.765   3.152  18.724  0.00  0.00    +0.000 A 
ATOM      6  N   UNL     1       4.060   3.533  18.505  0.00  0.00    +0.000 N 
ATOM      7  C   UNL     1       5.156   3.552  19.437  0.00  0.00    +0.000 C 
BRANCH   2  11
ATOM      8  C   UNL     1       7.539   5.043  13.560  0.00  0.00    +0.000 C 
ATOM      9  C   UNL     1       6.737   4.746  14.760  0.00  0.00    +0.000 A 
ATOM     10  C   UNL     1       5.413   4.465  14.995  0.00  0.00    +0.000 A 
ATOM     11  C   UNL     1       5.341   4.260  16.393  0.00  0.00    +0.000 A 
ATOM     12  N   UNL     1       6.539   4.429  16.966  0.00  0.00    +0.000 NA
ATOM     13  O   UNL     1       7.414   4.722  15.939  0.00  0.00    +0.000 OA
ENDBRANCH   2  11
ENDBRANCH   1   5
BRANCH   1  14
ATOM     14  C   UNL     1       2.367   4.023  21.291  0.00  0.00    +0.000 C 
BRANCH  14  15
ATOM     15  C   UNL     1       1.709   5.231  20.651  0.00  0.00    +0.000 C 
ATOM     16  O   UNL     1       0.527   5.211  20.315  0.00  0.00    +0.000 OA
ATOM     17  N   UNL     1       2.589   6.284  20.413  0.00  0.00    +0.000 N 
ATOM     18  H   UNL     1       3.558   6.007  20.276  0.00  0.00    +0.000 HD
BRANCH  17  19
ATOM     19  C   UNL     1       2.161   7.442  19.723  0.00  0.00    +0.000 A 
ATOM     20  C   UNL     1       2.497   7.533  18.366  0.00  0.00    +0.000 A 
ATOM     21  C   UNL     1       2.039   8.606  17.597  0.00  0.00    +0.000 A 
ATOM     22  C   UNL     1       1.286   9.618  18.188  0.00  0.00    +0.000 A 
ATOM     23  C   UNL     1       1.000   9.567  19.553  0.00  0.00    +0.000 A 
ATOM     24  C   UNL     1       1.436   8.486  20.324  0.00  0.00    +0.000 A 
ATOM     25 CL   UNL     1       1.180   8.575  22.033  0.00  0.00    +0.000 Cl
ENDBRANCH  17  19
ENDBRANCH  14  15
ENDBRANCH   1  14
TORSDOF 5
ENDMDL
MODEL 5
REMARK VINA RESULT:      -7.0      3.343      4.912
REMARK  Name = 
REMARK  7 active torsions:
REMARK  status: ('A' for Active; 'I' for Inactive)
REMARK    1  A    between atoms: C_1  and  C_2
REMARK    2  A    between atoms: C_4  and  C_5
REMARK    3  A    between atoms: C_8  and  S_9
REMARK    4  A    between atoms: S_9  and  C_10
REMARK    5  A    between atoms: C_10  and  C_11
REMARK    6  A    between atoms: N_13  and  C_14
REMARK    7  A    between atoms: N_21  and  C_22
REMARK                            x       y       z     vdW  Elec       q    Type
REMARK                         _______ _______ _______ _____ _____    ______ ____
ROOT
ATOM      1  S   UNL     1       6.930   5.397  17.746  0.00  0.00    +0.000 S 
ENDROOT
BRANCH   1   5
ATOM      2  C   UNL     1       6.468   4.335  14.061  0.00  0.00    +0.000 A 
ATOM      3  N   UNL     1       7.465   5.194  13.936  0.00  0.00    +0.000 NA
ATOM      4  N   UNL     1       7.758   5.693  15.185  0.00  0.00    +0.000 NA
ATOM      5  C   UNL     1       6.980   5.088  16.049  0.00  0.00    +0.000 A 
ATOM      6  N   UNL     1       6.142   4.227  15.397  0.00  0.00    +0.000 N 
ATOM      7  C   UNL     1       5.098   3.405  15.949  0.00  0.00    +0.000 C 
BRANCH   2  11
ATOM      8  C   UNL     1       3.290   2.904  10.332  0.00  0.00    +0.000 C 
ATOM      9  C   UNL     1       4.349   3.131  11.331  0.00  0.00    +0.000 A 
ATOM     10  C   UNL     1       4.595   4.093  12.282  0.00  0.00    +0.000 A 
ATOM     11  C   UNL     1       5.790   3.671  12.907  0.00  0.00    +0.000 A 
ATOM     12  N   UNL     1       6.249   2.540  12.355  0.00  0.00    +0.000 NA
ATOM     13  O   UNL     1       5.337   2.199  11.375  0.00  0.00    +0.000 OA
ENDBRANCH   2  11
ENDBRANCH   1   5
BRANCH   1  14
ATOM     14  C   UNL     1       5.577   6.609  17.845  0.00  0.00    +0.000 C 
BRANCH  14  15
ATOM     15  C   UNL     1       4.273   5.914  18.190  0.00  0.00    +0.000 C 
ATOM     16  O   UNL     1       3.221   6.220  17.634  0.00  0.00    +0.000 OA
ATOM     17  N   UNL     1       4.388   4.998  19.232  0.00  0.00    +0.000 N 
ATOM     18  H   UNL     1       5.136   5.196  19.892  0.00  0.00    +0.000 HD
BRANCH  17  19
ATOM     19  C   UNL     1       3.246   4.344  19.751  0.00  0.00    +0.000 A 
ATOM     20  C   UNL     1       2.192   5.157  20.186  0.00  0.00    +0.000 A 
ATOM     21  C   UNL     1       0.999   4.585  20.633  0.00  0.00    +0.000 A 
ATOM     22  C   UNL     1       0.868   3.199  20.694  0.00  0.00    +0.000 A 
ATOM     23  C   UNL     1       1.936   2.382  20.322  0.00  0.00    +0.000 A 
ATOM     24  C   UNL     1       3.126   2.948  19.854  0.00  0.00    +0.000 A 
ATOM     25 CL   UNL     1       4.454   1.877  19.565  0.00  0.00    +0.000 Cl
ENDBRANCH  17  19
ENDBRANCH  14  15
ENDBRANCH   1  14
TORSDOF 5
ENDMDL
MODEL 6
REMARK VINA RESULT:      -6.9      3.585      5.146
REMARK  Name = 
REMARK  7 active torsions:
REMARK  status: ('A' for Active; 'I' for Inactive)
REMARK    1  A    between atoms: C_1  and  C_2
REMARK    2  A    between atoms: C_4  and  C_5
REMARK    3  A    between atoms: C_8  and  S_9
REMARK    4  A    between atoms: S_9  and  C_10
REMARK    5  A    between atoms: C_10  and  C_11
REMARK    6  A    between atoms: N_13  and  C_14
REMARK    7  A    between atoms: N_21  and  C_22
REMARK                            x       y       z     vdW  Elec       q    Type
REMARK                         _______ _______ _______ _____ _____    ______ ____
ROOT
ATOM      1  S   UNL     1       7.445   4.886  17.362  0.00  0.00    +0.000 S 
ENDROOT
BRANCH   1   5
ATOM      2  C   UNL     1       6.500   4.172  13.685  0.00  0.00    +0.000 A 
ATOM      3  N   UNL     1       7.384   5.141  13.518  0.00  0.00    +0.000 NA
ATOM      4  N   UNL     1       7.826   5.536  14.761  0.00  0.00    +0.000 NA
ATOM      5  C   UNL     1       7.252   4.763  15.651  0.00  0.00    +0.000 A 
ATOM      6  N   UNL     1       6.402   3.891  15.031  0.00  0.00    +0.000 N 
ATOM      7  C   UNL     1       5.536   2.908  15.629  0.00  0.00    +0.000 C 
BRANCH   2  11
ATOM      8  C   UNL     1       3.003   2.974  10.166  0.00  0.00    +0.000 C 
ATOM      9  C   UNL     1       4.138   3.128  11.093  0.00  0.00    +0.000 A 
ATOM     10  C   UNL     1       4.500   4.060  12.035  0.00  0.00    +0.000 A 
ATOM     11  C   UNL     1       5.711   3.564  12.572  0.00  0.00    +0.000 A 
ATOM     12  N   UNL     1       6.068   2.419  11.976  0.00  0.00    +0.000 NA
ATOM     13  O   UNL     1       5.074   2.143  11.058  0.00  0.00    +0.000 OA
ENDBRANCH   2  11
ENDBRANCH   1   5
BRANCH   1  14
ATOM     14  C   UNL     1       6.002   5.901  17.808  0.00  0.00    +0.000 C 
BRANCH  14  15
ATOM     15  C   UNL     1       5.080   5.126  18.731  0.00  0.00    +0.000 C 
ATOM     16  O   UNL     1       5.521   4.485  19.683  0.00  0.00    +0.000 OA
ATOM     17  N   UNL     1       3.746   5.147  18.333  0.00  0.00    +0.000 N 
ATOM     18  H   UNL     1       3.602   5.270  17.334  0.00  0.00    +0.000 HD
BRANCH  17  19
ATOM     19  C   UNL     1       2.774   4.384  19.021  0.00  0.00    +0.000 A 
ATOM     20  C   UNL     1       1.993   5.057  19.970  0.00  0.00    +0.000 A 
ATOM     21  C   UNL     1       0.958   4.391  20.630  0.00  0.00    +0.000 A 
ATOM     22  C   UNL     1       0.726   3.039  20.383  0.00  0.00    +0.000 A 
ATOM     23  C   UNL     1       1.539   2.346  19.485  0.00  0.00    +0.000 A 
ATOM     24  C   UNL     1       2.564   3.011  18.805  0.00  0.00    +0.000 A 
ATOM     25 CL   UNL     1       3.626   2.050  17.834  0.00  0.00    +0.000 Cl
ENDBRANCH  17  19
ENDBRANCH  14  15
ENDBRANCH   1  14
TORSDOF 5
ENDMDL
MODEL 7
REMARK VINA RESULT:      -6.7      1.008      1.467
REMARK  Name = 
REMARK  7 active torsions:
REMARK  status: ('A' for Active; 'I' for Inactive)
REMARK    1  A    between atoms: C_1  and  C_2
REMARK    2  A    between atoms: C_4  and  C_5
REMARK    3  A    between atoms: C_8  and  S_9
REMARK    4  A    between atoms: S_9  and  C_10
REMARK    5  A    between atoms: C_10  and  C_11
REMARK    6  A    between atoms: N_13  and  C_14
REMARK    7  A    between atoms: N_21  and  C_22
REMARK                            x       y       z     vdW  Elec       q    Type
REMARK                         _______ _______ _______ _____ _____    ______ ____
ROOT
ATOM      1  S   UNL     1       3.823   3.083  20.744  0.00  0.00    +0.000 S 
ENDROOT
BRANCH   1   5
ATOM      2  C   UNL     1       5.124   3.764  17.171  0.00  0.00    +0.000 A 
ATOM      3  N   UNL     1       4.266   2.788  16.928  0.00  0.00    +0.000 NA
ATOM      4  N   UNL     1       3.706   2.403  18.126  0.00  0.00    +0.000 NA
ATOM      5  C   UNL     1       4.184   3.189  19.059  0.00  0.00    +0.000 A 
ATOM      6  N   UNL     1       5.087   4.060  18.517  0.00  0.00    +0.000 N 
ATOM      7  C   UNL     1       5.884   5.054  19.186  0.00  0.00    +0.000 C 
BRANCH   2  11
ATOM      8  C   UNL     1       7.516   5.123  12.872  0.00  0.00    +0.000 C 
ATOM      9  C   UNL     1       6.985   4.881  14.225  0.00  0.00    +0.000 A 
ATOM     10  C   UNL     1       5.909   4.195  14.735  0.00  0.00    +0.000 A 
ATOM     11  C   UNL     1       6.017   4.365  16.135  0.00  0.00    +0.000 A 
ATOM     12  N   UNL     1       7.076   5.123  16.448  0.00  0.00    +0.000 NA
ATOM     13  O   UNL     1       7.687   5.435  15.249  0.00  0.00    +0.000 OA
ENDBRANCH   2  11
ENDBRANCH   1   5
BRANCH   1  14
ATOM     14  C   UNL     1       2.047   3.479  20.751  0.00  0.00    +0.000 C 
BRANCH  14  15
ATOM     15  C   UNL     1       1.773   4.679  19.865  0.00  0.00    +0.000 C 
ATOM     16  O   UNL     1       1.227   4.553  18.771  0.00  0.00    +0.000 OA
ATOM     17  N   UNL     1       2.276   5.874  20.373  0.00  0.00    +0.000 N 
ATOM     18  H   UNL     1       3.085   5.771  20.980  0.00  0.00    +0.000 HD
BRANCH  17  19
ATOM     19  C   UNL     1       2.202   7.069  19.619  0.00  0.00    +0.000 A 
ATOM     20  C   UNL     1       2.817   7.064  18.360  0.00  0.00    +0.000 A 
ATOM     21  C   UNL     1       2.716   8.178  17.523  0.00  0.00    +0.000 A 
ATOM     22  C   UNL     1       2.042   9.319  17.955  0.00  0.00    +0.000 A 
ATOM     23  C   UNL     1       1.480   9.354  19.232  0.00  0.00    +0.000 A 
ATOM     24  C   UNL     1       1.560   8.235  20.067  0.00  0.00    +0.000 A 
ATOM     25 CL   UNL     1       0.981   8.413  21.689  0.00  0.00    +0.000 Cl
ENDBRANCH  17  19
ENDBRANCH  14  15
ENDBRANCH   1  14
TORSDOF 5
ENDMDL
MODEL 8
REMARK VINA RESULT:      -6.6      6.107      7.286
REMARK  Name = 
REMARK  7 active torsions:
REMARK  status: ('A' for Active; 'I' for Inactive)
REMARK    1  A    between atoms: C_1  and  C_2
REMARK    2  A    between atoms: C_4  and  C_5
REMARK    3  A    between atoms: C_8  and  S_9
REMARK    4  A    between atoms: S_9  and  C_10
REMARK    5  A    between atoms: C_10  and  C_11
REMARK    6  A    between atoms: N_13  and  C_14
REMARK    7  A    between atoms: N_21  and  C_22
REMARK                            x       y       z     vdW  Elec       q    Type
REMARK                         _______ _______ _______ _____ _____    ______ ____
ROOT
ATOM      1  S   UNL     1       7.474   7.760  17.448  0.00  0.00    +0.000 S 
ENDROOT
BRANCH   1   5
ATOM      2  C   UNL     1       5.255   4.737  18.375  0.00  0.00    +0.000 A 
ATOM      3  N   UNL     1       6.395   4.376  18.939  0.00  0.00    +0.000 NA
ATOM      4  N   UNL     1       7.327   5.359  18.689  0.00  0.00    +0.000 NA
ATOM      5  C   UNL     1       6.724   6.321  18.034  0.00  0.00    +0.000 A 
ATOM      6  N   UNL     1       5.420   5.981  17.802  0.00  0.00    +0.000 N 
ATOM      7  C   UNL     1       4.419   6.718  17.076  0.00  0.00    +0.000 C 
BRANCH   2  11
ATOM      8  C   UNL     1       0.708   2.537  19.100  0.00  0.00    +0.000 C 
ATOM      9  C   UNL     1       2.056   2.996  18.722  0.00  0.00    +0.000 A 
ATOM     10  C   UNL     1       2.835   4.082  19.043  0.00  0.00    +0.000 A 
ATOM     11  C   UNL     1       4.038   3.873  18.329  0.00  0.00    +0.000 A 
ATOM     12  N   UNL     1       3.979   2.748  17.606  0.00  0.00    +0.000 NA
ATOM     13  O   UNL     1       2.740   2.195  17.864  0.00  0.00    +0.000 OA
ENDBRANCH   2  11
ENDBRANCH   1   5
BRANCH   1  14
ATOM     14  C   UNL     1       8.579   8.174  18.833  0.00  0.00    +0.000 C 
BRANCH  14  15
ATOM     15  C   UNL     1       8.921   9.652  18.810  0.00  0.00    +0.000 C 
ATOM     16  O   UNL     1       8.578  10.371  17.873  0.00  0.00    +0.000 OA
ATOM     17  N   UNL     1       9.714  10.058  19.879  0.00  0.00    +0.000 N 
ATOM     18  H   UNL     1      10.305   9.328  20.271  0.00  0.00    +0.000 HD
BRANCH  17  19
ATOM     19  C   UNL     1      10.214  11.379  19.949  0.00  0.00    +0.000 A 
ATOM     20  C   UNL     1      11.306  11.690  19.129  0.00  0.00    +0.000 A 
ATOM     21  C   UNL     1      11.802  12.995  19.080  0.00  0.00    +0.000 A 
ATOM     22  C   UNL     1      11.243  13.986  19.885  0.00  0.00    +0.000 A 
ATOM     23  C   UNL     1      10.195  13.670  20.752  0.00  0.00    +0.000 A 
ATOM     24  C   UNL     1       9.680  12.371  20.790  0.00  0.00    +0.000 A 
ATOM     25 CL   UNL     1       8.494  12.023  22.001  0.00  0.00    +0.000 Cl
ENDBRANCH  17  19
ENDBRANCH  14  15
ENDBRANCH   1  14
TORSDOF 5
ENDMDL
MODEL 9
REMARK VINA RESULT:      -6.6      1.470      2.147
REMARK  Name = 
REMARK  7 active torsions:
REMARK  status: ('A' for Active; 'I' for Inactive)
REMARK    1  A    between atoms: C_1  and  C_2
REMARK    2  A    between atoms: C_4  and  C_5
REMARK    3  A    between atoms: C_8  and  S_9
REMARK    4  A    between atoms: S_9  and  C_10
REMARK    5  A    between atoms: C_10  and  C_11
REMARK    6  A    between atoms: N_13  and  C_14
REMARK    7  A    between atoms: N_21  and  C_22
REMARK                            x       y       z     vdW  Elec       q    Type
REMARK                         _______ _______ _______ _____ _____    ______ ____
ROOT
ATOM      1  S   UNL     1       2.436   2.415  19.956  0.00  0.00    +0.000 S 
ENDROOT
BRANCH   1   5
ATOM      2  C   UNL     1       4.178   3.975  16.882  0.00  0.00    +0.000 A 
ATOM      3  N   UNL     1       3.003   3.668  16.358  0.00  0.00    +0.000 NA
ATOM      4  N   UNL     1       2.240   3.074  17.337  0.00  0.00    +0.000 NA
ATOM      5  C   UNL     1       2.937   3.086  18.447  0.00  0.00    +0.000 A 
ATOM      6  N   UNL     1       4.168   3.635  18.218  0.00  0.00    +0.000 N 
ATOM      7  C   UNL     1       5.262   3.794  19.139  0.00  0.00    +0.000 C 
BRANCH   2  11
ATOM      8  C   UNL     1       7.737   5.035  13.380  0.00  0.00    +0.000 C 
ATOM      9  C   UNL     1       6.816   4.906  14.524  0.00  0.00    +0.000 A 
ATOM     10  C   UNL     1       5.671   4.187  14.770  0.00  0.00    +0.000 A 
ATOM     11  C   UNL     1       5.321   4.530  16.097  0.00  0.00    +0.000 A 
ATOM     12  N   UNL     1       6.185   5.416  16.609  0.00  0.00    +0.000 NA
ATOM     13  O   UNL     1       7.128   5.640  15.625  0.00  0.00    +0.000 OA
ENDBRANCH   2  11
ENDBRANCH   1   5
BRANCH   1  14
ATOM     14  C   UNL     1       2.750   3.807  21.085  0.00  0.00    +0.000 C 
BRANCH  14  15
ATOM     15  C   UNL     1       1.892   4.998  20.703  0.00  0.00    +0.000 C 
ATOM     16  O   UNL     1       0.700   4.864  20.434  0.00  0.00    +0.000 OA
ATOM     17  N   UNL     1       2.603   6.190  20.604  0.00  0.00    +0.000 N 
ATOM     18  H   UNL     1       3.587   6.080  20.368  0.00  0.00    +0.000 HD
BRANCH  17  19
ATOM     19  C   UNL     1       1.974   7.373  20.151  0.00  0.00    +0.000 A 
ATOM     20  C   UNL     1       1.089   8.001  21.036  0.00  0.00    +0.000 A 
ATOM     21  C   UNL     1       0.493   9.217  20.693  0.00  0.00    +0.000 A 
ATOM     22  C   UNL     1       0.738   9.788  19.446  0.00  0.00    +0.000 A 
ATOM     23  C   UNL     1       1.570   9.138  18.534  0.00  0.00    +0.000 A 
ATOM     24  C   UNL     1       2.187   7.931  18.879  0.00  0.00    +0.000 A 
ATOM     25 CL   UNL     1       3.071   7.109  17.639  0.00  0.00    +0.000 Cl
ENDBRANCH  17  19
ENDBRANCH  14  15
ENDBRANCH   1  14
TORSDOF 5
ENDMDL
