MODEL 1
REMARK VINA RESULT:      -5.1      0.000      0.000
REMARK  Name = 
REMARK  30 active torsions:
REMARK  status: ('A' for Active; 'I' for Inactive)
REMARK    1  A    between atoms: C_1  and  C_2
REMARK    2  A    between atoms: C_2  and  C_3
REMARK    3  A    between atoms: C_3  and  C_4
REMARK    4  A    between atoms: C_4  and  C_5
REMARK    5  A    between atoms: C_5  and  C_6
REMARK    6  A    between atoms: C_6  and  C_7
REMARK    7  A    between atoms: C_7  and  C_8
REMARK    8  A    between atoms: C_8  and  C_9
REMARK    9  A    between atoms: C_9  and  C_10
REMARK   10  A    between atoms: C_10  and  C_11
REMARK   11  A    between atoms: C_11  and  C_12
REMARK   12  A    between atoms: C_12  and  C_13
REMARK   13  A    between atoms: C_13  and  C_14
REMARK   14  A    between atoms: C_14  and  C_15
REMARK   15  A    between atoms: C_15  and  C_16
REMARK   16  A    between atoms: C_16  and  O_17
REMARK   17  A    between atoms: O_17  and  C_18
REMARK   18  A    between atoms: C_18  and  C_19
REMARK   19  A    between atoms: C_19  and  C_20
REMARK   20  A    between atoms: C_19  and  O_32
REMARK   21  A    between atoms: C_20  and  O_21
REMARK   22  A    between atoms: O_21  and  P_22
REMARK   23  A    between atoms: P_22  and  O_25
REMARK   24  A    between atoms: O_25  and  C_26
REMARK   25  A    between atoms: C_26  and  C_27
REMARK   26  A    between atoms: C_27  and  N_28
REMARK   27  A    between atoms: N_28  and  C_29
REMARK   28  A    between atoms: N_28  and  C_30
REMARK   29  A    between atoms: N_28  and  C_31
REMARK   30  A    between atoms: O_32  and  C_33
REMARK                            x       y       z     vdW  Elec       q    Type
REMARK                         _______ _______ _______ _____ _____    ______ ____
ROOT
ATOM      1  O   UNL     1       1.820   9.314  19.017  0.00  0.00    +0.000 OA
ENDROOT
BRANCH   1   2
ATOM      2  C   UNL     1       1.170  10.563  18.930  0.00  0.00    +0.000 C 
BRANCH   2   3
ATOM      3  C   UNL     1      -0.357  10.433  18.861  0.00  0.00    +0.000 C 
BRANCH   3   4
ATOM      4  O   UNL     1      -0.755  11.593  18.144  0.00  0.00    +0.000 OA
ATOM      5  C   UNL     1      -2.158  11.740  18.027  0.00  0.00    +0.000 C 
ENDBRANCH   3   4
BRANCH   3   6
ATOM      6  C   UNL     1      -0.968  10.360  20.286  0.00  0.00    +0.000 C 
BRANCH   6   7
ATOM      7  O   UNL     1      -0.244  11.108  21.270  0.00  0.00    +0.000 OA
BRANCH   7   8
ATOM      8  P   UNL     1      -0.799  12.574  21.737  0.00  0.00    +0.000 P 
ATOM      9  O   UNL     1      -0.620  12.677  23.222  0.00  0.00    +0.000 OA
ATOM     10  O   UNL     1      -0.269  13.610  20.766  0.00  0.00    +0.000 OA
BRANCH   8  11
ATOM     11  O   UNL     1      -2.376  12.461  21.413  0.00  0.00    +0.000 OA
BRANCH  11  12
ATOM     12  C   UNL     1      -3.227  13.161  22.305  0.00  0.00    +0.000 C 
BRANCH  12  13
ATOM     13  C   UNL     1      -4.731  12.826  22.208  0.00  0.00    +0.000 C 
BRANCH  13  14
ATOM     14  N   UNL     1      -5.667  13.717  23.082  0.00  0.00    +0.000 N 
ATOM     15  C   UNL     1      -6.435  12.792  24.042  0.00  0.00    +0.000 C 
ATOM     16  C   UNL     1      -4.892  14.735  23.849  0.00  0.00    +0.000 C 
ATOM     17  C   UNL     1      -6.666  14.377  22.173  0.00  0.00    +0.000 C 
ENDBRANCH  13  14
ENDBRANCH  12  13
ENDBRANCH  11  12
ENDBRANCH   8  11
ENDBRANCH   7   8
ENDBRANCH   6   7
ENDBRANCH   3   6
ENDBRANCH   2   3
ENDBRANCH   1   2
BRANCH   1  18
ATOM     18  C   UNL     1       2.143   8.835  17.723  0.00  0.00    +0.000 C 
BRANCH  18  19
ATOM     19  C   UNL     1       2.963   7.581  17.868  0.00  0.00    +0.000 C 
BRANCH  19  20
ATOM     20  C   UNL     1       2.240   6.557  18.726  0.00  0.00    +0.000 C 
BRANCH  20  21
ATOM     21  C   UNL     1       3.196   5.877  19.705  0.00  0.00    +0.000 C 
BRANCH  21  22
ATOM     22  C   UNL     1       2.420   5.185  20.799  0.00  0.00    +0.000 C 
BRANCH  22  23
ATOM     23  C   UNL     1       1.095   4.664  20.233  0.00  0.00    +0.000 C 
BRANCH  23  24
ATOM     24  C   UNL     1       0.996   3.161  20.430  0.00  0.00    +0.000 C 
BRANCH  24  25
ATOM     25  C   UNL     1       1.152   2.437  19.103  0.00  0.00    +0.000 C 
BRANCH  25  26
ATOM     26  C   UNL     1       2.573   1.917  18.949  0.00  0.00    +0.000 C 
BRANCH  26  27
ATOM     27  C   UNL     1       3.017   2.001  17.497  0.00  0.00    +0.000 C 
BRANCH  27  28
ATOM     28  C   UNL     1       3.235   3.452  17.092  0.00  0.00    +0.000 C 
BRANCH  28  29
ATOM     29  C   UNL     1       4.716   3.800  17.141  0.00  0.00    +0.000 C 
BRANCH  29  30
ATOM     30  C   UNL     1       5.155   4.467  15.842  0.00  0.00    +0.000 C 
BRANCH  30  31
ATOM     31  C   UNL     1       5.671   5.875  16.112  0.00  0.00    +0.000 C 
BRANCH  31  33
ATOM     32  C   UNL     1       7.310   7.127  17.540  0.00  0.00    +0.000 C 
ATOM     33  C   UNL     1       6.340   5.961  17.481  0.00  0.00    +0.000 C 
ENDBRANCH  31  33
ENDBRANCH  30  31
ENDBRANCH  29  30
ENDBRANCH  28  29
ENDBRANCH  27  28
ENDBRANCH  26  27
ENDBRANCH  25  26
ENDBRANCH  24  25
ENDBRANCH  23  24
ENDBRANCH  22  23
ENDBRANCH  21  22
ENDBRANCH  20  21
ENDBRANCH  19  20
ENDBRANCH  18  19
ENDBRANCH   1  18
TORSDOF 25
ENDMDL
MODEL 2
REMARK VINA RESULT:      -5.0      1.946      2.879
REMARK  Name = 
REMARK  30 active torsions:
REMARK  status: ('A' for Active; 'I' for Inactive)
REMARK    1  A    between atoms: C_1  and  C_2
REMARK    2  A    between atoms: C_2  and  C_3
REMARK    3  A    between atoms: C_3  and  C_4
REMARK    4  A    between atoms: C_4  and  C_5
REMARK    5  A    between atoms: C_5  and  C_6
REMARK    6  A    between atoms: C_6  and  C_7
REMARK    7  A    between atoms: C_7  and  C_8
REMARK    8  A    between atoms: C_8  and  C_9
REMARK    9  A    between atoms: C_9  and  C_10
REMARK   10  A    between atoms: C_10  and  C_11
REMARK   11  A    between atoms: C_11  and  C_12
REMARK   12  A    between atoms: C_12  and  C_13
REMARK   13  A    between atoms: C_13  and  C_14
REMARK   14  A    between atoms: C_14  and  C_15
REMARK   15  A    between atoms: C_15  and  C_16
REMARK   16  A    between atoms: C_16  and  O_17
REMARK   17  A    between atoms: O_17  and  C_18
REMARK   18  A    between atoms: C_18  and  C_19
REMARK   19  A    between atoms: C_19  and  C_20
REMARK   20  A    between atoms: C_19  and  O_32
REMARK   21  A    between atoms: C_20  and  O_21
REMARK   22  A    between atoms: O_21  and  P_22
REMARK   23  A    between atoms: P_22  and  O_25
REMARK   24  A    between atoms: O_25  and  C_26
REMARK   25  A    between atoms: C_26  and  C_27
REMARK   26  A    between atoms: C_27  and  N_28
REMARK   27  A    between atoms: N_28  and  C_29
REMARK   28  A    between atoms: N_28  and  C_30
REMARK   29  A    between atoms: N_28  and  C_31
REMARK   30  A    between atoms: O_32  and  C_33
REMARK                            x       y       z     vdW  Elec       q    Type
REMARK                         _______ _______ _______ _____ _____    ______ ____
ROOT
ATOM      1  O   UNL     1       2.320   8.224  18.533  0.00  0.00    +0.000 OA
ENDROOT
BRANCH   1   2
ATOM      2  C   UNL     1       1.510   8.840  19.511  0.00  0.00    +0.000 C 
BRANCH   2   3
ATOM      3  C   UNL     1       0.852  10.131  19.007  0.00  0.00    +0.000 C 
BRANCH   3   4
ATOM      4  O   UNL     1       1.818  10.668  18.116  0.00  0.00    +0.000 OA
ATOM      5  C   UNL     1       2.080  12.045  18.318  0.00  0.00    +0.000 C 
ENDBRANCH   3   4
BRANCH   3   6
ATOM      6  C   UNL     1       0.525  11.079  20.192  0.00  0.00    +0.000 C 
BRANCH   6   7
ATOM      7  O   UNL     1      -0.646  10.709  20.930  0.00  0.00    +0.000 OA
BRANCH   7   8
ATOM      8  P   UNL     1      -0.813  11.208  22.478  0.00  0.00    +0.000 P 
ATOM      9  O   UNL     1      -2.272  11.448  22.726  0.00  0.00    +0.000 OA
ATOM     10  O   UNL     1       0.039  10.314  23.356  0.00  0.00    +0.000 OA
BRANCH   8  11
ATOM     11  O   UNL     1      -0.052  12.632  22.462  0.00  0.00    +0.000 OA
BRANCH  11  12
ATOM     12  C   UNL     1      -0.899  13.768  22.423  0.00  0.00    +0.000 C 
BRANCH  12  13
ATOM     13  C   UNL     1      -1.104  14.506  23.764  0.00  0.00    +0.000 C 
BRANCH  13  14
ATOM     14  N   UNL     1      -2.125  15.685  23.723  0.00  0.00    +0.000 N 
ATOM     15  C   UNL     1      -3.096  15.425  22.559  0.00  0.00    +0.000 C 
ATOM     16  C   UNL     1      -2.874  15.804  25.007  0.00  0.00    +0.000 C 
ATOM     17  C   UNL     1      -1.368  16.948  23.424  0.00  0.00    +0.000 C 
ENDBRANCH  13  14
ENDBRANCH  12  13
ENDBRANCH  11  12
ENDBRANCH   8  11
ENDBRANCH   7   8
ENDBRANCH   6   7
ENDBRANCH   3   6
ENDBRANCH   2   3
ENDBRANCH   1   2
BRANCH   1  18
ATOM     18  C   UNL     1       2.890   7.031  19.044  0.00  0.00    +0.000 C 
BRANCH  18  19
ATOM     19  C   UNL     1       2.006   6.513  20.146  0.00  0.00    +0.000 C 
BRANCH  19  20
ATOM     20  C   UNL     1       2.297   5.049  20.430  0.00  0.00    +0.000 C 
BRANCH  20  21
ATOM     21  C   UNL     1       1.008   4.257  20.640  0.00  0.00    +0.000 C 
BRANCH  21  22
ATOM     22  C   UNL     1       0.923   3.122  19.649  0.00  0.00    +0.000 C 
BRANCH  22  23
ATOM     23  C   UNL     1       1.546   3.559  18.319  0.00  0.00    +0.000 C 
BRANCH  23  24
ATOM     24  C   UNL     1       2.276   2.394  17.674  0.00  0.00    +0.000 C 
BRANCH  24  25
ATOM     25  C   UNL     1       3.638   2.195  18.319  0.00  0.00    +0.000 C 
BRANCH  25  26
ATOM     26  C   UNL     1       4.453   3.477  18.237  0.00  0.00    +0.000 C 
BRANCH  26  27
ATOM     27  C   UNL     1       4.934   3.712  16.814  0.00  0.00    +0.000 C 
BRANCH  27  28
ATOM     28  C   UNL     1       4.576   5.121  16.361  0.00  0.00    +0.000 C 
BRANCH  28  29
ATOM     29  C   UNL     1       5.768   5.778  15.680  0.00  0.00    +0.000 C 
BRANCH  29  30
ATOM     30  C   UNL     1       6.983   5.775  16.601  0.00  0.00    +0.000 C 
BRANCH  30  31
ATOM     31  C   UNL     1       7.074   7.089  17.369  0.00  0.00    +0.000 C 
BRANCH  31  33
ATOM     32  C   UNL     1       7.802   5.758  19.367  0.00  0.00    +0.000 C 
ATOM     33  C   UNL     1       8.075   6.986  18.516  0.00  0.00    +0.000 C 
ENDBRANCH  31  33
ENDBRANCH  30  31
ENDBRANCH  29  30
ENDBRANCH  28  29
ENDBRANCH  27  28
ENDBRANCH  26  27
ENDBRANCH  25  26
ENDBRANCH  24  25
ENDBRANCH  23  24
ENDBRANCH  22  23
ENDBRANCH  21  22
ENDBRANCH  20  21
ENDBRANCH  19  20
ENDBRANCH  18  19
ENDBRANCH   1  18
TORSDOF 25
ENDMDL
MODEL 3
REMARK VINA RESULT:      -4.9      1.655      2.365
REMARK  Name = 
REMARK  30 active torsions:
REMARK  status: ('A' for Active; 'I' for Inactive)
REMARK    1  A    between atoms: C_1  and  C_2
REMARK    2  A    between atoms: C_2  and  C_3
REMARK    3  A    between atoms: C_3  and  C_4
REMARK    4  A    between atoms: C_4  and  C_5
REMARK    5  A    between atoms: C_5  and  C_6
REMARK    6  A    between atoms: C_6  and  C_7
REMARK    7  A    between atoms: C_7  and  C_8
REMARK    8  A    between atoms: C_8  and  C_9
REMARK    9  A    between atoms: C_9  and  C_10
REMARK   10  A    between atoms: C_10  and  C_11
REMARK   11  A    between atoms: C_11  and  C_12
REMARK   12  A    between atoms: C_12  and  C_13
REMARK   13  A    between atoms: C_13  and  C_14
REMARK   14  A    between atoms: C_14  and  C_15
REMARK   15  A    between atoms: C_15  and  C_16
REMARK   16  A    between atoms: C_16  and  O_17
REMARK   17  A    between atoms: O_17  and  C_18
REMARK   18  A    between atoms: C_18  and  C_19
REMARK   19  A    between atoms: C_19  and  C_20
REMARK   20  A    between atoms: C_19  and  O_32
REMARK   21  A    between atoms: C_20  and  O_21
REMARK   22  A    between atoms: O_21  and  P_22
REMARK   23  A    between atoms: P_22  and  O_25
REMARK   24  A    between atoms: O_25  and  C_26
REMARK   25  A    between atoms: C_26  and  C_27
REMARK   26  A    between atoms: C_27  and  N_28
REMARK   27  A    between atoms: N_28  and  C_29
REMARK   28  A    between atoms: N_28  and  C_30
REMARK   29  A    between atoms: N_28  and  C_31
REMARK   30  A    between atoms: O_32  and  C_33
REMARK                            x       y       z     vdW  Elec       q    Type
REMARK                         _______ _______ _______ _____ _____    ______ ____
ROOT
ATOM      1  O   UNL     1       2.494   9.439  17.698  0.00  0.00    +0.000 OA
ENDROOT
BRANCH   1   2
ATOM      2  C   UNL     1       1.700  10.570  17.981  0.00  0.00    +0.000 C 
BRANCH   2   3
ATOM      3  C   UNL     1       0.538  10.255  18.933  0.00  0.00    +0.000 C 
BRANCH   3   4
ATOM      4  O   UNL     1      -0.534  11.026  18.411  0.00  0.00    +0.000 OA
ATOM      5  C   UNL     1      -1.590  10.247  17.878  0.00  0.00    +0.000 C 
ENDBRANCH   3   4
BRANCH   3   6
ATOM      6  C   UNL     1       0.905  10.635  20.393  0.00  0.00    +0.000 C 
BRANCH   6   7
ATOM      7  O   UNL     1      -0.222  10.729  21.273  0.00  0.00    +0.000 OA
BRANCH   7   8
ATOM      8  P   UNL     1      -0.329   9.718  22.554  0.00  0.00    +0.000 P 
ATOM      9  O   UNL     1      -0.888   8.417  22.063  0.00  0.00    +0.000 OA
ATOM     10  O   UNL     1       0.961   9.820  23.343  0.00  0.00    +0.000 OA
BRANCH   8  11
ATOM     11  O   UNL     1      -1.442  10.445  23.470  0.00  0.00    +0.000 OA
BRANCH  11  12
ATOM     12  C   UNL     1      -1.744  11.782  23.108  0.00  0.00    +0.000 C 
BRANCH  12  13
ATOM     13  C   UNL     1      -3.153  12.284  23.489  0.00  0.00    +0.000 C 
BRANCH  13  14
ATOM     14  N   UNL     1      -3.359  13.827  23.381  0.00  0.00    +0.000 N 
ATOM     15  C   UNL     1      -2.107  14.422  22.714  0.00  0.00    +0.000 C 
ATOM     16  C   UNL     1      -4.578  14.161  22.589  0.00  0.00    +0.000 C 
ATOM     17  C   UNL     1      -3.454  14.384  24.774  0.00  0.00    +0.000 C 
ENDBRANCH  13  14
ENDBRANCH  12  13
ENDBRANCH  11  12
ENDBRANCH   8  11
ENDBRANCH   7   8
ENDBRANCH   6   7
ENDBRANCH   3   6
ENDBRANCH   2   3
ENDBRANCH   1   2
BRANCH   1  18
ATOM     18  C   UNL     1       2.102   8.345  18.509  0.00  0.00    +0.000 C 
BRANCH  18  19
ATOM     19  C   UNL     1       2.284   7.075  17.722  0.00  0.00    +0.000 C 
BRANCH  19  20
ATOM     20  C   UNL     1       2.348   5.870  18.644  0.00  0.00    +0.000 C 
BRANCH  20  21
ATOM     21  C   UNL     1       1.527   4.705  18.094  0.00  0.00    +0.000 C 
BRANCH  21  22
ATOM     22  C   UNL     1       1.078   3.803  19.218  0.00  0.00    +0.000 C 
BRANCH  22  23
ATOM     23  C   UNL     1       1.304   4.509  20.559  0.00  0.00    +0.000 C 
BRANCH  23  24
ATOM     24  C   UNL     1       2.137   3.634  21.479  0.00  0.00    +0.000 C 
BRANCH  24  25
ATOM     25  C   UNL     1       2.499   2.328  20.790  0.00  0.00    +0.000 C 
BRANCH  25  26
ATOM     26  C   UNL     1       3.923   2.390  20.258  0.00  0.00    +0.000 C 
BRANCH  26  27
ATOM     27  C   UNL     1       3.981   1.872  18.829  0.00  0.00    +0.000 C 
BRANCH  27  28
ATOM     28  C   UNL     1       4.462   2.967  17.887  0.00  0.00    +0.000 C 
BRANCH  28  29
ATOM     29  C   UNL     1       5.250   4.018  18.655  0.00  0.00    +0.000 C 
BRANCH  29  30
ATOM     30  C   UNL     1       6.299   4.666  17.757  0.00  0.00    +0.000 C 
BRANCH  30  31
ATOM     31  C   UNL     1       5.695   5.835  16.989  0.00  0.00    +0.000 C 
BRANCH  31  33
ATOM     32  C   UNL     1       6.842   4.858  14.984  0.00  0.00    +0.000 C 
ATOM     33  C   UNL     1       5.574   5.512  15.503  0.00  0.00    +0.000 C 
ENDBRANCH  31  33
ENDBRANCH  30  31
ENDBRANCH  29  30
ENDBRANCH  28  29
ENDBRANCH  27  28
ENDBRANCH  26  27
ENDBRANCH  25  26
ENDBRANCH  24  25
ENDBRANCH  23  24
ENDBRANCH  22  23
ENDBRANCH  21  22
ENDBRANCH  20  21
ENDBRANCH  19  20
ENDBRANCH  18  19
ENDBRANCH   1  18
TORSDOF 25
ENDMDL
MODEL 4
REMARK VINA RESULT:      -4.9      1.198      1.564
REMARK  Name = 
REMARK  30 active torsions:
REMARK  status: ('A' for Active; 'I' for Inactive)
REMARK    1  A    between atoms: C_1  and  C_2
REMARK    2  A    between atoms: C_2  and  C_3
REMARK    3  A    between atoms: C_3  and  C_4
REMARK    4  A    between atoms: C_4  and  C_5
REMARK    5  A    between atoms: C_5  and  C_6
REMARK    6  A    between atoms: C_6  and  C_7
REMARK    7  A    between atoms: C_7  and  C_8
REMARK    8  A    between atoms: C_8  and  C_9
REMARK    9  A    between atoms: C_9  and  C_10
REMARK   10  A    between atoms: C_10  and  C_11
REMARK   11  A    between atoms: C_11  and  C_12
REMARK   12  A    between atoms: C_12  and  C_13
REMARK   13  A    between atoms: C_13  and  C_14
REMARK   14  A    between atoms: C_14  and  C_15
REMARK   15  A    between atoms: C_15  and  C_16
REMARK   16  A    between atoms: C_16  and  O_17
REMARK   17  A    between atoms: O_17  and  C_18
REMARK   18  A    between atoms: C_18  and  C_19
REMARK   19  A    between atoms: C_19  and  C_20
REMARK   20  A    between atoms: C_19  and  O_32
REMARK   21  A    between atoms: C_20  and  O_21
REMARK   22  A    between atoms: O_21  and  P_22
REMARK   23  A    between atoms: P_22  and  O_25
REMARK   24  A    between atoms: O_25  and  C_26
REMARK   25  A    between atoms: C_26  and  C_27
REMARK   26  A    between atoms: C_27  and  N_28
REMARK   27  A    between atoms: N_28  and  C_29
REMARK   28  A    between atoms: N_28  and  C_30
REMARK   29  A    between atoms: N_28  and  C_31
REMARK   30  A    between atoms: O_32  and  C_33
REMARK                            x       y       z     vdW  Elec       q    Type
REMARK                         _______ _______ _______ _____ _____    ______ ____
ROOT
ATOM      1  O   UNL     1       0.771   9.062  18.799  0.00  0.00    +0.000 OA
ENDROOT
BRANCH   1   2
ATOM      2  C   UNL     1       0.319  10.351  18.449  0.00  0.00    +0.000 C 
BRANCH   2   3
ATOM      3  C   UNL     1      -1.048  10.686  19.060  0.00  0.00    +0.000 C 
BRANCH   3   4
ATOM      4  O   UNL     1      -1.966  10.290  18.051  0.00  0.00    +0.000 OA
ATOM      5  C   UNL     1      -3.093  11.140  17.939  0.00  0.00    +0.000 C 
ENDBRANCH   3   4
BRANCH   3   6
ATOM      6  C   UNL     1      -1.141  12.196  19.407  0.00  0.00    +0.000 C 
BRANCH   6   7
ATOM      7  O   UNL     1      -1.549  12.461  20.755  0.00  0.00    +0.000 OA
BRANCH   7   8
ATOM      8  P   UNL     1      -0.462  12.314  21.968  0.00  0.00    +0.000 P 
ATOM      9  O   UNL     1      -0.870  11.139  22.805  0.00  0.00    +0.000 OA
ATOM     10  O   UNL     1       0.926  12.469  21.380  0.00  0.00    +0.000 OA
BRANCH   8  11
ATOM     11  O   UNL     1      -0.714  13.664  22.817  0.00  0.00    +0.000 OA
BRANCH  11  12
ATOM     12  C   UNL     1      -1.831  13.629  23.690  0.00  0.00    +0.000 C 
BRANCH  12  13
ATOM     13  C   UNL     1      -3.098  14.361  23.197  0.00  0.00    +0.000 C 
BRANCH  13  14
ATOM     14  N   UNL     1      -4.433  13.577  23.388  0.00  0.00    +0.000 N 
ATOM     15  C   UNL     1      -4.233  12.584  24.544  0.00  0.00    +0.000 C 
ATOM     16  C   UNL     1      -5.569  14.498  23.684  0.00  0.00    +0.000 C 
ATOM     17  C   UNL     1      -4.694  12.788  22.136  0.00  0.00    +0.000 C 
ENDBRANCH  13  14
ENDBRANCH  12  13
ENDBRANCH  11  12
ENDBRANCH   8  11
ENDBRANCH   7   8
ENDBRANCH   6   7
ENDBRANCH   3   6
ENDBRANCH   2   3
ENDBRANCH   1   2
BRANCH   1  18
ATOM     18  C   UNL     1       1.792   8.639  17.911  0.00  0.00    +0.000 C 
BRANCH  18  19
ATOM     19  C   UNL     1       2.729   7.729  18.658  0.00  0.00    +0.000 C 
BRANCH  19  20
ATOM     20  C   UNL     1       2.006   6.483  19.140  0.00  0.00    +0.000 C 
BRANCH  20  21
ATOM     21  C   UNL     1       2.187   6.281  20.643  0.00  0.00    +0.000 C 
BRANCH  21  22
ATOM     22  C   UNL     1       2.175   4.809  20.979  0.00  0.00    +0.000 C 
BRANCH  22  23
ATOM     23  C   UNL     1       0.921   4.160  20.384  0.00  0.00    +0.000 C 
BRANCH  23  24
ATOM     24  C   UNL     1       1.263   2.805  19.790  0.00  0.00    +0.000 C 
BRANCH  24  25
ATOM     25  C   UNL     1       1.625   2.941  18.321  0.00  0.00    +0.000 C 
BRANCH  25  26
ATOM     26  C   UNL     1       2.717   1.948  17.952  0.00  0.00    +0.000 C 
BRANCH  26  27
ATOM     27  C   UNL     1       3.924   2.673  17.377  0.00  0.00    +0.000 C 
BRANCH  27  28
ATOM     28  C   UNL     1       4.063   4.053  18.005  0.00  0.00    +0.000 C 
BRANCH  28  29
ATOM     29  C   UNL     1       5.174   4.054  19.044  0.00  0.00    +0.000 C 
BRANCH  29  30
ATOM     30  C   UNL     1       5.975   5.350  18.974  0.00  0.00    +0.000 C 
BRANCH  30  31
ATOM     31  C   UNL     1       6.508   5.572  17.563  0.00  0.00    +0.000 C 
BRANCH  31  33
ATOM     32  C   UNL     1       7.830   7.695  17.760  0.00  0.00    +0.000 C 
ATOM     33  C   UNL     1       6.559   7.059  17.225  0.00  0.00    +0.000 C 
ENDBRANCH  31  33
ENDBRANCH  30  31
ENDBRANCH  29  30
ENDBRANCH  28  29
ENDBRANCH  27  28
ENDBRANCH  26  27
ENDBRANCH  25  26
ENDBRANCH  24  25
ENDBRANCH  23  24
ENDBRANCH  22  23
ENDBRANCH  21  22
ENDBRANCH  20  21
ENDBRANCH  19  20
ENDBRANCH  18  19
ENDBRANCH   1  18
TORSDOF 25
ENDMDL
MODEL 5
REMARK VINA RESULT:      -4.8      3.741      5.242
REMARK  Name = 
REMARK  30 active torsions:
REMARK  status: ('A' for Active; 'I' for Inactive)
REMARK    1  A    between atoms: C_1  and  C_2
REMARK    2  A    between atoms: C_2  and  C_3
REMARK    3  A    between atoms: C_3  and  C_4
REMARK    4  A    between atoms: C_4  and  C_5
REMARK    5  A    between atoms: C_5  and  C_6
REMARK    6  A    between atoms: C_6  and  C_7
REMARK    7  A    between atoms: C_7  and  C_8
REMARK    8  A    between atoms: C_8  and  C_9
REMARK    9  A    between atoms: C_9  and  C_10
REMARK   10  A    between atoms: C_10  and  C_11
REMARK   11  A    between atoms: C_11  and  C_12
REMARK   12  A    between atoms: C_12  and  C_13
REMARK   13  A    between atoms: C_13  and  C_14
REMARK   14  A    between atoms: C_14  and  C_15
REMARK   15  A    between atoms: C_15  and  C_16
REMARK   16  A    between atoms: C_16  and  O_17
REMARK   17  A    between atoms: O_17  and  C_18
REMARK   18  A    between atoms: C_18  and  C_19
REMARK   19  A    between atoms: C_19  and  C_20
REMARK   20  A    between atoms: C_19  and  O_32
REMARK   21  A    between atoms: C_20  and  O_21
REMARK   22  A    between atoms: O_21  and  P_22
REMARK   23  A    between atoms: P_22  and  O_25
REMARK   24  A    between atoms: O_25  and  C_26
REMARK   25  A    between atoms: C_26  and  C_27
REMARK   26  A    between atoms: C_27  and  N_28
REMARK   27  A    between atoms: N_28  and  C_29
REMARK   28  A    between atoms: N_28  and  C_30
REMARK   29  A    between atoms: N_28  and  C_31
REMARK   30  A    between atoms: O_32  and  C_33
REMARK                            x       y       z     vdW  Elec       q    Type
REMARK                         _______ _______ _______ _____ _____    ______ ____
ROOT
ATOM      1  O   UNL     1       1.097   9.526  19.356  0.00  0.00    +0.000 OA
ENDROOT
BRANCH   1   2
ATOM      2  C   UNL     1      -0.178  10.127  19.407  0.00  0.00    +0.000 C 
BRANCH   2   3
ATOM      3  C   UNL     1      -0.108  11.650  19.583  0.00  0.00    +0.000 C 
BRANCH   3   4
ATOM      4  O   UNL     1      -0.601  12.148  18.348  0.00  0.00    +0.000 OA
ATOM      5  C   UNL     1      -1.918  11.724  18.046  0.00  0.00    +0.000 C 
ENDBRANCH   3   4
BRANCH   3   6
ATOM      6  C   UNL     1       1.346  12.103  19.884  0.00  0.00    +0.000 C 
BRANCH   6   7
ATOM      7  O   UNL     1       1.533  12.625  21.205  0.00  0.00    +0.000 OA
BRANCH   7   8
ATOM      8  P   UNL     1       1.254  14.211  21.490  0.00  0.00    +0.000 P 
ATOM      9  O   UNL     1       1.214  14.912  20.165  0.00  0.00    +0.000 OA
ATOM     10  O   UNL     1       0.143  14.318  22.516  0.00  0.00    +0.000 OA
BRANCH   8  11
ATOM     11  O   UNL     1       2.594  14.660  22.270  0.00  0.00    +0.000 OA
BRANCH  11  12
ATOM     12  C   UNL     1       3.808  14.371  21.599  0.00  0.00    +0.000 C 
BRANCH  12  13
ATOM     13  C   UNL     1       5.098  14.549  22.429  0.00  0.00    +0.000 C 
BRANCH  13  14
ATOM     14  N   UNL     1       6.201  15.427  21.761  0.00  0.00    +0.000 N 
ATOM     15  C   UNL     1       7.043  16.058  22.883  0.00  0.00    +0.000 C 
ATOM     16  C   UNL     1       7.066  14.620  20.852  0.00  0.00    +0.000 C 
ATOM     17  C   UNL     1       5.522  16.537  21.009  0.00  0.00    +0.000 C 
ENDBRANCH  13  14
ENDBRANCH  12  13
ENDBRANCH  11  12
ENDBRANCH   8  11
ENDBRANCH   7   8
ENDBRANCH   6   7
ENDBRANCH   3   6
ENDBRANCH   2   3
ENDBRANCH   1   2
BRANCH   1  18
ATOM     18  C   UNL     1       1.410   9.143  18.028  0.00  0.00    +0.000 C 
BRANCH  18  19
ATOM     19  C   UNL     1       2.580   8.198  18.065  0.00  0.00    +0.000 C 
BRANCH  19  20
ATOM     20  C   UNL     1       2.122   6.780  18.361  0.00  0.00    +0.000 C 
BRANCH  20  21
ATOM     21  C   UNL     1       2.750   6.250  19.648  0.00  0.00    +0.000 C 
BRANCH  21  22
ATOM     22  C   UNL     1       1.685   5.695  20.562  0.00  0.00    +0.000 C 
BRANCH  22  23
ATOM     23  C   UNL     1       1.343   4.263  20.136  0.00  0.00    +0.000 C 
BRANCH  23  24
ATOM     24  C   UNL     1       2.612   3.437  20.009  0.00  0.00    +0.000 C 
BRANCH  24  25
ATOM     25  C   UNL     1       2.401   2.279  19.047  0.00  0.00    +0.000 C 
BRANCH  25  26
ATOM     26  C   UNL     1       3.417   2.341  17.917  0.00  0.00    +0.000 C 
BRANCH  26  27
ATOM     27  C   UNL     1       3.240   3.619  17.111  0.00  0.00    +0.000 C 
BRANCH  27  28
ATOM     28  C   UNL     1       4.595   4.232  16.786  0.00  0.00    +0.000 C 
BRANCH  28  29
ATOM     29  C   UNL     1       5.552   4.054  17.954  0.00  0.00    +0.000 C 
BRANCH  29  30
ATOM     30  C   UNL     1       5.818   5.389  18.641  0.00  0.00    +0.000 C 
BRANCH  30  31
ATOM     31  C   UNL     1       6.023   6.490  17.607  0.00  0.00    +0.000 C 
BRANCH  31  33
ATOM     32  C   UNL     1       7.732   8.326  17.605  0.00  0.00    +0.000 C 
ATOM     33  C   UNL     1       7.502   6.833  17.456  0.00  0.00    +0.000 C 
ENDBRANCH  31  33
ENDBRANCH  30  31
ENDBRANCH  29  30
ENDBRANCH  28  29
ENDBRANCH  27  28
ENDBRANCH  26  27
ENDBRANCH  25  26
ENDBRANCH  24  25
ENDBRANCH  23  24
ENDBRANCH  22  23
ENDBRANCH  21  22
ENDBRANCH  20  21
ENDBRANCH  19  20
ENDBRANCH  18  19
ENDBRANCH   1  18
TORSDOF 25
ENDMDL
MODEL 6
REMARK VINA RESULT:      -4.8      1.135      1.594
REMARK  Name = 
REMARK  30 active torsions:
REMARK  status: ('A' for Active; 'I' for Inactive)
REMARK    1  A    between atoms: C_1  and  C_2
REMARK    2  A    between atoms: C_2  and  C_3
REMARK    3  A    between atoms: C_3  and  C_4
REMARK    4  A    between atoms: C_4  and  C_5
REMARK    5  A    between atoms: C_5  and  C_6
REMARK    6  A    between atoms: C_6  and  C_7
REMARK    7  A    between atoms: C_7  and  C_8
REMARK    8  A    between atoms: C_8  and  C_9
REMARK    9  A    between atoms: C_9  and  C_10
REMARK   10  A    between atoms: C_10  and  C_11
REMARK   11  A    between atoms: C_11  and  C_12
REMARK   12  A    between atoms: C_12  and  C_13
REMARK   13  A    between atoms: C_13  and  C_14
REMARK   14  A    between atoms: C_14  and  C_15
REMARK   15  A    between atoms: C_15  and  C_16
REMARK   16  A    between atoms: C_16  and  O_17
REMARK   17  A    between atoms: O_17  and  C_18
REMARK   18  A    between atoms: C_18  and  C_19
REMARK   19  A    between atoms: C_19  and  C_20
REMARK   20  A    between atoms: C_19  and  O_32
REMARK   21  A    between atoms: C_20  and  O_21
REMARK   22  A    between atoms: O_21  and  P_22
REMARK   23  A    between atoms: P_22  and  O_25
REMARK   24  A    between atoms: O_25  and  C_26
REMARK   25  A    between atoms: C_26  and  C_27
REMARK   26  A    between atoms: C_27  and  N_28
REMARK   27  A    between atoms: N_28  and  C_29
REMARK   28  A    between atoms: N_28  and  C_30
REMARK   29  A    between atoms: N_28  and  C_31
REMARK   30  A    between atoms: O_32  and  C_33
REMARK                            x       y       z     vdW  Elec       q    Type
REMARK                         _______ _______ _______ _____ _____    ______ ____
ROOT
ATOM      1  O   UNL     1       2.102   9.393  17.626  0.00  0.00    +0.000 OA
ENDROOT
BRANCH   1   2
ATOM      2  C   UNL     1       1.430  10.480  18.223  0.00  0.00    +0.000 C 
BRANCH   2   3
ATOM      3  C   UNL     1       0.060  10.089  18.792  0.00  0.00    +0.000 C 
BRANCH   3   4
ATOM      4  O   UNL     1      -0.847  10.888  18.046  0.00  0.00    +0.000 OA
ATOM      5  C   UNL     1      -1.944  10.165  17.517  0.00  0.00    +0.000 C 
ENDBRANCH   3   4
BRANCH   3   6
ATOM      6  C   UNL     1      -0.001  10.365  20.319  0.00  0.00    +0.000 C 
BRANCH   6   7
ATOM      7  O   UNL     1      -0.947  11.374  20.693  0.00  0.00    +0.000 OA
BRANCH   7   8
ATOM      8  P   UNL     1      -0.554  12.454  21.856  0.00  0.00    +0.000 P 
ATOM      9  O   UNL     1      -0.976  11.878  23.175  0.00  0.00    +0.000 OA
ATOM     10  O   UNL     1       0.852  12.951  21.583  0.00  0.00    +0.000 OA
BRANCH   8  11
ATOM     11  O   UNL     1      -1.517  13.700  21.505  0.00  0.00    +0.000 OA
BRANCH  11  12
ATOM     12  C   UNL     1      -2.463  14.034  22.508  0.00  0.00    +0.000 C 
BRANCH  12  13
ATOM     13  C   UNL     1      -3.918  13.593  22.238  0.00  0.00    +0.000 C 
BRANCH  13  14
ATOM     14  N   UNL     1      -4.830  13.508  23.501  0.00  0.00    +0.000 N 
ATOM     15  C   UNL     1      -6.200  12.969  23.056  0.00  0.00    +0.000 C 
ATOM     16  C   UNL     1      -4.237  12.621  24.544  0.00  0.00    +0.000 C 
ATOM     17  C   UNL     1      -5.028  14.901  24.030  0.00  0.00    +0.000 C 
ENDBRANCH  13  14
ENDBRANCH  12  13
ENDBRANCH  11  12
ENDBRANCH   8  11
ENDBRANCH   7   8
ENDBRANCH   6   7
ENDBRANCH   3   6
ENDBRANCH   2   3
ENDBRANCH   1   2
BRANCH   1  18
ATOM     18  C   UNL     1       2.297   8.354  18.570  0.00  0.00    +0.000 C 
BRANCH  18  19
ATOM     19  C   UNL     1       2.293   7.037  17.841  0.00  0.00    +0.000 C 
BRANCH  19  20
ATOM     20  C   UNL     1       1.817   5.917  18.749  0.00  0.00    +0.000 C 
BRANCH  20  21
ATOM     21  C   UNL     1       2.879   5.550  19.783  0.00  0.00    +0.000 C 
BRANCH  21  22
ATOM     22  C   UNL     1       2.240   4.886  20.979  0.00  0.00    +0.000 C 
BRANCH  22  23
ATOM     23  C   UNL     1       1.060   4.026  20.513  0.00  0.00    +0.000 C 
BRANCH  23  24
ATOM     24  C   UNL     1       1.565   2.737  19.889  0.00  0.00    +0.000 C 
BRANCH  24  25
ATOM     25  C   UNL     1       3.027   2.511  20.238  0.00  0.00    +0.000 C 
BRANCH  25  26
ATOM     26  C   UNL     1       3.822   2.173  18.986  0.00  0.00    +0.000 C 
BRANCH  26  27
ATOM     27  C   UNL     1       2.913   2.153  17.767  0.00  0.00    +0.000 C 
BRANCH  27  28
ATOM     28  C   UNL     1       3.214   3.341  16.863  0.00  0.00    +0.000 C 
BRANCH  28  29
ATOM     29  C   UNL     1       4.690   3.704  16.937  0.00  0.00    +0.000 C 
BRANCH  29  30
ATOM     30  C   UNL     1       4.905   5.165  16.557  0.00  0.00    +0.000 C 
BRANCH  30  31
ATOM     31  C   UNL     1       5.874   5.275  15.385  0.00  0.00    +0.000 C 
BRANCH  31  33
ATOM     32  C   UNL     1       6.006   3.750  13.398  0.00  0.00    +0.000 C 
ATOM     33  C   UNL     1       6.286   3.895  14.883  0.00  0.00    +0.000 C 
ENDBRANCH  31  33
ENDBRANCH  30  31
ENDBRANCH  29  30
ENDBRANCH  28  29
ENDBRANCH  27  28
ENDBRANCH  26  27
ENDBRANCH  25  26
ENDBRANCH  24  25
ENDBRANCH  23  24
ENDBRANCH  22  23
ENDBRANCH  21  22
ENDBRANCH  20  21
ENDBRANCH  19  20
ENDBRANCH  18  19
ENDBRANCH   1  18
TORSDOF 25
ENDMDL
MODEL 7
REMARK VINA RESULT:      -4.8      1.555      2.482
REMARK  Name = 
REMARK  30 active torsions:
REMARK  status: ('A' for Active; 'I' for Inactive)
REMARK    1  A    between atoms: C_1  and  C_2
REMARK    2  A    between atoms: C_2  and  C_3
REMARK    3  A    between atoms: C_3  and  C_4
REMARK    4  A    between atoms: C_4  and  C_5
REMARK    5  A    between atoms: C_5  and  C_6
REMARK    6  A    between atoms: C_6  and  C_7
REMARK    7  A    between atoms: C_7  and  C_8
REMARK    8  A    between atoms: C_8  and  C_9
REMARK    9  A    between atoms: C_9  and  C_10
REMARK   10  A    between atoms: C_10  and  C_11
REMARK   11  A    between atoms: C_11  and  C_12
REMARK   12  A    between atoms: C_12  and  C_13
REMARK   13  A    between atoms: C_13  and  C_14
REMARK   14  A    between atoms: C_14  and  C_15
REMARK   15  A    between atoms: C_15  and  C_16
REMARK   16  A    between atoms: C_16  and  O_17
REMARK   17  A    between atoms: O_17  and  C_18
REMARK   18  A    between atoms: C_18  and  C_19
REMARK   19  A    between atoms: C_19  and  C_20
REMARK   20  A    between atoms: C_19  and  O_32
REMARK   21  A    between atoms: C_20  and  O_21
REMARK   22  A    between atoms: O_21  and  P_22
REMARK   23  A    between atoms: P_22  and  O_25
REMARK   24  A    between atoms: O_25  and  C_26
REMARK   25  A    between atoms: C_26  and  C_27
REMARK   26  A    between atoms: C_27  and  N_28
REMARK   27  A    between atoms: N_28  and  C_29
REMARK   28  A    between atoms: N_28  and  C_30
REMARK   29  A    between atoms: N_28  and  C_31
REMARK   30  A    between atoms: O_32  and  C_33
REMARK                            x       y       z     vdW  Elec       q    Type
REMARK                         _______ _______ _______ _____ _____    ______ ____
ROOT
ATOM      1  O   UNL     1       1.066   7.492  20.834  0.00  0.00    +0.000 OA
ENDROOT
BRANCH   1   2
ATOM      2  C   UNL     1       1.067   8.846  21.233  0.00  0.00    +0.000 C 
BRANCH   2   3
ATOM      3  C   UNL     1      -0.057   9.658  20.577  0.00  0.00    +0.000 C 
BRANCH   3   4
ATOM      4  O   UNL     1       0.294   9.655  19.201  0.00  0.00    +0.000 OA
ATOM      5  C   UNL     1       1.136  10.729  18.824  0.00  0.00    +0.000 C 
ENDBRANCH   3   4
BRANCH   3   6
ATOM      6  C   UNL     1      -0.130  11.085  21.182  0.00  0.00    +0.000 C 
BRANCH   6   7
ATOM      7  O   UNL     1      -1.427  11.689  21.098  0.00  0.00    +0.000 OA
BRANCH   7   8
ATOM      8  P   UNL     1      -1.795  12.945  22.080  0.00  0.00    +0.000 P 
ATOM      9  O   UNL     1      -1.073  12.736  23.377  0.00  0.00    +0.000 OA
ATOM     10  O   UNL     1      -1.689  14.222  21.271  0.00  0.00    +0.000 OA
BRANCH   8  11
ATOM     11  O   UNL     1      -3.375  12.732  22.329  0.00  0.00    +0.000 OA
BRANCH  11  12
ATOM     12  C   UNL     1      -3.876  13.282  23.536  0.00  0.00    +0.000 C 
BRANCH  12  13
ATOM     13  C   UNL     1      -4.621  14.629  23.407  0.00  0.00    +0.000 C 
BRANCH  13  14
ATOM     14  N   UNL     1      -3.940  15.835  24.124  0.00  0.00    +0.000 N 
ATOM     15  C   UNL     1      -3.036  15.273  25.233  0.00  0.00    +0.000 C 
ATOM     16  C   UNL     1      -3.140  16.657  23.169  0.00  0.00    +0.000 C 
ATOM     17  C   UNL     1      -5.015  16.661  24.773  0.00  0.00    +0.000 C 
ENDBRANCH  13  14
ENDBRANCH  12  13
ENDBRANCH  11  12
ENDBRANCH   8  11
ENDBRANCH   7   8
ENDBRANCH   6   7
ENDBRANCH   3   6
ENDBRANCH   2   3
ENDBRANCH   1   2
BRANCH   1  18
ATOM     18  C   UNL     1       2.226   7.202  20.073  0.00  0.00    +0.000 C 
BRANCH  18  19
ATOM     19  C   UNL     1       2.284   5.717  19.837  0.00  0.00    +0.000 C 
BRANCH  19  20
ATOM     20  C   UNL     1       2.196   4.956  21.149  0.00  0.00    +0.000 C 
BRANCH  20  21
ATOM     21  C   UNL     1       1.496   3.611  20.965  0.00  0.00    +0.000 C 
BRANCH  21  22
ATOM     22  C   UNL     1       0.711   3.600  19.676  0.00  0.00    +0.000 C 
BRANCH  22  23
ATOM     23  C   UNL     1       1.168   2.421  18.810  0.00  0.00    +0.000 C 
BRANCH  23  24
ATOM     24  C   UNL     1       2.449   1.826  19.368  0.00  0.00    +0.000 C 
BRANCH  24  25
ATOM     25  C   UNL     1       3.660   2.402  18.654  0.00  0.00    +0.000 C 
BRANCH  25  26
ATOM     26  C   UNL     1       3.278   2.863  17.255  0.00  0.00    +0.000 C 
BRANCH  26  27
ATOM     27  C   UNL     1       3.828   4.255  16.984  0.00  0.00    +0.000 C 
BRANCH  27  28
ATOM     28  C   UNL     1       4.963   4.188  15.972  0.00  0.00    +0.000 C 
BRANCH  28  29
ATOM     29  C   UNL     1       5.527   5.578  15.714  0.00  0.00    +0.000 C 
BRANCH  29  30
ATOM     30  C   UNL     1       7.008   5.634  16.074  0.00  0.00    +0.000 C 
BRANCH  30  31
ATOM     31  C   UNL     1       7.223   6.485  17.319  0.00  0.00    +0.000 C 
BRANCH  31  33
ATOM     32  C   UNL     1       6.323   5.316  19.348  0.00  0.00    +0.000 C 
ATOM     33  C   UNL     1       7.564   5.617  18.525  0.00  0.00    +0.000 C 
ENDBRANCH  31  33
ENDBRANCH  30  31
ENDBRANCH  29  30
ENDBRANCH  28  29
ENDBRANCH  27  28
ENDBRANCH  26  27
ENDBRANCH  25  26
ENDBRANCH  24  25
ENDBRANCH  23  24
ENDBRANCH  22  23
ENDBRANCH  21  22
ENDBRANCH  20  21
ENDBRANCH  19  20
ENDBRANCH  18  19
ENDBRANCH   1  18
TORSDOF 25
ENDMDL
MODEL 8
REMARK VINA RESULT:      -4.8      1.334      1.914
REMARK  Name = 
REMARK  30 active torsions:
REMARK  status: ('A' for Active; 'I' for Inactive)
REMARK    1  A    between atoms: C_1  and  C_2
REMARK    2  A    between atoms: C_2  and  C_3
REMARK    3  A    between atoms: C_3  and  C_4
REMARK    4  A    between atoms: C_4  and  C_5
REMARK    5  A    between atoms: C_5  and  C_6
REMARK    6  A    between atoms: C_6  and  C_7
REMARK    7  A    between atoms: C_7  and  C_8
REMARK    8  A    between atoms: C_8  and  C_9
REMARK    9  A    between atoms: C_9  and  C_10
REMARK   10  A    between atoms: C_10  and  C_11
REMARK   11  A    between atoms: C_11  and  C_12
REMARK   12  A    between atoms: C_12  and  C_13
REMARK   13  A    between atoms: C_13  and  C_14
REMARK   14  A    between atoms: C_14  and  C_15
REMARK   15  A    between atoms: C_15  and  C_16
REMARK   16  A    between atoms: C_16  and  O_17
REMARK   17  A    between atoms: O_17  and  C_18
REMARK   18  A    between atoms: C_18  and  C_19
REMARK   19  A    between atoms: C_19  and  C_20
REMARK   20  A    between atoms: C_19  and  O_32
REMARK   21  A    between atoms: C_20  and  O_21
REMARK   22  A    between atoms: O_21  and  P_22
REMARK   23  A    between atoms: P_22  and  O_25
REMARK   24  A    between atoms: O_25  and  C_26
REMARK   25  A    between atoms: C_26  and  C_27
REMARK   26  A    between atoms: C_27  and  N_28
REMARK   27  A    between atoms: N_28  and  C_29
REMARK   28  A    between atoms: N_28  and  C_30
REMARK   29  A    between atoms: N_28  and  C_31
REMARK   30  A    between atoms: O_32  and  C_33
REMARK                            x       y       z     vdW  Elec       q    Type
REMARK                         _______ _______ _______ _____ _____    ______ ____
ROOT
ATOM      1  O   UNL     1       1.861   9.773  17.510  0.00  0.00    +0.000 OA
ENDROOT
BRANCH   1   2
ATOM      2  C   UNL     1       2.146  10.930  18.266  0.00  0.00    +0.000 C 
BRANCH   2   3
ATOM      3  C   UNL     1       0.895  11.536  18.916  0.00  0.00    +0.000 C 
BRANCH   3   4
ATOM      4  O   UNL     1       1.218  12.914  19.031  0.00  0.00    +0.000 OA
ATOM      5  C   UNL     1       2.354  13.299  18.279  0.00  0.00    +0.000 C 
ENDBRANCH   3   4
BRANCH   3   6
ATOM      6  C   UNL     1       0.605  10.863  20.285  0.00  0.00    +0.000 C 
BRANCH   6   7
ATOM      7  O   UNL     1       0.682  11.756  21.403  0.00  0.00    +0.000 OA
BRANCH   7   8
ATOM      8  P   UNL     1      -0.687  12.174  22.194  0.00  0.00    +0.000 P 
ATOM      9  O   UNL     1      -1.351  10.911  22.653  0.00  0.00    +0.000 OA
ATOM     10  O   UNL     1      -0.360  13.323  23.127  0.00  0.00    +0.000 OA
BRANCH   8  11
ATOM     11  O   UNL     1      -1.577  12.827  21.017  0.00  0.00    +0.000 OA
BRANCH  11  12
ATOM     12  C   UNL     1      -2.971  12.876  21.270  0.00  0.00    +0.000 C 
BRANCH  12  13
ATOM     13  C   UNL     1      -3.451  14.022  22.187  0.00  0.00    +0.000 C 
BRANCH  13  14
ATOM     14  N   UNL     1      -4.646  13.665  23.124  0.00  0.00    +0.000 N 
ATOM     15  C   UNL     1      -4.128  12.687  24.193  0.00  0.00    +0.000 C 
ATOM     16  C   UNL     1      -5.219  14.882  23.768  0.00  0.00    +0.000 C 
ATOM     17  C   UNL     1      -5.685  12.951  22.306  0.00  0.00    +0.000 C 
ENDBRANCH  13  14
ENDBRANCH  12  13
ENDBRANCH  11  12
ENDBRANCH   8  11
ENDBRANCH   7   8
ENDBRANCH   6   7
ENDBRANCH   3   6
ENDBRANCH   2   3
ENDBRANCH   1   2
BRANCH   1  18
ATOM     18  C   UNL     1       2.738   8.720  17.870  0.00  0.00    +0.000 C 
BRANCH  18  19
ATOM     19  C   UNL     1       1.922   7.589  18.436  0.00  0.00    +0.000 C 
BRANCH  19  20
ATOM     20  C   UNL     1       1.975   7.590  19.954  0.00  0.00    +0.000 C 
BRANCH  20  21
ATOM     21  C   UNL     1       1.905   6.170  20.513  0.00  0.00    +0.000 C 
BRANCH  21  22
ATOM     22  C   UNL     1       2.530   5.195  19.545  0.00  0.00    +0.000 C 
BRANCH  22  23
ATOM     23  C   UNL     1       1.545   4.055  19.263  0.00  0.00    +0.000 C 
BRANCH  23  24
ATOM     24  C   UNL     1       1.630   3.636  17.806  0.00  0.00    +0.000 C 
BRANCH  24  25
ATOM     25  C   UNL     1       2.511   2.407  17.654  0.00  0.00    +0.000 C 
BRANCH  25  26
ATOM     26  C   UNL     1       3.966   2.817  17.493  0.00  0.00    +0.000 C 
BRANCH  26  27
ATOM     27  C   UNL     1       4.088   3.973  16.512  0.00  0.00    +0.000 C 
BRANCH  27  28
ATOM     28  C   UNL     1       5.387   3.864  15.724  0.00  0.00    +0.000 C 
BRANCH  28  29
ATOM     29  C   UNL     1       6.067   5.222  15.632  0.00  0.00    +0.000 C 
BRANCH  29  30
ATOM     30  C   UNL     1       5.237   6.289  16.338  0.00  0.00    +0.000 C 
BRANCH  30  31
ATOM     31  C   UNL     1       5.969   6.806  17.570  0.00  0.00    +0.000 C 
BRANCH  31  33
ATOM     32  C   UNL     1       7.940   8.338  17.817  0.00  0.00    +0.000 C 
ATOM     33  C   UNL     1       7.455   7.001  17.284  0.00  0.00    +0.000 C 
ENDBRANCH  31  33
ENDBRANCH  30  31
ENDBRANCH  29  30
ENDBRANCH  28  29
ENDBRANCH  27  28
ENDBRANCH  26  27
ENDBRANCH  25  26
ENDBRANCH  24  25
ENDBRANCH  23  24
ENDBRANCH  22  23
ENDBRANCH  21  22
ENDBRANCH  20  21
ENDBRANCH  19  20
ENDBRANCH  18  19
ENDBRANCH   1  18
TORSDOF 25
ENDMDL
MODEL 9
REMARK VINA RESULT:      -4.7      2.330      4.590
REMARK  Name = 
REMARK  30 active torsions:
REMARK  status: ('A' for Active; 'I' for Inactive)
REMARK    1  A    between atoms: C_1  and  C_2
REMARK    2  A    between atoms: C_2  and  C_3
REMARK    3  A    between atoms: C_3  and  C_4
REMARK    4  A    between atoms: C_4  and  C_5
REMARK    5  A    between atoms: C_5  and  C_6
REMARK    6  A    between atoms: C_6  and  C_7
REMARK    7  A    between atoms: C_7  and  C_8
REMARK    8  A    between atoms: C_8  and  C_9
REMARK    9  A    between atoms: C_9  and  C_10
REMARK   10  A    between atoms: C_10  and  C_11
REMARK   11  A    between atoms: C_11  and  C_12
REMARK   12  A    between atoms: C_12  and  C_13
REMARK   13  A    between atoms: C_13  and  C_14
REMARK   14  A    between atoms: C_14  and  C_15
REMARK   15  A    between atoms: C_15  and  C_16
REMARK   16  A    between atoms: C_16  and  O_17
REMARK   17  A    between atoms: O_17  and  C_18
REMARK   18  A    between atoms: C_18  and  C_19
REMARK   19  A    between atoms: C_19  and  C_20
REMARK   20  A    between atoms: C_19  and  O_32
REMARK   21  A    between atoms: C_20  and  O_21
REMARK   22  A    between atoms: O_21  and  P_22
REMARK   23  A    between atoms: P_22  and  O_25
REMARK   24  A    between atoms: O_25  and  C_26
REMARK   25  A    between atoms: C_26  and  C_27
REMARK   26  A    between atoms: C_27  and  N_28
REMARK   27  A    between atoms: N_28  and  C_29
REMARK   28  A    between atoms: N_28  and  C_30
REMARK   29  A    between atoms: N_28  and  C_31
REMARK   30  A    between atoms: O_32  and  C_33
REMARK                            x       y       z     vdW  Elec       q    Type
REMARK                         _______ _______ _______ _____ _____    ______ ____
ROOT
ATOM      1  O   UNL     1       0.680   8.424  21.616  0.00  0.00    +0.000 OA
ENDROOT
BRANCH   1   2
ATOM      2  C   UNL     1      -0.366   9.342  21.385  0.00  0.00    +0.000 C 
BRANCH   2   3
ATOM      3  C   UNL     1      -0.056  10.743  21.928  0.00  0.00    +0.000 C 
BRANCH   3   4
ATOM      4  O   UNL     1      -1.244  11.100  22.619  0.00  0.00    +0.000 OA
ATOM      5  C   UNL     1      -1.267  12.446  23.058  0.00  0.00    +0.000 C 
ENDBRANCH   3   4
BRANCH   3   6
ATOM      6  C   UNL     1       0.290  11.718  20.771  0.00  0.00    +0.000 C 
BRANCH   6   7
ATOM      7  O   UNL     1      -0.323  11.380  19.520  0.00  0.00    +0.000 OA
BRANCH   7   8
ATOM      8  P   UNL     1      -1.361  12.435  18.824  0.00  0.00    +0.000 P 
ATOM      9  O   UNL     1      -2.288  12.935  19.891  0.00  0.00    +0.000 OA
ATOM     10  O   UNL     1      -0.564  13.356  17.922  0.00  0.00    +0.000 OA
BRANCH   8  11
ATOM     11  O   UNL     1      -2.195  11.482  17.822  0.00  0.00    +0.000 OA
BRANCH  11  12
ATOM     12  C   UNL     1      -3.531  11.216  18.214  0.00  0.00    +0.000 C 
BRANCH  12  13
ATOM     13  C   UNL     1      -4.631  11.741  17.266  0.00  0.00    +0.000 C 
BRANCH  13  14
ATOM     14  N   UNL     1      -5.974  12.129  17.959  0.00  0.00    +0.000 N 
ATOM     15  C   UNL     1      -5.635  12.946  19.217  0.00  0.00    +0.000 C 
ATOM     16  C   UNL     1      -6.851  12.919  17.047  0.00  0.00    +0.000 C 
ATOM     17  C   UNL     1      -6.657  10.863  18.396  0.00  0.00    +0.000 C 
ENDBRANCH  13  14
ENDBRANCH  12  13
ENDBRANCH  11  12
ENDBRANCH   8  11
ENDBRANCH   7   8
ENDBRANCH   6   7
ENDBRANCH   3   6
ENDBRANCH   2   3
ENDBRANCH   1   2
BRANCH   1  18
ATOM     18  C   UNL     1       1.382   8.164  20.412  0.00  0.00    +0.000 C 
BRANCH  18  19
ATOM     19  C   UNL     1       2.086   6.840  20.546  0.00  0.00    +0.000 C 
BRANCH  19  20
ATOM     20  C   UNL     1       2.213   6.155  19.196  0.00  0.00    +0.000 C 
BRANCH  20  21
ATOM     21  C   UNL     1       3.020   7.005  18.215  0.00  0.00    +0.000 C 
BRANCH  21  22
ATOM     22  C   UNL     1       3.604   6.136  17.127  0.00  0.00    +0.000 C 
BRANCH  22  23
ATOM     23  C   UNL     1       4.803   6.850  16.494  0.00  0.00    +0.000 C 
BRANCH  23  24
ATOM     24  C   UNL     1       5.769   5.835  15.909  0.00  0.00    +0.000 C 
BRANCH  24  25
ATOM     25  C   UNL     1       7.125   5.936  16.587  0.00  0.00    +0.000 C 
BRANCH  25  26
ATOM     26  C   UNL     1       7.285   4.825  17.614  0.00  0.00    +0.000 C 
BRANCH  26  27
ATOM     27  C   UNL     1       7.065   5.363  19.019  0.00  0.00    +0.000 C 
BRANCH  27  28
ATOM     28  C   UNL     1       5.702   4.935  19.544  0.00  0.00    +0.000 C 
BRANCH  28  29
ATOM     29  C   UNL     1       5.234   3.671  18.837  0.00  0.00    +0.000 C 
BRANCH  29  30
ATOM     30  C   UNL     1       4.068   3.035  19.586  0.00  0.00    +0.000 C 
BRANCH  30  31
ATOM     31  C   UNL     1       3.382   1.989  18.716  0.00  0.00    +0.000 C 
BRANCH  31  33
ATOM     32  C   UNL     1       0.938   2.552  18.709  0.00  0.00    +0.000 C 
ATOM     33  C   UNL     1       2.235   2.603  17.921  0.00  0.00    +0.000 C 
ENDBRANCH  31  33
ENDBRANCH  30  31
ENDBRANCH  29  30
ENDBRANCH  28  29
ENDBRANCH  27  28
ENDBRANCH  26  27
ENDBRANCH  25  26
ENDBRANCH  24  25
ENDBRANCH  23  24
ENDBRANCH  22  23
ENDBRANCH  21  22
ENDBRANCH  20  21
ENDBRANCH  19  20
ENDBRANCH  18  19
ENDBRANCH   1  18
TORSDOF 25
ENDMDL
