MODEL 1
REMARK VINA RESULT:      -8.9      0.000      0.000
REMARK  Name = 
REMARK  4 active torsions:
REMARK  status: ('A' for Active; 'I' for Inactive)
REMARK    1  A    between atoms: C_4  and  N_5
REMARK    2  A    between atoms: N_5  and  C_6
REMARK    3  A    between atoms: C_9  and  S_10
REMARK    4  A    between atoms: S_10  and  N_13
REMARK                            x       y       z     vdW  Elec       q    Type
REMARK                         _______ _______ _______ _____ _____    ______ ____
ROOT
ATOM      1  C   UNL     1       1.149   9.967  18.866  0.00  0.00    +0.000 A 
ATOM      2  C   UNL     1       1.144   9.317  20.109  0.00  0.00    +0.000 A 
ATOM      3  C   UNL     1       1.637   8.014  20.240  0.00  0.00    +0.000 A 
ATOM      4  C   UNL     1       2.120   7.338  19.117  0.00  0.00    +0.000 A 
ATOM      5  C   UNL     1       2.155   7.972  17.875  0.00  0.00    +0.000 A 
ATOM      6  C   UNL     1       1.644   9.268  17.750  0.00  0.00    +0.000 A 
ENDROOT
BRANCH   4   7
ATOM      7  S   UNL     1       2.720   5.668  19.279  0.00  0.00    +0.000 S 
ATOM      8  O   UNL     1       2.426   5.211  20.621  0.00  0.00    +0.000 OA
ATOM      9  O   UNL     1       2.239   4.936  18.124  0.00  0.00    +0.000 OA
BRANCH   7  10
ATOM     10  N   UNL     1       4.394   5.823  19.084  0.00  0.00    +0.000 N 
ATOM     11  C   UNL     1       4.865   5.544  17.785  0.00  0.00    +0.000 A 
ATOM     12  C   UNL     1       4.872   6.505  16.791  0.00  0.00    +0.000 A 
ATOM     13  C   UNL     1       5.294   6.121  15.522  0.00  0.00    +0.000 A 
ATOM     14  C   UNL     1       5.659   4.796  15.299  0.00  0.00    +0.000 A 
ATOM     15  C   UNL     1       5.605   3.912  16.366  0.00  0.00    +0.000 A 
ATOM     16  N   UNL     1       5.224   4.261  17.615  0.00  0.00    +0.000 NA
ATOM     17  H   UNL     1       4.872   5.229  19.759  0.00  0.00    +0.000 HD
ENDBRANCH   7  10
ENDBRANCH   4   7
BRANCH   1  18
ATOM     18  N   UNL     1       0.580  11.258  18.660  0.00  0.00    +0.000 N 
ATOM     19  H   UNL     1       1.215  11.939  19.078  0.00  0.00    +0.000 HD
BRANCH  18  23
ATOM     20  N   UNL     1      -2.798  12.978  21.647  0.00  0.00    +0.000 NA
ATOM     21  C   UNL     1      -2.446  12.480  20.516  0.00  0.00    +0.000 A 
ATOM     22  C   UNL     1      -1.032  12.167  20.165  0.00  0.00    +0.000 A 
ATOM     23  C   UNL     1      -0.745  11.551  18.999  0.00  0.00    +0.000 A 
ATOM     24  N   UNL     1      -1.819  11.278  18.171  0.00  0.00    +0.000 N 
ATOM     25  N   UNL     1      -1.739  10.809  16.878  0.00  0.00    +0.000 N 
ATOM     26  C   UNL     1      -2.937  10.748  16.217  0.00  0.00    +0.000 A 
ATOM     27  S   UNL     1      -3.098  10.175  14.670  0.00  0.00    +0.000 S 
ATOM     28  S   UNL     1      -4.236  11.347  17.230  0.00  0.00    +0.000 S 
ATOM     29  C   UNL     1      -3.086  11.677  18.504  0.00  0.00    +0.000 A 
ATOM     30  N   UNL     1      -3.440  12.251  19.602  0.00  0.00    +0.000 NA
ATOM     31  H   UNL     1      -1.997  13.116  22.264  0.00  0.00    +0.000 HD
ATOM     32  H   UNL     1      -0.841  10.515  16.510  0.00  0.00    +0.000 HD
ENDBRANCH  18  23
ENDBRANCH   1  18
TORSDOF 4
ENDMDL
MODEL 2
REMARK VINA RESULT:      -8.6      2.947      8.908
REMARK  Name = 
REMARK  4 active torsions:
REMARK  status: ('A' for Active; 'I' for Inactive)
REMARK    1  A    between atoms: C_4  and  N_5
REMARK    2  A    between atoms: N_5  and  C_6
REMARK    3  A    between atoms: C_9  and  S_10
REMARK    4  A    between atoms: S_10  and  N_13
REMARK                            x       y       z     vdW  Elec       q    Type
REMARK                         _______ _______ _______ _____ _____    ______ ____
ROOT
ATOM      1  C   UNL     1       2.762   6.804  18.740  0.00  0.00    +0.000 A 
ATOM      2  C   UNL     1       2.606   7.851  17.818  0.00  0.00    +0.000 A 
ATOM      3  C   UNL     1       1.915   9.017  18.168  0.00  0.00    +0.000 A 
ATOM      4  C   UNL     1       1.353   9.136  19.441  0.00  0.00    +0.000 A 
ATOM      5  C   UNL     1       1.514   8.118  20.380  0.00  0.00    +0.000 A 
ATOM      6  C   UNL     1       2.190   6.948  20.016  0.00  0.00    +0.000 A 
ENDROOT
BRANCH   4   7
ATOM      7  S   UNL     1       0.448  10.609  19.874  0.00  0.00    +0.000 S 
ATOM      8  O   UNL     1      -0.696  10.219  20.669  0.00  0.00    +0.000 OA
ATOM      9  O   UNL     1       1.417  11.560  20.385  0.00  0.00    +0.000 OA
BRANCH   7  10
ATOM     10  N   UNL     1      -0.073  11.213  18.382  0.00  0.00    +0.000 N 
ATOM     11  C   UNL     1      -1.449  11.048  18.126  0.00  0.00    +0.000 A 
ATOM     12  C   UNL     1      -2.389  11.955  18.583  0.00  0.00    +0.000 A 
ATOM     13  C   UNL     1      -3.730  11.676  18.340  0.00  0.00    +0.000 A 
ATOM     14  C   UNL     1      -4.070  10.498  17.681  0.00  0.00    +0.000 A 
ATOM     15  C   UNL     1      -3.048   9.654  17.275  0.00  0.00    +0.000 A 
ATOM     16  N   UNL     1      -1.736   9.909  17.474  0.00  0.00    +0.000 NA
ATOM     17  H   UNL     1       0.470  10.786  17.634  0.00  0.00    +0.000 HD
ENDBRANCH   7  10
ENDBRANCH   4   7
BRANCH   1  18
ATOM     18  N   UNL     1       3.379   5.562  18.408  0.00  0.00    +0.000 N 
ATOM     19  H   UNL     1       2.978   4.851  19.022  0.00  0.00    +0.000 HD
BRANCH  18  23
ATOM     20  N   UNL     1       7.797   5.528  20.349  0.00  0.00    +0.000 NA
ATOM     21  C   UNL     1       7.007   5.354  19.350  0.00  0.00    +0.000 A 
ATOM     22  C   UNL     1       5.527   5.515  19.441  0.00  0.00    +0.000 A 
ATOM     23  C   UNL     1       4.767   5.417  18.331  0.00  0.00    +0.000 A 
ATOM     24  N   UNL     1       5.436   5.129  17.155  0.00  0.00    +0.000 N 
ATOM     25  N   UNL     1       4.847   4.825  15.947  0.00  0.00    +0.000 N 
ATOM     26  C   UNL     1       5.721   4.443  14.965  0.00  0.00    +0.000 A 
ATOM     27  S   UNL     1       5.251   4.073  13.419  0.00  0.00    +0.000 S 
ATOM     28  S   UNL     1       7.364   4.409  15.574  0.00  0.00    +0.000 S 
ATOM     29  C   UNL     1       6.786   4.896  17.151  0.00  0.00    +0.000 A 
ATOM     30  N   UNL     1       7.579   4.987  18.161  0.00  0.00    +0.000 NA
ATOM     31  H   UNL     1       7.287   5.798  21.191  0.00  0.00    +0.000 HD
ATOM     32  H   UNL     1       3.843   4.929  15.843  0.00  0.00    +0.000 HD
ENDBRANCH  18  23
ENDBRANCH   1  18
TORSDOF 4
ENDMDL
MODEL 3
REMARK VINA RESULT:      -8.5      3.043      8.465
REMARK  Name = 
REMARK  4 active torsions:
REMARK  status: ('A' for Active; 'I' for Inactive)
REMARK    1  A    between atoms: C_4  and  N_5
REMARK    2  A    between atoms: N_5  and  C_6
REMARK    3  A    between atoms: C_9  and  S_10
REMARK    4  A    between atoms: S_10  and  N_13
REMARK                            x       y       z     vdW  Elec       q    Type
REMARK                         _______ _______ _______ _____ _____    ______ ____
ROOT
ATOM      1  C   UNL     1       2.009   7.681  20.039  0.00  0.00    +0.000 A 
ATOM      2  C   UNL     1       1.942   8.333  18.798  0.00  0.00    +0.000 A 
ATOM      3  C   UNL     1       1.085   9.423  18.606  0.00  0.00    +0.000 A 
ATOM      4  C   UNL     1       0.268   9.858  19.652  0.00  0.00    +0.000 A 
ATOM      5  C   UNL     1       0.335   9.239  20.901  0.00  0.00    +0.000 A 
ATOM      6  C   UNL     1       1.180   8.139  21.079  0.00  0.00    +0.000 A 
ENDROOT
BRANCH   4   7
ATOM      7  S   UNL     1      -0.843  11.227  19.397  0.00  0.00    +0.000 S 
ATOM      8  O   UNL     1      -0.908  11.991  20.625  0.00  0.00    +0.000 OA
ATOM      9  O   UNL     1      -0.451  11.857  18.152  0.00  0.00    +0.000 OA
BRANCH   7  10
ATOM     10  N   UNL     1      -2.335  10.484  19.108  0.00  0.00    +0.000 N 
ATOM     11  C   UNL     1      -2.749  10.494  17.761  0.00  0.00    +0.000 A 
ATOM     12  C   UNL     1      -2.332   9.528  16.863  0.00  0.00    +0.000 A 
ATOM     13  C   UNL     1      -2.738   9.655  15.539  0.00  0.00    +0.000 A 
ATOM     14  C   UNL     1      -3.513  10.750  15.168  0.00  0.00    +0.000 A 
ATOM     15  C   UNL     1      -3.867  11.666  16.148  0.00  0.00    +0.000 A 
ATOM     16  N   UNL     1      -3.509  11.556  17.446  0.00  0.00    +0.000 NA
ATOM     17  H   UNL     1      -3.049  10.916  19.691  0.00  0.00    +0.000 HD
ENDBRANCH   7  10
ENDBRANCH   4   7
BRANCH   1  18
ATOM     18  N   UNL     1       2.797   6.514  20.263  0.00  0.00    +0.000 N 
ATOM     19  H   UNL     1       3.760   6.822  20.408  0.00  0.00    +0.000 HD
BRANCH  18  23
ATOM     20  N   UNL     1       0.688   2.575  18.439  0.00  0.00    +0.000 NA
ATOM     21  C   UNL     1       1.642   3.437  18.450  0.00  0.00    +0.000 A 
ATOM     22  C   UNL     1       1.678   4.606  19.374  0.00  0.00    +0.000 A 
ATOM     23  C   UNL     1       2.758   5.413  19.403  0.00  0.00    +0.000 A 
ATOM     24  N   UNL     1       3.774   5.106  18.515  0.00  0.00    +0.000 N 
ATOM     25  N   UNL     1       4.883   5.883  18.262  0.00  0.00    +0.000 N 
ATOM     26  C   UNL     1       5.677   5.431  17.241  0.00  0.00    +0.000 A 
ATOM     27  S   UNL     1       7.087   6.174  16.784  0.00  0.00    +0.000 S 
ATOM     28  S   UNL     1       4.994   3.989  16.517  0.00  0.00    +0.000 S 
ATOM     29  C   UNL     1       3.643   4.076  17.621  0.00  0.00    +0.000 A 
ATOM     30  N   UNL     1       2.655   3.254  17.545  0.00  0.00    +0.000 NA
ATOM     31  H   UNL     1      -0.020   2.789  19.142  0.00  0.00    +0.000 HD
ATOM     32  H   UNL     1       5.065   6.696  18.841  0.00  0.00    +0.000 HD
ENDBRANCH  18  23
ENDBRANCH   1  18
TORSDOF 4
ENDMDL
MODEL 4
REMARK VINA RESULT:      -8.5      1.094      1.410
REMARK  Name = 
REMARK  4 active torsions:
REMARK  status: ('A' for Active; 'I' for Inactive)
REMARK    1  A    between atoms: C_4  and  N_5
REMARK    2  A    between atoms: N_5  and  C_6
REMARK    3  A    between atoms: C_9  and  S_10
REMARK    4  A    between atoms: S_10  and  N_13
REMARK                            x       y       z     vdW  Elec       q    Type
REMARK                         _______ _______ _______ _____ _____    ______ ____
ROOT
ATOM      1  C   UNL     1       1.222  10.046  18.795  0.00  0.00    +0.000 A 
ATOM      2  C   UNL     1       1.101   9.270  19.958  0.00  0.00    +0.000 A 
ATOM      3  C   UNL     1       1.611   7.968  20.007  0.00  0.00    +0.000 A 
ATOM      4  C   UNL     1       2.229   7.421  18.881  0.00  0.00    +0.000 A 
ATOM      5  C   UNL     1       2.381   8.182  17.721  0.00  0.00    +0.000 A 
ATOM      6  C   UNL     1       1.852   9.476  17.675  0.00  0.00    +0.000 A 
ENDROOT
BRANCH   4   7
ATOM      7  S   UNL     1       2.852   5.752  18.936  0.00  0.00    +0.000 S 
ATOM      8  O   UNL     1       3.822   5.668  20.007  0.00  0.00    +0.000 OA
ATOM      9  O   UNL     1       1.699   4.874  18.909  0.00  0.00    +0.000 OA
BRANCH   7  10
ATOM     10  N   UNL     1       3.631   5.565  17.446  0.00  0.00    +0.000 N 
ATOM     11  C   UNL     1       5.037   5.652  17.499  0.00  0.00    +0.000 A 
ATOM     12  C   UNL     1       5.823   4.557  17.808  0.00  0.00    +0.000 A 
ATOM     13  C   UNL     1       7.197   4.753  17.902  0.00  0.00    +0.000 A 
ATOM     14  C   UNL     1       7.717   6.030  17.712  0.00  0.00    +0.000 A 
ATOM     15  C   UNL     1       6.836   7.059  17.415  0.00  0.00    +0.000 A 
ATOM     16  N   UNL     1       5.500   6.896  17.293  0.00  0.00    +0.000 NA
ATOM     17  H   UNL     1       3.268   6.249  16.784  0.00  0.00    +0.000 HD
ENDBRANCH   7  10
ENDBRANCH   4   7
BRANCH   1  18
ATOM     18  N   UNL     1       0.644  11.343  18.662  0.00  0.00    +0.000 N 
ATOM     19  H   UNL     1       1.278  12.005  19.111  0.00  0.00    +0.000 HD
BRANCH  18  23
ATOM     20  N   UNL     1      -2.715  12.997  21.707  0.00  0.00    +0.000 NA
ATOM     21  C   UNL     1      -2.373  12.505  20.569  0.00  0.00    +0.000 A 
ATOM     22  C   UNL     1      -0.959  12.220  20.194  0.00  0.00    +0.000 A 
ATOM     23  C   UNL     1      -0.679  11.610  19.024  0.00  0.00    +0.000 A 
ATOM     24  N   UNL     1      -1.762  11.316  18.214  0.00  0.00    +0.000 N 
ATOM     25  N   UNL     1      -1.695  10.848  16.920  0.00  0.00    +0.000 N 
ATOM     26  C   UNL     1      -2.903  10.763  16.280  0.00  0.00    +0.000 A 
ATOM     27  S   UNL     1      -3.079  10.188  14.735  0.00  0.00    +0.000 S 
ATOM     28  S   UNL     1      -4.196  11.336  17.315  0.00  0.00    +0.000 S 
ATOM     29  C   UNL     1      -3.031  11.690  18.569  0.00  0.00    +0.000 A 
ATOM     30  N   UNL     1      -3.378  12.257  19.672  0.00  0.00    +0.000 NA
ATOM     31  H   UNL     1      -1.906  13.150  22.310  0.00  0.00    +0.000 HD
ATOM     32  H   UNL     1      -0.798  10.572  16.536  0.00  0.00    +0.000 HD
ENDBRANCH  18  23
ENDBRANCH   1  18
TORSDOF 4
ENDMDL
MODEL 5
REMARK VINA RESULT:      -8.5      3.453      8.497
REMARK  Name = 
REMARK  4 active torsions:
REMARK  status: ('A' for Active; 'I' for Inactive)
REMARK    1  A    between atoms: C_4  and  N_5
REMARK    2  A    between atoms: N_5  and  C_6
REMARK    3  A    between atoms: C_9  and  S_10
REMARK    4  A    between atoms: S_10  and  N_13
REMARK                            x       y       z     vdW  Elec       q    Type
REMARK                         _______ _______ _______ _____ _____    ______ ____
ROOT
ATOM      1  C   UNL     1       1.950   7.583  20.113  0.00  0.00    +0.000 A 
ATOM      2  C   UNL     1       1.980   8.229  18.868  0.00  0.00    +0.000 A 
ATOM      3  C   UNL     1       1.206   9.372  18.634  0.00  0.00    +0.000 A 
ATOM      4  C   UNL     1       0.374   9.866  19.640  0.00  0.00    +0.000 A 
ATOM      5  C   UNL     1       0.344   9.253  20.893  0.00  0.00    +0.000 A 
ATOM      6  C   UNL     1       1.107   8.101  21.113  0.00  0.00    +0.000 A 
ENDROOT
BRANCH   4   7
ATOM      7  S   UNL     1      -0.633  11.303  19.330  0.00  0.00    +0.000 S 
ATOM      8  O   UNL     1      -1.906  10.857  18.804  0.00  0.00    +0.000 OA
ATOM      9  O   UNL     1      -0.570  12.124  20.523  0.00  0.00    +0.000 OA
BRANCH   7  10
ATOM     10  N   UNL     1       0.219  12.137  18.129  0.00  0.00    +0.000 N 
ATOM     11  C   UNL     1       1.025  13.192  18.603  0.00  0.00    +0.000 A 
ATOM     12  C   UNL     1       2.309  12.976  19.068  0.00  0.00    +0.000 A 
ATOM     13  C   UNL     1       3.006  14.067  19.577  0.00  0.00    +0.000 A 
ATOM     14  C   UNL     1       2.383  15.310  19.624  0.00  0.00    +0.000 A 
ATOM     15  C   UNL     1       1.088  15.413  19.139  0.00  0.00    +0.000 A 
ATOM     16  N   UNL     1       0.394  14.378  18.616  0.00  0.00    +0.000 NA
ATOM     17  H   UNL     1      -0.433  12.488  17.431  0.00  0.00    +0.000 HD
ENDBRANCH   7  10
ENDBRANCH   4   7
BRANCH   1  18
ATOM     18  N   UNL     1       2.649   6.369  20.377  0.00  0.00    +0.000 N 
ATOM     19  H   UNL     1       3.618   6.616  20.584  0.00  0.00    +0.000 HD
BRANCH  18  23
ATOM     20  N   UNL     1       0.497   2.463  18.534  0.00  0.00    +0.000 NA
ATOM     21  C   UNL     1       1.458   3.316  18.546  0.00  0.00    +0.000 A 
ATOM     22  C   UNL     1       1.509   4.477  19.480  0.00  0.00    +0.000 A 
ATOM     23  C   UNL     1       2.596   5.276  19.509  0.00  0.00    +0.000 A 
ATOM     24  N   UNL     1       3.604   4.967  18.613  0.00  0.00    +0.000 N 
ATOM     25  N   UNL     1       4.718   5.737  18.359  0.00  0.00    +0.000 N 
ATOM     26  C   UNL     1       5.502   5.288  17.330  0.00  0.00    +0.000 A 
ATOM     27  S   UNL     1       6.915   6.022  16.871  0.00  0.00    +0.000 S 
ATOM     28  S   UNL     1       4.804   3.857  16.598  0.00  0.00    +0.000 S 
ATOM     29  C   UNL     1       3.459   3.946  17.711  0.00  0.00    +0.000 A 
ATOM     30  N   UNL     1       2.464   3.133  17.635  0.00  0.00    +0.000 NA
ATOM     31  H   UNL     1      -0.205   2.676  19.243  0.00  0.00    +0.000 HD
ATOM     32  H   UNL     1       4.910   6.544  18.944  0.00  0.00    +0.000 HD
ENDBRANCH  18  23
ENDBRANCH   1  18
TORSDOF 4
ENDMDL
MODEL 6
REMARK VINA RESULT:      -8.5      3.121      4.122
REMARK  Name = 
REMARK  4 active torsions:
REMARK  status: ('A' for Active; 'I' for Inactive)
REMARK    1  A    between atoms: C_4  and  N_5
REMARK    2  A    between atoms: N_5  and  C_6
REMARK    3  A    between atoms: C_9  and  S_10
REMARK    4  A    between atoms: S_10  and  N_13
REMARK                            x       y       z     vdW  Elec       q    Type
REMARK                         _______ _______ _______ _____ _____    ______ ____
ROOT
ATOM      1  C   UNL     1       1.364   8.641  19.489  0.00  0.00    +0.000 A 
ATOM      2  C   UNL     1       1.945   8.820  18.225  0.00  0.00    +0.000 A 
ATOM      3  C   UNL     1       2.936   7.947  17.761  0.00  0.00    +0.000 A 
ATOM      4  C   UNL     1       3.372   6.897  18.572  0.00  0.00    +0.000 A 
ATOM      5  C   UNL     1       2.793   6.687  19.824  0.00  0.00    +0.000 A 
ATOM      6  C   UNL     1       1.816   7.575  20.287  0.00  0.00    +0.000 A 
ENDROOT
BRANCH   4   7
ATOM      7  S   UNL     1       4.655   5.805  17.991  0.00  0.00    +0.000 S 
ATOM      8  O   UNL     1       5.617   6.592  17.251  0.00  0.00    +0.000 OA
ATOM      9  O   UNL     1       5.068   5.004  19.127  0.00  0.00    +0.000 OA
BRANCH   7  10
ATOM     10  N   UNL     1       3.843   4.758  16.938  0.00  0.00    +0.000 N 
ATOM     11  C   UNL     1       3.060   3.773  17.572  0.00  0.00    +0.000 A 
ATOM     12  C   UNL     1       1.764   4.025  17.983  0.00  0.00    +0.000 A 
ATOM     13  C   UNL     1       1.090   3.013  18.659  0.00  0.00    +0.000 A 
ATOM     14  C   UNL     1       1.748   1.813  18.917  0.00  0.00    +0.000 A 
ATOM     15  C   UNL     1       3.052   1.670  18.469  0.00  0.00    +0.000 A 
ATOM     16  N   UNL     1       3.724   2.625  17.788  0.00  0.00    +0.000 NA
ATOM     17  H   UNL     1       4.514   4.316  16.314  0.00  0.00    +0.000 HD
ENDBRANCH   7  10
ENDBRANCH   4   7
BRANCH   1  18
ATOM     18  N   UNL     1       0.416   9.550  20.045  0.00  0.00    +0.000 N 
ATOM     19  H   UNL     1      -0.375   8.997  20.377  0.00  0.00    +0.000 HD
BRANCH  18  23
ATOM     20  N   UNL     1      -2.644  11.825  17.087  0.00  0.00    +0.000 NA
ATOM     21  C   UNL     1      -1.632  11.832  17.880  0.00  0.00    +0.000 A 
ATOM     22  C   UNL     1      -1.160  10.624  18.613  0.00  0.00    +0.000 A 
ATOM     23  C   UNL     1      -0.031  10.677  19.350  0.00  0.00    +0.000 A 
ATOM     24  N   UNL     1       0.608  11.903  19.400  0.00  0.00    +0.000 N 
ATOM     25  N   UNL     1       1.672  12.223  20.216  0.00  0.00    +0.000 N 
ATOM     26  C   UNL     1       2.041  13.541  20.182  0.00  0.00    +0.000 A 
ATOM     27  S   UNL     1       3.320  14.153  21.042  0.00  0.00    +0.000 S 
ATOM     28  S   UNL     1       0.988  14.455  19.120  0.00  0.00    +0.000 S 
ATOM     29  C   UNL     1       0.073  13.004  18.784  0.00  0.00    +0.000 A 
ATOM     30  N   UNL     1      -0.986  13.028  18.052  0.00  0.00    +0.000 NA
ATOM     31  H   UNL     1      -3.063  10.897  17.019  0.00  0.00    +0.000 HD
ATOM     32  H   UNL     1       2.128  11.491  20.749  0.00  0.00    +0.000 HD
ENDBRANCH  18  23
ENDBRANCH   1  18
TORSDOF 4
ENDMDL
MODEL 7
REMARK VINA RESULT:      -8.5      3.421      4.235
REMARK  Name = 
REMARK  4 active torsions:
REMARK  status: ('A' for Active; 'I' for Inactive)
REMARK    1  A    between atoms: C_4  and  N_5
REMARK    2  A    between atoms: N_5  and  C_6
REMARK    3  A    between atoms: C_9  and  S_10
REMARK    4  A    between atoms: S_10  and  N_13
REMARK                            x       y       z     vdW  Elec       q    Type
REMARK                         _______ _______ _______ _____ _____    ______ ____
ROOT
ATOM      1  C   UNL     1       2.263   7.905  18.600  0.00  0.00    +0.000 A 
ATOM      2  C   UNL     1       2.445   6.943  19.605  0.00  0.00    +0.000 A 
ATOM      3  C   UNL     1       3.465   5.989  19.509  0.00  0.00    +0.000 A 
ATOM      4  C   UNL     1       4.300   5.976  18.389  0.00  0.00    +0.000 A 
ATOM      5  C   UNL     1       4.151   6.936  17.388  0.00  0.00    +0.000 A 
ATOM      6  C   UNL     1       3.118   7.874  17.484  0.00  0.00    +0.000 A 
ENDROOT
BRANCH   4   7
ATOM      7  S   UNL     1       5.579   4.742  18.254  0.00  0.00    +0.000 S 
ATOM      8  O   UNL     1       6.667   5.303  17.482  0.00  0.00    +0.000 OA
ATOM      9  O   UNL     1       5.806   4.227  19.590  0.00  0.00    +0.000 OA
BRANCH   7  10
ATOM     10  N   UNL     1       4.842   3.495  17.379  0.00  0.00    +0.000 N 
ATOM     11  C   UNL     1       3.548   3.151  17.818  0.00  0.00    +0.000 A 
ATOM     12  C   UNL     1       2.426   3.834  17.383  0.00  0.00    +0.000 A 
ATOM     13  C   UNL     1       1.196   3.467  17.920  0.00  0.00    +0.000 A 
ATOM     14  C   UNL     1       1.147   2.462  18.881  0.00  0.00    +0.000 A 
ATOM     15  C   UNL     1       2.334   1.849  19.252  0.00  0.00    +0.000 A 
ATOM     16  N   UNL     1       3.540   2.166  18.731  0.00  0.00    +0.000 NA
ATOM     17  H   UNL     1       5.440   2.672  17.392  0.00  0.00    +0.000 HD
ENDBRANCH   7  10
ENDBRANCH   4   7
BRANCH   1  18
ATOM     18  N   UNL     1       1.187   8.842  18.606  0.00  0.00    +0.000 N 
ATOM     19  H   UNL     1       1.301   9.438  17.786  0.00  0.00    +0.000 HD
BRANCH  18  23
ATOM     20  N   UNL     1      -0.530   9.374  23.084  0.00  0.00    +0.000 NA
ATOM     21  C   UNL     1       0.042   9.850  22.035  0.00  0.00    +0.000 A 
ATOM     22  C   UNL     1       0.368   9.025  20.837  0.00  0.00    +0.000 A 
ATOM     23  C   UNL     1       0.875   9.609  19.731  0.00  0.00    +0.000 A 
ATOM     24  N   UNL     1       1.095  10.972  19.807  0.00  0.00    +0.000 N 
ATOM     25  N   UNL     1       1.752  11.734  18.865  0.00  0.00    +0.000 N 
ATOM     26  C   UNL     1       1.964  13.037  19.231  0.00  0.00    +0.000 A 
ATOM     27  S   UNL     1       2.693  14.154  18.247  0.00  0.00    +0.000 S 
ATOM     28  S   UNL     1       1.363  13.332  20.850  0.00  0.00    +0.000 S 
ATOM     29  C   UNL     1       0.867  11.661  20.969  0.00  0.00    +0.000 A 
ATOM     30  N   UNL     1       0.370  11.179  22.055  0.00  0.00    +0.000 NA
ATOM     31  H   UNL     1      -0.737   8.380  22.983  0.00  0.00    +0.000 HD
ATOM     32  H   UNL     1       2.003  11.318  17.975  0.00  0.00    +0.000 HD
ENDBRANCH  18  23
ENDBRANCH   1  18
TORSDOF 4
ENDMDL
MODEL 8
REMARK VINA RESULT:      -8.5      3.113      8.490
REMARK  Name = 
REMARK  4 active torsions:
REMARK  status: ('A' for Active; 'I' for Inactive)
REMARK    1  A    between atoms: C_4  and  N_5
REMARK    2  A    between atoms: N_5  and  C_6
REMARK    3  A    between atoms: C_9  and  S_10
REMARK    4  A    between atoms: S_10  and  N_13
REMARK                            x       y       z     vdW  Elec       q    Type
REMARK                         _______ _______ _______ _____ _____    ______ ____
ROOT
ATOM      1  C   UNL     1       1.994   7.216  20.218  0.00  0.00    +0.000 A 
ATOM      2  C   UNL     1       1.227   7.849  21.208  0.00  0.00    +0.000 A 
ATOM      3  C   UNL     1       0.653   9.105  20.977  0.00  0.00    +0.000 A 
ATOM      4  C   UNL     1       0.863   9.751  19.757  0.00  0.00    +0.000 A 
ATOM      5  C   UNL     1       1.604   9.131  18.750  0.00  0.00    +0.000 A 
ATOM      6  C   UNL     1       2.188   7.884  18.996  0.00  0.00    +0.000 A 
ENDROOT
BRANCH   4   7
ATOM      7  S   UNL     1       0.157  11.363  19.476  0.00  0.00    +0.000 S 
ATOM      8  O   UNL     1      -0.939  11.543  20.404  0.00  0.00    +0.000 OA
ATOM      9  O   UNL     1       1.260  12.303  19.440  0.00  0.00    +0.000 OA
BRANCH   7  10
ATOM     10  N   UNL     1      -0.442  11.268  17.897  0.00  0.00    +0.000 N 
ATOM     11  C   UNL     1      -1.825  11.012  17.805  0.00  0.00    +0.000 A 
ATOM     12  C   UNL     1      -2.761  12.028  17.874  0.00  0.00    +0.000 A 
ATOM     13  C   UNL     1      -4.106  11.674  17.840  0.00  0.00    +0.000 A 
ATOM     14  C   UNL     1      -4.453  10.327  17.768  0.00  0.00    +0.000 A 
ATOM     15  C   UNL     1      -3.433   9.389  17.714  0.00  0.00    +0.000 A 
ATOM     16  N   UNL     1      -2.118   9.703  17.720  0.00  0.00    +0.000 NA
ATOM     17  H   UNL     1       0.074  10.561  17.379  0.00  0.00    +0.000 HD
ENDBRANCH   7  10
ENDBRANCH   4   7
BRANCH   1  18
ATOM     18  N   UNL     1       2.671   5.979  20.431  0.00  0.00    +0.000 N 
ATOM     19  H   UNL     1       3.628   6.202  20.708  0.00  0.00    +0.000 HD
BRANCH  18  23
ATOM     20  N   UNL     1       0.676   2.135  18.304  0.00  0.00    +0.000 NA
ATOM     21  C   UNL     1       1.601   3.024  18.379  0.00  0.00    +0.000 A 
ATOM     22  C   UNL     1       1.607   4.114  19.396  0.00  0.00    +0.000 A 
ATOM     23  C   UNL     1       2.661   4.952  19.484  0.00  0.00    +0.000 A 
ATOM     24  N   UNL     1       3.678   4.752  18.568  0.00  0.00    +0.000 N 
ATOM     25  N   UNL     1       4.759   5.584  18.372  0.00  0.00    +0.000 N 
ATOM     26  C   UNL     1       5.557   5.245  17.313  0.00  0.00    +0.000 A 
ATOM     27  S   UNL     1       6.938   6.068  16.909  0.00  0.00    +0.000 S 
ATOM     28  S   UNL     1       4.916   3.844  16.477  0.00  0.00    +0.000 S 
ATOM     29  C   UNL     1       3.572   3.796  17.594  0.00  0.00    +0.000 A 
ATOM     30  N   UNL     1       2.611   2.950  17.457  0.00  0.00    +0.000 NA
ATOM     31  H   UNL     1      -0.033   2.266  19.026  0.00  0.00    +0.000 HD
ATOM     32  H   UNL     1       4.918   6.353  19.015  0.00  0.00    +0.000 HD
ENDBRANCH  18  23
ENDBRANCH   1  18
TORSDOF 4
ENDMDL
MODEL 9
REMARK VINA RESULT:      -8.5      3.454      8.372
REMARK  Name = 
REMARK  4 active torsions:
REMARK  status: ('A' for Active; 'I' for Inactive)
REMARK    1  A    between atoms: C_4  and  N_5
REMARK    2  A    between atoms: N_5  and  C_6
REMARK    3  A    between atoms: C_9  and  S_10
REMARK    4  A    between atoms: S_10  and  N_13
REMARK                            x       y       z     vdW  Elec       q    Type
REMARK                         _______ _______ _______ _____ _____    ______ ____
ROOT
ATOM      1  C   UNL     1       1.553   8.292  19.961  0.00  0.00    +0.000 A 
ATOM      2  C   UNL     1       0.637   8.808  20.890  0.00  0.00    +0.000 A 
ATOM      3  C   UNL     1      -0.260   9.819  20.527  0.00  0.00    +0.000 A 
ATOM      4  C   UNL     1      -0.232  10.341  19.232  0.00  0.00    +0.000 A 
ATOM      5  C   UNL     1       0.656   9.828  18.285  0.00  0.00    +0.000 A 
ATOM      6  C   UNL     1       1.561   8.830  18.662  0.00  0.00    +0.000 A 
ENDROOT
BRANCH   4   7
ATOM      7  S   UNL     1      -1.355  11.648  18.780  0.00  0.00    +0.000 S 
ATOM      8  O   UNL     1      -2.419  11.075  17.984  0.00  0.00    +0.000 OA
ATOM      9  O   UNL     1      -1.651  12.384  19.993  0.00  0.00    +0.000 OA
BRANCH   7  10
ATOM     10  N   UNL     1      -0.412  12.672  17.818  0.00  0.00    +0.000 N 
ATOM     11  C   UNL     1       0.340  13.627  18.533  0.00  0.00    +0.000 A 
ATOM     12  C   UNL     1       1.582  13.327  19.063  0.00  0.00    +0.000 A 
ATOM     13  C   UNL     1       2.222  14.312  19.809  0.00  0.00    +0.000 A 
ATOM     14  C   UNL     1       1.584  15.532  20.014  0.00  0.00    +0.000 A 
ATOM     15  C   UNL     1       0.334  15.722  19.445  0.00  0.00    +0.000 A 
ATOM     16  N   UNL     1      -0.302  14.795  18.695  0.00  0.00    +0.000 NA
ATOM     17  H   UNL     1      -1.005  13.141  17.137  0.00  0.00    +0.000 HD
ENDBRANCH   7  10
ENDBRANCH   4   7
BRANCH   1  18
ATOM     18  N   UNL     1       2.546   7.326  20.302  0.00  0.00    +0.000 N 
ATOM     19  H   UNL     1       3.447   7.698  19.999  0.00  0.00    +0.000 HD
BRANCH  18  23
ATOM     20  N   UNL     1       0.691   2.903  20.838  0.00  0.00    +0.000 NA
ATOM     21  C   UNL     1       1.429   3.743  20.204  0.00  0.00    +0.000 A 
ATOM     22  C   UNL     1       1.555   5.177  20.593  0.00  0.00    +0.000 A 
ATOM     23  C   UNL     1       2.426   5.979  19.947  0.00  0.00    +0.000 A 
ATOM     24  N   UNL     1       3.138   5.400  18.912  0.00  0.00    +0.000 N 
ATOM     25  N   UNL     1       3.951   6.068  18.022  0.00  0.00    +0.000 N 
ATOM     26  C   UNL     1       4.439   5.295  17.002  0.00  0.00    +0.000 A 
ATOM     27  S   UNL     1       5.471   5.866  15.838  0.00  0.00    +0.000 S 
ATOM     28  S   UNL     1       3.825   3.658  17.117  0.00  0.00    +0.000 S 
ATOM     29  C   UNL     1       2.909   4.103  18.538  0.00  0.00    +0.000 A 
ATOM     30  N   UNL     1       2.111   3.273  19.114  0.00  0.00    +0.000 NA
ATOM     31  H   UNL     1       0.221   3.339  21.633  0.00  0.00    +0.000 HD
ATOM     32  H   UNL     1       4.163   7.047  18.180  0.00  0.00    +0.000 HD
ENDBRANCH  18  23
ENDBRANCH   1  18
TORSDOF 4
ENDMDL
