MODEL 1
REMARK VINA RESULT:      -7.3      0.000      0.000
REMARK  Name = 
REMARK  4 active torsions:
REMARK  status: ('A' for Active; 'I' for Inactive)
REMARK    1  A    between atoms: C_1  and  S_2
REMARK    2  A    between atoms: S_2  and  C_5
REMARK    3  A    between atoms: C_9  and  C_10
REMARK    4  A    between atoms: C_11  and  C_12
REMARK                            x       y       z     vdW  Elec       q    Type
REMARK                         _______ _______ _______ _____ _____    ______ ____
ROOT
ATOM      1  C   UNL     1       6.662   5.879  16.893  0.00  0.00    +0.000 A 
ATOM      2  C   UNL     1       7.021   4.907  17.833  0.00  0.00    +0.000 A 
ATOM      3  C   UNL     1       7.806   5.270  18.927  0.00  0.00    +0.000 A 
ATOM      4  C   UNL     1       8.238   6.590  19.067  0.00  0.00    +0.000 A 
ATOM      5  C   UNL     1       7.902   7.552  18.109  0.00  0.00    +0.000 A 
ATOM      6  C   UNL     1       7.110   7.198  17.015  0.00  0.00    +0.000 A 
ENDROOT
BRANCH   1   8
ATOM      7  C   UNL     1       6.881   4.765  14.340  0.00  0.00    +0.000 C 
ATOM      8  S   UNL     1       5.687   5.409  15.482  0.00  0.00    +0.000 S 
ATOM      9  O   UNL     1       5.131   6.623  14.913  0.00  0.00    +0.000 OA
ATOM     10  O   UNL     1       4.823   4.318  15.892  0.00  0.00    +0.000 OA
ENDBRANCH   1   8
BRANCH   5  11
ATOM     11  C   UNL     1       8.402   8.885  18.246  0.00  0.00    +0.000 C 
ATOM     12  C   UNL     1       8.882   9.980  18.365  0.00  0.00    +0.000 C 
BRANCH  12  13
ATOM     13  C   UNL     1       9.514  11.253  18.516  0.00  0.00    +0.000 A 
ATOM     14  C   UNL     1      10.595  11.429  19.374  0.00  0.00    +0.000 A 
ATOM     15  C   UNL     1      11.191  12.685  19.475  0.00  0.00    +0.000 A 
ATOM     16  C   UNL     1      10.678  13.723  18.710  0.00  0.00    +0.000 A 
ATOM     17  N   UNL     1       9.629  13.587  17.871  0.00  0.00    +0.000 NA
ATOM     18  C   UNL     1       9.071  12.355  17.794  0.00  0.00    +0.000 A 
ENDBRANCH  12  13
ENDBRANCH   5  11
TORSDOF 3
ENDMDL
MODEL 2
REMARK VINA RESULT:      -7.2      1.000      1.117
REMARK  Name = 
REMARK  4 active torsions:
REMARK  status: ('A' for Active; 'I' for Inactive)
REMARK    1  A    between atoms: C_1  and  S_2
REMARK    2  A    between atoms: S_2  and  C_5
REMARK    3  A    between atoms: C_9  and  C_10
REMARK    4  A    between atoms: C_11  and  C_12
REMARK                            x       y       z     vdW  Elec       q    Type
REMARK                         _______ _______ _______ _____ _____    ______ ____
ROOT
ATOM      1  C   UNL     1       7.093   5.809  16.722  0.00  0.00    +0.000 A 
ATOM      2  C   UNL     1       7.235   4.835  17.716  0.00  0.00    +0.000 A 
ATOM      3  C   UNL     1       7.757   5.195  18.957  0.00  0.00    +0.000 A 
ATOM      4  C   UNL     1       8.149   6.515  19.193  0.00  0.00    +0.000 A 
ATOM      5  C   UNL     1       8.033   7.479  18.185  0.00  0.00    +0.000 A 
ATOM      6  C   UNL     1       7.503   7.127  16.943  0.00  0.00    +0.000 A 
ENDROOT
BRANCH   1   8
ATOM      7  C   UNL     1       5.901   3.674  15.369  0.00  0.00    +0.000 C 
ATOM      8  S   UNL     1       6.455   5.341  15.129  0.00  0.00    +0.000 S 
ATOM      9  O   UNL     1       7.573   5.313  14.204  0.00  0.00    +0.000 OA
ATOM     10  O   UNL     1       5.292   6.167  14.864  0.00  0.00    +0.000 OA
ENDBRANCH   1   8
BRANCH   5  11
ATOM     11  C   UNL     1       8.490   8.811  18.432  0.00  0.00    +0.000 C 
ATOM     12  C   UNL     1       8.922   9.906  18.678  0.00  0.00    +0.000 C 
BRANCH  12  13
ATOM     13  C   UNL     1       9.477  11.179  19.014  0.00  0.00    +0.000 A 
ATOM     14  C   UNL     1       9.907  11.464  20.307  0.00  0.00    +0.000 A 
ATOM     15  C   UNL     1      10.459  12.714  20.583  0.00  0.00    +0.000 A 
ATOM     16  C   UNL     1      10.559  13.635  19.551  0.00  0.00    +0.000 A 
ATOM     17  N   UNL     1      10.149  13.392  18.288  0.00  0.00    +0.000 NA
ATOM     18  C   UNL     1       9.616  12.169  18.049  0.00  0.00    +0.000 A 
ENDBRANCH  12  13
ENDBRANCH   5  11
TORSDOF 3
ENDMDL
MODEL 3
REMARK VINA RESULT:      -7.2      1.052      1.234
REMARK  Name = 
REMARK  4 active torsions:
REMARK  status: ('A' for Active; 'I' for Inactive)
REMARK    1  A    between atoms: C_1  and  S_2
REMARK    2  A    between atoms: S_2  and  C_5
REMARK    3  A    between atoms: C_9  and  C_10
REMARK    4  A    between atoms: C_11  and  C_12
REMARK                            x       y       z     vdW  Elec       q    Type
REMARK                         _______ _______ _______ _____ _____    ______ ____
ROOT
ATOM      1  C   UNL     1       6.872   5.926  16.971  0.00  0.00    +0.000 A 
ATOM      2  C   UNL     1       7.178   5.057  18.023  0.00  0.00    +0.000 A 
ATOM      3  C   UNL     1       7.881   5.539  19.126  0.00  0.00    +0.000 A 
ATOM      4  C   UNL     1       8.288   6.875  19.165  0.00  0.00    +0.000 A 
ATOM      5  C   UNL     1       8.006   7.732  18.097  0.00  0.00    +0.000 A 
ATOM      6  C   UNL     1       7.295   7.260  16.993  0.00  0.00    +0.000 A 
ENDROOT
BRANCH   1   8
ATOM      7  C   UNL     1       4.861   4.131  16.235  0.00  0.00    +0.000 C 
ATOM      8  S   UNL     1       6.001   5.303  15.551  0.00  0.00    +0.000 S 
ATOM      9  O   UNL     1       6.959   4.575  14.739  0.00  0.00    +0.000 OA
ATOM     10  O   UNL     1       5.236   6.401  14.991  0.00  0.00    +0.000 OA
ENDBRANCH   1   8
BRANCH   5  11
ATOM     11  C   UNL     1       8.479   9.082  18.135  0.00  0.00    +0.000 C 
ATOM     12  C   UNL     1       8.922  10.199  18.124  0.00  0.00    +0.000 C 
BRANCH  12  13
ATOM     13  C   UNL     1       9.498  11.505  18.070  0.00  0.00    +0.000 A 
ATOM     14  C   UNL     1      10.879  11.689  18.069  0.00  0.00    +0.000 A 
ATOM     15  C   UNL     1      11.395  12.982  17.996  0.00  0.00    +0.000 A 
ATOM     16  C   UNL     1      10.507  14.045  17.929  0.00  0.00    +0.000 A 
ATOM     17  N   UNL     1       9.165  13.902  17.932  0.00  0.00    +0.000 NA
ATOM     18  C   UNL     1       8.692  12.634  18.003  0.00  0.00    +0.000 A 
ENDBRANCH  12  13
ENDBRANCH   5  11
TORSDOF 3
ENDMDL
MODEL 4
REMARK VINA RESULT:      -7.1      1.105      1.516
REMARK  Name = 
REMARK  4 active torsions:
REMARK  status: ('A' for Active; 'I' for Inactive)
REMARK    1  A    between atoms: C_1  and  S_2
REMARK    2  A    between atoms: S_2  and  C_5
REMARK    3  A    between atoms: C_9  and  C_10
REMARK    4  A    between atoms: C_11  and  C_12
REMARK                            x       y       z     vdW  Elec       q    Type
REMARK                         _______ _______ _______ _____ _____    ______ ____
ROOT
ATOM      1  C   UNL     1       7.106   5.929  16.814  0.00  0.00    +0.000 A 
ATOM      2  C   UNL     1       7.314   5.020  17.857  0.00  0.00    +0.000 A 
ATOM      3  C   UNL     1       7.875   5.467  19.053  0.00  0.00    +0.000 A 
ATOM      4  C   UNL     1       8.239   6.808  19.194  0.00  0.00    +0.000 A 
ATOM      5  C   UNL     1       8.057   7.706  18.137  0.00  0.00    +0.000 A 
ATOM      6  C   UNL     1       7.489   7.268  16.940  0.00  0.00    +0.000 A 
ENDROOT
BRANCH   1   8
ATOM      7  C   UNL     1       5.826   3.726  15.666  0.00  0.00    +0.000 C 
ATOM      8  S   UNL     1       6.419   5.351  15.279  0.00  0.00    +0.000 S 
ATOM      9  O   UNL     1       7.514   5.216  14.336  0.00  0.00    +0.000 OA
ATOM     10  O   UNL     1       5.274   6.186  14.971  0.00  0.00    +0.000 OA
ENDBRANCH   1   8
BRANCH   5  11
ATOM     11  C   UNL     1       8.488   9.062  18.287  0.00  0.00    +0.000 C 
ATOM     12  C   UNL     1       8.905  10.179  18.438  0.00  0.00    +0.000 C 
BRANCH  12  13
ATOM     13  C   UNL     1       9.455  11.481  18.650  0.00  0.00    +0.000 A 
ATOM     14  C   UNL     1       9.196  12.529  17.770  0.00  0.00    +0.000 A 
ATOM     15  C   UNL     1       9.740  13.786  18.028  0.00  0.00    +0.000 A 
ATOM     16  C   UNL     1      10.525  13.948  19.159  0.00  0.00    +0.000 A 
ATOM     17  N   UNL     1      10.798  12.953  20.030  0.00  0.00    +0.000 NA
ATOM     18  C   UNL     1      10.257  11.742  19.754  0.00  0.00    +0.000 A 
ENDBRANCH  12  13
ENDBRANCH   5  11
TORSDOF 3
ENDMDL
MODEL 5
REMARK VINA RESULT:      -7.1      0.671      1.151
REMARK  Name = 
REMARK  4 active torsions:
REMARK  status: ('A' for Active; 'I' for Inactive)
REMARK    1  A    between atoms: C_1  and  S_2
REMARK    2  A    between atoms: S_2  and  C_5
REMARK    3  A    between atoms: C_9  and  C_10
REMARK    4  A    between atoms: C_11  and  C_12
REMARK                            x       y       z     vdW  Elec       q    Type
REMARK                         _______ _______ _______ _____ _____    ______ ____
ROOT
ATOM      1  C   UNL     1       6.621   5.939  17.007  0.00  0.00    +0.000 A 
ATOM      2  C   UNL     1       7.015   5.018  17.984  0.00  0.00    +0.000 A 
ATOM      3  C   UNL     1       7.838   5.438  19.028  0.00  0.00    +0.000 A 
ATOM      4  C   UNL     1       8.275   6.763  19.082  0.00  0.00    +0.000 A 
ATOM      5  C   UNL     1       7.903   7.672  18.086  0.00  0.00    +0.000 A 
ATOM      6  C   UNL     1       7.073   7.262  17.042  0.00  0.00    +0.000 A 
ENDROOT
BRANCH   1   8
ATOM      7  C   UNL     1       6.718   4.517  14.603  0.00  0.00    +0.000 C 
ATOM      8  S   UNL     1       5.596   5.395  15.659  0.00  0.00    +0.000 S 
ATOM      9  O   UNL     1       5.147   6.579  14.950  0.00  0.00    +0.000 OA
ATOM     10  O   UNL     1       4.642   4.442  16.193  0.00  0.00    +0.000 OA
ENDBRANCH   1   8
BRANCH   5  11
ATOM     11  C   UNL     1       8.407   9.010  18.134  0.00  0.00    +0.000 C 
ATOM     12  C   UNL     1       8.859  10.120  18.231  0.00  0.00    +0.000 C 
BRANCH  12  13
ATOM     13  C   UNL     1       9.418  11.423  18.408  0.00  0.00    +0.000 A 
ATOM     14  C   UNL     1       8.869  12.539  17.783  0.00  0.00    +0.000 A 
ATOM     15  C   UNL     1       9.438  13.792  18.000  0.00  0.00    +0.000 A 
ATOM     16  C   UNL     1      10.540  13.882  18.837  0.00  0.00    +0.000 A 
ATOM     17  N   UNL     1      11.098  12.821  19.457  0.00  0.00    +0.000 NA
ATOM     18  C   UNL     1      10.525  11.615  19.226  0.00  0.00    +0.000 A 
ENDBRANCH  12  13
ENDBRANCH   5  11
TORSDOF 3
ENDMDL
MODEL 6
REMARK VINA RESULT:      -7.1      6.952      8.063
REMARK  Name = 
REMARK  4 active torsions:
REMARK  status: ('A' for Active; 'I' for Inactive)
REMARK    1  A    between atoms: C_1  and  S_2
REMARK    2  A    between atoms: S_2  and  C_5
REMARK    3  A    between atoms: C_9  and  C_10
REMARK    4  A    between atoms: C_11  and  C_12
REMARK                            x       y       z     vdW  Elec       q    Type
REMARK                         _______ _______ _______ _____ _____    ______ ____
ROOT
ATOM      1  C   UNL     1       3.252   4.328  19.289  0.00  0.00    +0.000 A 
ATOM      2  C   UNL     1       3.748   4.626  18.016  0.00  0.00    +0.000 A 
ATOM      3  C   UNL     1       3.650   5.929  17.530  0.00  0.00    +0.000 A 
ATOM      4  C   UNL     1       3.045   6.920  18.308  0.00  0.00    +0.000 A 
ATOM      5  C   UNL     1       2.523   6.610  19.568  0.00  0.00    +0.000 A 
ATOM      6  C   UNL     1       2.625   5.310  20.065  0.00  0.00    +0.000 A 
ENDROOT
BRANCH   1   8
ATOM      7  C   UNL     1       2.546   2.734  21.473  0.00  0.00    +0.000 C 
ATOM      8  S   UNL     1       3.351   2.659  19.895  0.00  0.00    +0.000 S 
ATOM      9  O   UNL     1       4.753   2.361  20.120  0.00  0.00    +0.000 OA
ATOM     10  O   UNL     1       2.546   1.829  19.019  0.00  0.00    +0.000 OA
ENDBRANCH   1   8
BRANCH   5  11
ATOM     11  C   UNL     1       1.860   7.628  20.323  0.00  0.00    +0.000 C 
ATOM     12  C   UNL     1       1.270   8.500  20.903  0.00  0.00    +0.000 C 
BRANCH  12  13
ATOM     13  C   UNL     1       0.541   9.554  21.535  0.00  0.00    +0.000 A 
ATOM     14  C   UNL     1      -0.362   9.296  22.563  0.00  0.00    +0.000 A 
ATOM     15  C   UNL     1      -1.037  10.358  23.161  0.00  0.00    +0.000 A 
ATOM     16  C   UNL     1      -0.784  11.643  22.705  0.00  0.00    +0.000 A 
ATOM     17  N   UNL     1       0.082  11.928  21.709  0.00  0.00    +0.000 NA
ATOM     18  C   UNL     1       0.723  10.875  21.146  0.00  0.00    +0.000 A 
ENDBRANCH  12  13
ENDBRANCH   5  11
TORSDOF 3
ENDMDL
MODEL 7
REMARK VINA RESULT:      -7.1      5.345      6.564
REMARK  Name = 
REMARK  4 active torsions:
REMARK  status: ('A' for Active; 'I' for Inactive)
REMARK    1  A    between atoms: C_1  and  S_2
REMARK    2  A    between atoms: S_2  and  C_5
REMARK    3  A    between atoms: C_9  and  C_10
REMARK    4  A    between atoms: C_11  and  C_12
REMARK                            x       y       z     vdW  Elec       q    Type
REMARK                         _______ _______ _______ _____ _____    ______ ____
ROOT
ATOM      1  C   UNL     1       5.394   5.403  17.046  0.00  0.00    +0.000 A 
ATOM      2  C   UNL     1       4.777   4.188  17.362  0.00  0.00    +0.000 A 
ATOM      3  C   UNL     1       3.472   4.189  17.851  0.00  0.00    +0.000 A 
ATOM      4  C   UNL     1       2.798   5.398  18.038  0.00  0.00    +0.000 A 
ATOM      5  C   UNL     1       3.430   6.613  17.750  0.00  0.00    +0.000 A 
ATOM      6  C   UNL     1       4.734   6.619  17.252  0.00  0.00    +0.000 A 
ENDROOT
BRANCH   1   8
ATOM      7  C   UNL     1       6.925   4.817  14.783  0.00  0.00    +0.000 C 
ATOM      8  S   UNL     1       7.070   5.401  16.451  0.00  0.00    +0.000 S 
ATOM      9  O   UNL     1       7.801   4.405  17.213  0.00  0.00    +0.000 OA
ATOM     10  O   UNL     1       7.519   6.780  16.407  0.00  0.00    +0.000 OA
ENDBRANCH   1   8
BRANCH   5  11
ATOM     11  C   UNL     1       2.740   7.840  18.000  0.00  0.00    +0.000 C 
ATOM     12  C   UNL     1       2.116   8.854  18.165  0.00  0.00    +0.000 C 
BRANCH  12  13
ATOM     13  C   UNL     1       1.334  10.041  18.310  0.00  0.00    +0.000 A 
ATOM     14  C   UNL     1      -0.058   9.999  18.298  0.00  0.00    +0.000 A 
ATOM     15  C   UNL     1      -0.778  11.181  18.462  0.00  0.00    +0.000 A 
ATOM     16  C   UNL     1      -0.076  12.365  18.630  0.00  0.00    +0.000 A 
ATOM     17  N   UNL     1       1.272  12.442  18.642  0.00  0.00    +0.000 NA
ATOM     18  C   UNL     1       1.945  11.277  18.481  0.00  0.00    +0.000 A 
ENDBRANCH  12  13
ENDBRANCH   5  11
TORSDOF 3
ENDMDL
MODEL 8
REMARK VINA RESULT:      -7.1      5.582      6.937
REMARK  Name = 
REMARK  4 active torsions:
REMARK  status: ('A' for Active; 'I' for Inactive)
REMARK    1  A    between atoms: C_1  and  S_2
REMARK    2  A    between atoms: S_2  and  C_5
REMARK    3  A    between atoms: C_9  and  C_10
REMARK    4  A    between atoms: C_11  and  C_12
REMARK                            x       y       z     vdW  Elec       q    Type
REMARK                         _______ _______ _______ _____ _____    ______ ____
ROOT
ATOM      1  C   UNL     1       5.366   5.676  17.487  0.00  0.00    +0.000 A 
ATOM      2  C   UNL     1       4.783   4.404  17.514  0.00  0.00    +0.000 A 
ATOM      3  C   UNL     1       3.406   4.286  17.699  0.00  0.00    +0.000 A 
ATOM      4  C   UNL     1       2.625   5.431  17.872  0.00  0.00    +0.000 A 
ATOM      5  C   UNL     1       3.217   6.698  17.875  0.00  0.00    +0.000 A 
ATOM      6  C   UNL     1       4.593   6.825  17.682  0.00  0.00    +0.000 A 
ENDROOT
BRANCH   1   8
ATOM      7  C   UNL     1       7.744   5.861  18.943  0.00  0.00    +0.000 C 
ATOM      8  S   UNL     1       7.126   5.823  17.281  0.00  0.00    +0.000 S 
ATOM      9  O   UNL     1       7.386   7.117  16.677  0.00  0.00    +0.000 OA
ATOM     10  O   UNL     1       7.596   4.603  16.654  0.00  0.00    +0.000 OA
ENDBRANCH   1   8
BRANCH   5  11
ATOM     11  C   UNL     1       2.404   7.852  18.108  0.00  0.00    +0.000 C 
ATOM     12  C   UNL     1       1.707   8.822  18.240  0.00  0.00    +0.000 C 
BRANCH  12  13
ATOM     13  C   UNL     1       0.871   9.977  18.330  0.00  0.00    +0.000 A 
ATOM     14  C   UNL     1      -0.493   9.908  18.058  0.00  0.00    +0.000 A 
ATOM     15  C   UNL     1      -1.272  11.058  18.176  0.00  0.00    +0.000 A 
ATOM     16  C   UNL     1      -0.655  12.238  18.563  0.00  0.00    +0.000 A 
ATOM     17  N   UNL     1       0.665  12.340  18.831  0.00  0.00    +0.000 NA
ATOM     18  C   UNL     1       1.397  11.207  18.706  0.00  0.00    +0.000 A 
ENDBRANCH  12  13
ENDBRANCH   5  11
TORSDOF 3
ENDMDL
MODEL 9
REMARK VINA RESULT:      -7.0      5.888      7.149
REMARK  Name = 
REMARK  4 active torsions:
REMARK  status: ('A' for Active; 'I' for Inactive)
REMARK    1  A    between atoms: C_1  and  S_2
REMARK    2  A    between atoms: S_2  and  C_5
REMARK    3  A    between atoms: C_9  and  C_10
REMARK    4  A    between atoms: C_11  and  C_12
REMARK                            x       y       z     vdW  Elec       q    Type
REMARK                         _______ _______ _______ _____ _____    ______ ____
ROOT
ATOM      1  C   UNL     1       5.011   5.134  17.204  0.00  0.00    +0.000 A 
ATOM      2  C   UNL     1       4.305   3.972  16.875  0.00  0.00    +0.000 A 
ATOM      3  C   UNL     1       2.985   3.829  17.298  0.00  0.00    +0.000 A 
ATOM      4  C   UNL     1       2.384   4.834  18.060  0.00  0.00    +0.000 A 
ATOM      5  C   UNL     1       3.104   5.981  18.413  0.00  0.00    +0.000 A 
ATOM      6  C   UNL     1       4.424   6.134  17.986  0.00  0.00    +0.000 A 
ENDROOT
BRANCH   1   8
ATOM      7  C   UNL     1       6.739   4.527  15.094  0.00  0.00    +0.000 C 
ATOM      8  S   UNL     1       6.705   5.301  16.689  0.00  0.00    +0.000 S 
ATOM      9  O   UNL     1       7.515   4.503  17.592  0.00  0.00    +0.000 OA
ATOM     10  O   UNL     1       6.969   6.715  16.508  0.00  0.00    +0.000 OA
ENDBRANCH   1   8
BRANCH   5  11
ATOM     11  C   UNL     1       2.486   6.971  19.239  0.00  0.00    +0.000 C 
ATOM     12  C   UNL     1       1.912   7.799  19.895  0.00  0.00    +0.000 C 
BRANCH  12  13
ATOM     13  C   UNL     1       1.179   8.780  20.632  0.00  0.00    +0.000 A 
ATOM     14  C   UNL     1       0.324   9.675  19.995  0.00  0.00    +0.000 A 
ATOM     15  C   UNL     1      -0.384  10.603  20.758  0.00  0.00    +0.000 A 
ATOM     16  C   UNL     1      -0.208  10.600  22.133  0.00  0.00    +0.000 A 
ATOM     17  N   UNL     1       0.615   9.748  22.781  0.00  0.00    +0.000 NA
ATOM     18  C   UNL     1       1.290   8.858  22.015  0.00  0.00    +0.000 A 
ENDBRANCH  12  13
ENDBRANCH   5  11
TORSDOF 3
ENDMDL
