MODEL 1
REMARK VINA RESULT:      -8.9      0.000      0.000
REMARK  Name = 
REMARK  7 active torsions:
REMARK  status: ('A' for Active; 'I' for Inactive)
REMARK    1  A    between atoms: C_2  and  O_3
REMARK    2  A    between atoms: C_2  and  C_4
REMARK    3  A    between atoms: C_10  and  C_11
REMARK    4  A    between atoms: N_13  and  C_14
REMARK    5  A    between atoms: C_17  and  S_18
REMARK    6  A    between atoms: S_18  and  N_21
REMARK    7  A    between atoms: N_21  and  C_22
REMARK                            x       y       z     vdW  Elec       q    Type
REMARK                         _______ _______ _______ _____ _____    ______ ____
ROOT
ATOM      1  C   UNL     1       2.128   7.894  19.280  0.00  0.00    +0.000 A 
ATOM      2  C   UNL     1       1.940   8.717  18.164  0.00  0.00    +0.000 A 
ATOM      3  C   UNL     1       1.148   9.867  18.236  0.00  0.00    +0.000 A 
ATOM      4  C   UNL     1       0.521  10.201  19.436  0.00  0.00    +0.000 A 
ATOM      5  C   UNL     1       0.729   9.419  20.575  0.00  0.00    +0.000 A 
ATOM      6  C   UNL     1       1.521   8.263  20.490  0.00  0.00    +0.000 A 
ENDROOT
BRANCH   1   9
ATOM      7  C   UNL     1       2.625   5.534  19.951  0.00  0.00    +0.000 C 
ATOM      8  O   UNL     1       1.670   5.365  20.702  0.00  0.00    +0.000 OA
ATOM      9  N   UNL     1       2.901   6.703  19.258  0.00  0.00    +0.000 N 
ATOM     10  H   UNL     1       3.712   6.718  18.652  0.00  0.00    +0.000 HD
BRANCH   7  17
ATOM     11  C   UNL     1       4.458   4.641  18.398  0.00  0.00    +0.000 C 
ATOM     12  C   UNL     1       4.104   3.435  17.528  0.00  0.00    +0.000 C 
ATOM     13  C   UNL     1       2.663   3.414  17.122  0.00  0.00    +0.000 C 
ATOM     14  C   UNL     1       1.958   3.152  18.230  0.00  0.00    +0.000 C 
ATOM     15  C   UNL     1       2.950   3.049  19.345  0.00  0.00    +0.000 C 
ATOM     16  O   UNL     1       4.048   2.427  18.596  0.00  0.00    +0.000 OA
ATOM     17  C   UNL     1       3.602   4.400  19.681  0.00  0.00    +0.000 C 
BRANCH  11  19
ATOM     18  O   UNL     1       6.357   5.188  19.771  0.00  0.00    +0.000 OA
ATOM     19  C   UNL     1       5.923   4.641  18.768  0.00  0.00    +0.000 C 
BRANCH  19  20
ATOM     20  O   UNL     1       6.724   3.908  17.960  0.00  0.00    +0.000 OA
ATOM     21  H   UNL     1       6.247   3.449  17.229  0.00  0.00    +0.000 HD
ENDBRANCH  19  20
ENDBRANCH  11  19
ENDBRANCH   7  17
ENDBRANCH   1   9
BRANCH   4  22
ATOM     22  S   UNL     1      -0.504  11.656  19.501  0.00  0.00    +0.000 S 
ATOM     23  O   UNL     1      -0.350  12.255  20.808  0.00  0.00    +0.000 OA
ATOM     24  O   UNL     1      -0.254  12.415  18.293  0.00  0.00    +0.000 OA
BRANCH  22  25
ATOM     25  N   UNL     1      -2.076  11.034  19.341  0.00  0.00    +0.000 N 
ATOM     26  H   UNL     1      -2.703  11.347  20.079  0.00  0.00    +0.000 HD
BRANCH  25  27
ATOM     27  C   UNL     1      -2.618  10.917  18.029  0.00  0.00    +0.000 A 
ATOM     28  C   UNL     1      -3.752  11.667  17.713  0.00  0.00    +0.000 A 
ATOM     29  C   UNL     1      -4.373  11.501  16.475  0.00  0.00    +0.000 A 
ATOM     30  C   UNL     1      -3.875  10.565  15.569  0.00  0.00    +0.000 A 
ATOM     31  C   UNL     1      -2.739   9.820  15.887  0.00  0.00    +0.000 A 
ATOM     32  C   UNL     1      -2.098  10.010  17.113  0.00  0.00    +0.000 A 
ENDBRANCH  25  27
ENDBRANCH  22  25
ENDBRANCH   4  22
TORSDOF 7
ENDMDL
MODEL 2
REMARK VINA RESULT:      -8.5      2.271      3.267
REMARK  Name = 
REMARK  7 active torsions:
REMARK  status: ('A' for Active; 'I' for Inactive)
REMARK    1  A    between atoms: C_2  and  O_3
REMARK    2  A    between atoms: C_2  and  C_4
REMARK    3  A    between atoms: C_10  and  C_11
REMARK    4  A    between atoms: N_13  and  C_14
REMARK    5  A    between atoms: C_17  and  S_18
REMARK    6  A    between atoms: S_18  and  N_21
REMARK    7  A    between atoms: N_21  and  C_22
REMARK                            x       y       z     vdW  Elec       q    Type
REMARK                         _______ _______ _______ _____ _____    ______ ____
ROOT
ATOM      1  C   UNL     1       2.069   7.856  19.248  0.00  0.00    +0.000 A 
ATOM      2  C   UNL     1       1.796   8.609  18.101  0.00  0.00    +0.000 A 
ATOM      3  C   UNL     1       0.995   9.754  18.159  0.00  0.00    +0.000 A 
ATOM      4  C   UNL     1       0.446  10.154  19.376  0.00  0.00    +0.000 A 
ATOM      5  C   UNL     1       0.742   9.443  20.543  0.00  0.00    +0.000 A 
ATOM      6  C   UNL     1       1.541   8.292  20.473  0.00  0.00    +0.000 A 
ENDROOT
BRANCH   1   9
ATOM      7  C   UNL     1       2.598   5.515  19.962  0.00  0.00    +0.000 C 
ATOM      8  O   UNL     1       1.650   5.351  20.723  0.00  0.00    +0.000 OA
ATOM      9  N   UNL     1       2.856   6.674  19.243  0.00  0.00    +0.000 N 
ATOM     10  H   UNL     1       3.661   6.685  18.631  0.00  0.00    +0.000 HD
BRANCH   7  17
ATOM     11  C   UNL     1       4.430   4.613  18.413  0.00  0.00    +0.000 C 
ATOM     12  C   UNL     1       4.082   3.386  17.569  0.00  0.00    +0.000 C 
ATOM     13  C   UNL     1       2.639   3.343  17.173  0.00  0.00    +0.000 C 
ATOM     14  C   UNL     1       1.944   3.094  18.291  0.00  0.00    +0.000 C 
ATOM     15  C   UNL     1       2.945   3.023  19.401  0.00  0.00    +0.000 C 
ATOM     16  O   UNL     1       4.044   2.399  18.656  0.00  0.00    +0.000 OA
ATOM     17  C   UNL     1       3.585   4.387  19.707  0.00  0.00    +0.000 C 
BRANCH  11  19
ATOM     18  O   UNL     1       6.326   5.163  19.788  0.00  0.00    +0.000 OA
ATOM     19  C   UNL     1       5.897   4.635  18.773  0.00  0.00    +0.000 C 
BRANCH  19  20
ATOM     20  O   UNL     1       6.707   3.943  17.939  0.00  0.00    +0.000 OA
ATOM     21  H   UNL     1       7.631   3.839  18.268  0.00  0.00    +0.000 HD
ENDBRANCH  19  20
ENDBRANCH  11  19
ENDBRANCH   7  17
ENDBRANCH   1   9
BRANCH   4  22
ATOM     22  S   UNL     1      -0.592  11.600  19.425  0.00  0.00    +0.000 S 
ATOM     23  O   UNL     1      -1.943  11.193  19.106  0.00  0.00    +0.000 OA
ATOM     24  O   UNL     1      -0.291  12.306  20.654  0.00  0.00    +0.000 OA
BRANCH  22  25
ATOM     25  N   UNL     1       0.023  12.566  18.172  0.00  0.00    +0.000 N 
ATOM     26  H   UNL     1      -0.693  12.859  17.511  0.00  0.00    +0.000 HD
BRANCH  25  27
ATOM     27  C   UNL     1       1.043  13.507  18.493  0.00  0.00    +0.000 A 
ATOM     28  C   UNL     1       0.662  14.811  18.809  0.00  0.00    +0.000 A 
ATOM     29  C   UNL     1       1.636  15.787  19.026  0.00  0.00    +0.000 A 
ATOM     30  C   UNL     1       2.985  15.461  18.897  0.00  0.00    +0.000 A 
ATOM     31  C   UNL     1       3.362  14.154  18.584  0.00  0.00    +0.000 A 
ATOM     32  C   UNL     1       2.388  13.170  18.399  0.00  0.00    +0.000 A 
ENDBRANCH  25  27
ENDBRANCH  22  25
ENDBRANCH   4  22
TORSDOF 7
ENDMDL
MODEL 3
REMARK VINA RESULT:      -8.4      0.942      1.250
REMARK  Name = 
REMARK  7 active torsions:
REMARK  status: ('A' for Active; 'I' for Inactive)
REMARK    1  A    between atoms: C_2  and  O_3
REMARK    2  A    between atoms: C_2  and  C_4
REMARK    3  A    between atoms: C_10  and  C_11
REMARK    4  A    between atoms: N_13  and  C_14
REMARK    5  A    between atoms: C_17  and  S_18
REMARK    6  A    between atoms: S_18  and  N_21
REMARK    7  A    between atoms: N_21  and  C_22
REMARK                            x       y       z     vdW  Elec       q    Type
REMARK                         _______ _______ _______ _____ _____    ______ ____
ROOT
ATOM      1  C   UNL     1       1.983   7.996  19.612  0.00  0.00    +0.000 A 
ATOM      2  C   UNL     1       1.989   8.884  18.530  0.00  0.00    +0.000 A 
ATOM      3  C   UNL     1       1.223  10.054  18.548  0.00  0.00    +0.000 A 
ATOM      4  C   UNL     1       0.428  10.343  19.656  0.00  0.00    +0.000 A 
ATOM      5  C   UNL     1       0.439   9.494  20.766  0.00  0.00    +0.000 A 
ATOM      6  C   UNL     1       1.206   8.319  20.735  0.00  0.00    +0.000 A 
ENDROOT
BRANCH   1   9
ATOM      7  C   UNL     1       2.549   5.701  18.788  0.00  0.00    +0.000 C 
ATOM      8  O   UNL     1       1.714   5.630  17.892  0.00  0.00    +0.000 OA
ATOM      9  N   UNL     1       2.722   6.784  19.637  0.00  0.00    +0.000 N 
ATOM     10  H   UNL     1       3.459   6.734  20.329  0.00  0.00    +0.000 HD
BRANCH   7  17
ATOM     11  C   UNL     1       3.692   3.650  17.759  0.00  0.00    +0.000 C 
ATOM     12  C   UNL     1       3.262   2.280  18.283  0.00  0.00    +0.000 C 
ATOM     13  C   UNL     1       1.825   2.242  18.698  0.00  0.00    +0.000 C 
ATOM     14  C   UNL     1       1.727   2.986  19.807  0.00  0.00    +0.000 C 
ATOM     15  C   UNL     1       3.096   3.531  20.068  0.00  0.00    +0.000 C 
ATOM     16  O   UNL     1       3.875   2.374  19.614  0.00  0.00    +0.000 OA
ATOM     17  C   UNL     1       3.532   4.563  19.015  0.00  0.00    +0.000 C 
BRANCH  11  19
ATOM     18  O   UNL     1       5.487   3.647  16.156  0.00  0.00    +0.000 OA
ATOM     19  C   UNL     1       5.140   3.645  17.327  0.00  0.00    +0.000 C 
BRANCH  19  20
ATOM     20  O   UNL     1       6.043   3.734  18.332  0.00  0.00    +0.000 OA
ATOM     21  H   UNL     1       6.738   4.418  18.190  0.00  0.00    +0.000 HD
ENDBRANCH  19  20
ENDBRANCH  11  19
ENDBRANCH   7  17
ENDBRANCH   1   9
BRANCH   4  22
ATOM     22  S   UNL     1      -0.561  11.824  19.649  0.00  0.00    +0.000 S 
ATOM     23  O   UNL     1      -0.407  12.472  20.934  0.00  0.00    +0.000 OA
ATOM     24  O   UNL     1      -0.275  12.528  18.415  0.00  0.00    +0.000 OA
BRANCH  22  25
ATOM     25  N   UNL     1      -2.146  11.237  19.492  0.00  0.00    +0.000 N 
ATOM     26  H   UNL     1      -2.781  11.621  20.190  0.00  0.00    +0.000 HD
BRANCH  25  27
ATOM     27  C   UNL     1      -2.658  11.040  18.179  0.00  0.00    +0.000 A 
ATOM     28  C   UNL     1      -3.812  11.732  17.809  0.00  0.00    +0.000 A 
ATOM     29  C   UNL     1      -4.404  11.486  16.569  0.00  0.00    +0.000 A 
ATOM     30  C   UNL     1      -3.856  10.528  15.717  0.00  0.00    +0.000 A 
ATOM     31  C   UNL     1      -2.701   9.840  16.090  0.00  0.00    +0.000 A 
ATOM     32  C   UNL     1      -2.090  10.110  17.316  0.00  0.00    +0.000 A 
ENDBRANCH  25  27
ENDBRANCH  22  25
ENDBRANCH   4  22
TORSDOF 7
ENDMDL
MODEL 4
REMARK VINA RESULT:      -8.4      2.324      3.173
REMARK  Name = 
REMARK  7 active torsions:
REMARK  status: ('A' for Active; 'I' for Inactive)
REMARK    1  A    between atoms: C_2  and  O_3
REMARK    2  A    between atoms: C_2  and  C_4
REMARK    3  A    between atoms: C_10  and  C_11
REMARK    4  A    between atoms: N_13  and  C_14
REMARK    5  A    between atoms: C_17  and  S_18
REMARK    6  A    between atoms: S_18  and  N_21
REMARK    7  A    between atoms: N_21  and  C_22
REMARK                            x       y       z     vdW  Elec       q    Type
REMARK                         _______ _______ _______ _____ _____    ______ ____
ROOT
ATOM      1  C   UNL     1       2.044   7.833  19.383  0.00  0.00    +0.000 A 
ATOM      2  C   UNL     1       1.448   8.313  20.555  0.00  0.00    +0.000 A 
ATOM      3  C   UNL     1       0.704   9.497  20.558  0.00  0.00    +0.000 A 
ATOM      4  C   UNL     1       0.558  10.225  19.378  0.00  0.00    +0.000 A 
ATOM      5  C   UNL     1       1.106   9.743  18.186  0.00  0.00    +0.000 A 
ATOM      6  C   UNL     1       1.857   8.557  18.196  0.00  0.00    +0.000 A 
ENDROOT
BRANCH   1   9
ATOM      7  C   UNL     1       2.574   5.466  20.004  0.00  0.00    +0.000 C 
ATOM      8  O   UNL     1       1.632   5.275  20.766  0.00  0.00    +0.000 OA
ATOM      9  N   UNL     1       2.828   6.651  19.328  0.00  0.00    +0.000 N 
ATOM     10  H   UNL     1       3.629   6.684  18.710  0.00  0.00    +0.000 HD
BRANCH   7  17
ATOM     11  C   UNL     1       4.403   4.627  18.417  0.00  0.00    +0.000 C 
ATOM     12  C   UNL     1       4.052   3.441  17.520  0.00  0.00    +0.000 C 
ATOM     13  C   UNL     1       2.609   3.419  17.122  0.00  0.00    +0.000 C 
ATOM     14  C   UNL     1       1.913   3.124  18.227  0.00  0.00    +0.000 C 
ATOM     15  C   UNL     1       2.913   3.000  19.333  0.00  0.00    +0.000 C 
ATOM     16  O   UNL     1       4.010   2.406  18.562  0.00  0.00    +0.000 OA
ATOM     17  C   UNL     1       3.557   4.347  19.700  0.00  0.00    +0.000 C 
BRANCH  11  19
ATOM     18  O   UNL     1       6.314   5.198  19.764  0.00  0.00    +0.000 OA
ATOM     19  C   UNL     1       5.870   4.629  18.778  0.00  0.00    +0.000 C 
BRANCH  19  20
ATOM     20  O   UNL     1       6.662   3.871  17.983  0.00  0.00    +0.000 OA
ATOM     21  H   UNL     1       7.530   4.285  17.767  0.00  0.00    +0.000 HD
ENDBRANCH  19  20
ENDBRANCH  11  19
ENDBRANCH   7  17
ENDBRANCH   1   9
BRANCH   4  22
ATOM     22  S   UNL     1      -0.371  11.744  19.407  0.00  0.00    +0.000 S 
ATOM     23  O   UNL     1       0.263  12.675  18.499  0.00  0.00    +0.000 OA
ATOM     24  O   UNL     1      -1.771  11.396  19.269  0.00  0.00    +0.000 OA
BRANCH  22  25
ATOM     25  N   UNL     1      -0.183  12.287  21.005  0.00  0.00    +0.000 N 
ATOM     26  H   UNL     1       0.610  12.916  21.118  0.00  0.00    +0.000 HD
BRANCH  25  27
ATOM     27  C   UNL     1      -1.358  12.574  21.755  0.00  0.00    +0.000 A 
ATOM     28  C   UNL     1      -1.987  13.804  21.554  0.00  0.00    +0.000 A 
ATOM     29  C   UNL     1      -3.078  14.165  22.345  0.00  0.00    +0.000 A 
ATOM     30  C   UNL     1      -3.518  13.308  23.353  0.00  0.00    +0.000 A 
ATOM     31  C   UNL     1      -2.889  12.077  23.549  0.00  0.00    +0.000 A 
ATOM     32  C   UNL     1      -1.818  11.702  22.735  0.00  0.00    +0.000 A 
ENDBRANCH  25  27
ENDBRANCH  22  25
ENDBRANCH   4  22
TORSDOF 7
ENDMDL
MODEL 5
REMARK VINA RESULT:      -8.4      2.802      3.832
REMARK  Name = 
REMARK  7 active torsions:
REMARK  status: ('A' for Active; 'I' for Inactive)
REMARK    1  A    between atoms: C_2  and  O_3
REMARK    2  A    between atoms: C_2  and  C_4
REMARK    3  A    between atoms: C_10  and  C_11
REMARK    4  A    between atoms: N_13  and  C_14
REMARK    5  A    between atoms: C_17  and  S_18
REMARK    6  A    between atoms: S_18  and  N_21
REMARK    7  A    between atoms: N_21  and  C_22
REMARK                            x       y       z     vdW  Elec       q    Type
REMARK                         _______ _______ _______ _____ _____    ______ ____
ROOT
ATOM      1  C   UNL     1       1.492   8.368  20.332  0.00  0.00    +0.000 A 
ATOM      2  C   UNL     1       1.563   8.989  19.081  0.00  0.00    +0.000 A 
ATOM      3  C   UNL     1       1.002  10.252  18.865  0.00  0.00    +0.000 A 
ATOM      4  C   UNL     1       0.348  10.905  19.908  0.00  0.00    +0.000 A 
ATOM      5  C   UNL     1       0.302  10.324  21.178  0.00  0.00    +0.000 A 
ATOM      6  C   UNL     1       0.863   9.054  21.382  0.00  0.00    +0.000 A 
ENDROOT
BRANCH   1   9
ATOM      7  C   UNL     1       2.415   6.141  19.657  0.00  0.00    +0.000 C 
ATOM      8  O   UNL     1       2.343   6.288  18.441  0.00  0.00    +0.000 OA
ATOM      9  N   UNL     1       2.024   7.079  20.601  0.00  0.00    +0.000 N 
ATOM     10  H   UNL     1       2.148   6.851  21.579  0.00  0.00    +0.000 HD
BRANCH   7  17
ATOM     11  C   UNL     1       3.405   3.832  19.148  0.00  0.00    +0.000 C 
ATOM     12  C   UNL     1       2.553   2.616  19.511  0.00  0.00    +0.000 C 
ATOM     13  C   UNL     1       1.085   2.877  19.385  0.00  0.00    +0.000 C 
ATOM     14  C   UNL     1       0.761   3.725  20.369  0.00  0.00    +0.000 C 
ATOM     15  C   UNL     1       2.033   4.034  21.092  0.00  0.00    +0.000 C 
ATOM     16  O   UNL     1       2.671   2.718  20.972  0.00  0.00    +0.000 OA
ATOM     17  C   UNL     1       3.006   4.870  20.245  0.00  0.00    +0.000 C 
BRANCH  11  19
ATOM     18  O   UNL     1       5.751   4.370  19.113  0.00  0.00    +0.000 OA
ATOM     19  C   UNL     1       4.880   3.526  19.265  0.00  0.00    +0.000 C 
BRANCH  19  20
ATOM     20  O   UNL     1       5.179   2.262  19.645  0.00  0.00    +0.000 OA
ATOM     21  H   UNL     1       5.879   1.832  19.101  0.00  0.00    +0.000 HD
ENDBRANCH  19  20
ENDBRANCH  11  19
ENDBRANCH   7  17
ENDBRANCH   1   9
BRANCH   4  22
ATOM     22  S   UNL     1      -0.384  12.501  19.606  0.00  0.00    +0.000 S 
ATOM     23  O   UNL     1      -0.380  12.733  18.178  0.00  0.00    +0.000 OA
ATOM     24  O   UNL     1      -1.610  12.566  20.374  0.00  0.00    +0.000 OA
BRANCH  22  25
ATOM     25  N   UNL     1       0.693  13.574  20.361  0.00  0.00    +0.000 N 
ATOM     26  H   UNL     1       1.017  13.239  21.266  0.00  0.00    +0.000 HD
BRANCH  25  27
ATOM     27  C   UNL     1       1.635  14.261  19.543  0.00  0.00    +0.000 A 
ATOM     28  C   UNL     1       1.338  15.566  19.147  0.00  0.00    +0.000 A 
ATOM     29  C   UNL     1       2.184  16.233  18.261  0.00  0.00    +0.000 A 
ATOM     30  C   UNL     1       3.308  15.584  17.752  0.00  0.00    +0.000 A 
ATOM     31  C   UNL     1       3.603  14.280  18.153  0.00  0.00    +0.000 A 
ATOM     32  C   UNL     1       2.774  13.624  19.065  0.00  0.00    +0.000 A 
ENDBRANCH  25  27
ENDBRANCH  22  25
ENDBRANCH   4  22
TORSDOF 7
ENDMDL
MODEL 6
REMARK VINA RESULT:      -8.3      6.197      9.571
REMARK  Name = 
REMARK  7 active torsions:
REMARK  status: ('A' for Active; 'I' for Inactive)
REMARK    1  A    between atoms: C_2  and  O_3
REMARK    2  A    between atoms: C_2  and  C_4
REMARK    3  A    between atoms: C_10  and  C_11
REMARK    4  A    between atoms: N_13  and  C_14
REMARK    5  A    between atoms: C_17  and  S_18
REMARK    6  A    between atoms: S_18  and  N_21
REMARK    7  A    between atoms: N_21  and  C_22
REMARK                            x       y       z     vdW  Elec       q    Type
REMARK                         _______ _______ _______ _____ _____    ______ ____
ROOT
ATOM      1  C   UNL     1       8.167   7.659  18.575  0.00  0.00    +0.000 A 
ATOM      2  C   UNL     1       8.162   6.353  19.078  0.00  0.00    +0.000 A 
ATOM      3  C   UNL     1       7.347   5.364  18.519  0.00  0.00    +0.000 A 
ATOM      4  C   UNL     1       6.514   5.678  17.447  0.00  0.00    +0.000 A 
ATOM      5  C   UNL     1       6.534   6.963  16.899  0.00  0.00    +0.000 A 
ATOM      6  C   UNL     1       7.350   7.951  17.472  0.00  0.00    +0.000 A 
ENDROOT
BRANCH   1   9
ATOM      7  C   UNL     1       8.909  10.044  18.748  0.00  0.00    +0.000 C 
ATOM      8  O   UNL     1       8.180  10.512  17.879  0.00  0.00    +0.000 OA
ATOM      9  N   UNL     1       8.956   8.707  19.117  0.00  0.00    +0.000 N 
ATOM     10  H   UNL     1       9.587   8.441  19.863  0.00  0.00    +0.000 HD
BRANCH   7  17
ATOM     11  C   UNL     1       9.257  12.392  19.714  0.00  0.00    +0.000 C 
ATOM     12  C   UNL     1      10.337  13.257  19.063  0.00  0.00    +0.000 C 
ATOM     13  C   UNL     1      10.493  12.988  17.599  0.00  0.00    +0.000 C 
ATOM     14  C   UNL     1      11.036  11.768  17.490  0.00  0.00    +0.000 C 
ATOM     15  C   UNL     1      11.184  11.249  18.885  0.00  0.00    +0.000 C 
ATOM     16  O   UNL     1      11.508  12.515  19.551  0.00  0.00    +0.000 OA
ATOM     17  C   UNL     1       9.830  10.949  19.550  0.00  0.00    +0.000 C 
BRANCH  11  19
ATOM     18  O   UNL     1       8.416  13.620  21.605  0.00  0.00    +0.000 OA
ATOM     19  C   UNL     1       9.112  12.707  21.184  0.00  0.00    +0.000 C 
BRANCH  19  20
ATOM     20  O   UNL     1       9.733  11.847  22.024  0.00  0.00    +0.000 OA
ATOM     21  H   UNL     1      10.252  11.143  21.569  0.00  0.00    +0.000 HD
ENDBRANCH  19  20
ENDBRANCH  11  19
ENDBRANCH   7  17
ENDBRANCH   1   9
BRANCH   4  22
ATOM     22  S   UNL     1       5.464   4.411  16.766  0.00  0.00    +0.000 S 
ATOM     23  O   UNL     1       4.213   5.025  16.378  0.00  0.00    +0.000 OA
ATOM     24  O   UNL     1       6.258   3.658  15.816  0.00  0.00    +0.000 OA
BRANCH  22  25
ATOM     25  N   UNL     1       5.204   3.369  18.081  0.00  0.00    +0.000 N 
ATOM     26  H   UNL     1       5.984   3.355  18.735  0.00  0.00    +0.000 HD
BRANCH  25  27
ATOM     27  C   UNL     1       3.891   3.296  18.626  0.00  0.00    +0.000 A 
ATOM     28  C   UNL     1       3.009   2.351  18.101  0.00  0.00    +0.000 A 
ATOM     29  C   UNL     1       1.683   2.320  18.535  0.00  0.00    +0.000 A 
ATOM     30  C   UNL     1       1.238   3.252  19.472  0.00  0.00    +0.000 A 
ATOM     31  C   UNL     1       2.124   4.193  19.997  0.00  0.00    +0.000 A 
ATOM     32  C   UNL     1       3.459   4.203  19.587  0.00  0.00    +0.000 A 
ENDBRANCH  25  27
ENDBRANCH  22  25
ENDBRANCH   4  22
TORSDOF 7
ENDMDL
MODEL 7
REMARK VINA RESULT:      -8.3      1.120      1.655
REMARK  Name = 
REMARK  7 active torsions:
REMARK  status: ('A' for Active; 'I' for Inactive)
REMARK    1  A    between atoms: C_2  and  O_3
REMARK    2  A    between atoms: C_2  and  C_4
REMARK    3  A    between atoms: C_10  and  C_11
REMARK    4  A    between atoms: N_13  and  C_14
REMARK    5  A    between atoms: C_17  and  S_18
REMARK    6  A    between atoms: S_18  and  N_21
REMARK    7  A    between atoms: N_21  and  C_22
REMARK                            x       y       z     vdW  Elec       q    Type
REMARK                         _______ _______ _______ _____ _____    ______ ____
ROOT
ATOM      1  C   UNL     1       2.205   7.624  19.235  0.00  0.00    +0.000 A 
ATOM      2  C   UNL     1       2.159   8.556  18.193  0.00  0.00    +0.000 A 
ATOM      3  C   UNL     1       1.548   9.803  18.362  0.00  0.00    +0.000 A 
ATOM      4  C   UNL     1       0.963  10.126  19.584  0.00  0.00    +0.000 A 
ATOM      5  C   UNL     1       1.036   9.229  20.654  0.00  0.00    +0.000 A 
ATOM      6  C   UNL     1       1.645   7.978  20.471  0.00  0.00    +0.000 A 
ENDROOT
BRANCH   1   9
ATOM      7  C   UNL     1       2.692   5.300  20.030  0.00  0.00    +0.000 C 
ATOM      8  O   UNL     1       2.089   5.355  21.097  0.00  0.00    +0.000 OA
ATOM      9  N   UNL     1       2.791   6.336  19.112  0.00  0.00    +0.000 N 
ATOM     10  H   UNL     1       3.302   6.166  18.256  0.00  0.00    +0.000 HD
BRANCH   7  17
ATOM     11  C   UNL     1       3.322   3.798  18.051  0.00  0.00    +0.000 C 
ATOM     12  C   UNL     1       2.575   2.470  17.923  0.00  0.00    +0.000 C 
ATOM     13  C   UNL     1       1.166   2.545  18.424  0.00  0.00    +0.000 C 
ATOM     14  C   UNL     1       1.241   2.673  19.755  0.00  0.00    +0.000 C 
ATOM     15  C   UNL     1       2.698   2.723  20.091  0.00  0.00    +0.000 C 
ATOM     16  O   UNL     1       3.183   1.786  19.072  0.00  0.00    +0.000 OA
ATOM     17  C   UNL     1       3.374   4.012  19.597  0.00  0.00    +0.000 C 
BRANCH  11  19
ATOM     18  O   UNL     1       5.005   3.833  16.332  0.00  0.00    +0.000 OA
ATOM     19  C   UNL     1       4.730   3.691  17.514  0.00  0.00    +0.000 C 
BRANCH  19  20
ATOM     20  O   UNL     1       5.693   3.518  18.449  0.00  0.00    +0.000 OA
ATOM     21  H   UNL     1       6.343   4.257  18.499  0.00  0.00    +0.000 HD
ENDBRANCH  19  20
ENDBRANCH  11  19
ENDBRANCH   7  17
ENDBRANCH   1   9
BRANCH   4  22
ATOM     22  S   UNL     1       0.168  11.709  19.772  0.00  0.00    +0.000 S 
ATOM     23  O   UNL     1      -0.864  11.576  20.777  0.00  0.00    +0.000 OA
ATOM     24  O   UNL     1       1.212  12.705  19.894  0.00  0.00    +0.000 OA
BRANCH  22  25
ATOM     25  N   UNL     1      -0.547  11.970  18.254  0.00  0.00    +0.000 N 
ATOM     26  H   UNL     1       0.126  11.941  17.490  0.00  0.00    +0.000 HD
BRANCH  25  27
ATOM     27  C   UNL     1      -1.833  11.408  18.015  0.00  0.00    +0.000 A 
ATOM     28  C   UNL     1      -1.918  10.270  17.213  0.00  0.00    +0.000 A 
ATOM     29  C   UNL     1      -3.167   9.752  16.870  0.00  0.00    +0.000 A 
ATOM     30  C   UNL     1      -4.327  10.391  17.308  0.00  0.00    +0.000 A 
ATOM     31  C   UNL     1      -4.238  11.527  18.113  0.00  0.00    +0.000 A 
ATOM     32  C   UNL     1      -2.987  12.026  18.483  0.00  0.00    +0.000 A 
ENDBRANCH  25  27
ENDBRANCH  22  25
ENDBRANCH   4  22
TORSDOF 7
ENDMDL
MODEL 8
REMARK VINA RESULT:      -8.3      2.615      3.444
REMARK  Name = 
REMARK  7 active torsions:
REMARK  status: ('A' for Active; 'I' for Inactive)
REMARK    1  A    between atoms: C_2  and  O_3
REMARK    2  A    between atoms: C_2  and  C_4
REMARK    3  A    between atoms: C_10  and  C_11
REMARK    4  A    between atoms: N_13  and  C_14
REMARK    5  A    between atoms: C_17  and  S_18
REMARK    6  A    between atoms: S_18  and  N_21
REMARK    7  A    between atoms: N_21  and  C_22
REMARK                            x       y       z     vdW  Elec       q    Type
REMARK                         _______ _______ _______ _____ _____    ______ ____
ROOT
ATOM      1  C   UNL     1       2.016   7.783  19.898  0.00  0.00    +0.000 A 
ATOM      2  C   UNL     1       1.455   8.181  21.117  0.00  0.00    +0.000 A 
ATOM      3  C   UNL     1       0.726   9.370  21.226  0.00  0.00    +0.000 A 
ATOM      4  C   UNL     1       0.559  10.184  20.108  0.00  0.00    +0.000 A 
ATOM      5  C   UNL     1       1.072   9.786  18.870  0.00  0.00    +0.000 A 
ATOM      6  C   UNL     1       1.808   8.595  18.773  0.00  0.00    +0.000 A 
ENDROOT
BRANCH   1   9
ATOM      7  C   UNL     1       2.415   5.323  20.132  0.00  0.00    +0.000 C 
ATOM      8  O   UNL     1       1.367   5.033  20.698  0.00  0.00    +0.000 OA
ATOM      9  N   UNL     1       2.784   6.600  19.735  0.00  0.00    +0.000 N 
ATOM     10  H   UNL     1       3.669   6.714  19.258  0.00  0.00    +0.000 HD
BRANCH   7  17
ATOM     11  C   UNL     1       4.248   4.597  18.494  0.00  0.00    +0.000 C 
ATOM     12  C   UNL     1       3.914   3.447  17.544  0.00  0.00    +0.000 C 
ATOM     13  C   UNL     1       2.469   3.415  17.157  0.00  0.00    +0.000 C 
ATOM     14  C   UNL     1       1.787   3.053  18.251  0.00  0.00    +0.000 C 
ATOM     15  C   UNL     1       2.798   2.899  19.343  0.00  0.00    +0.000 C 
ATOM     16  O   UNL     1       3.901   2.364  18.537  0.00  0.00    +0.000 OA
ATOM     17  C   UNL     1       3.418   4.240  19.768  0.00  0.00    +0.000 C 
BRANCH  11  19
ATOM     18  O   UNL     1       6.162   5.178  19.832  0.00  0.00    +0.000 OA
ATOM     19  C   UNL     1       5.718   4.611  18.845  0.00  0.00    +0.000 C 
BRANCH  19  20
ATOM     20  O   UNL     1       6.512   3.869  18.038  0.00  0.00    +0.000 OA
ATOM     21  H   UNL     1       6.423   4.080  17.080  0.00  0.00    +0.000 HD
ENDBRANCH  19  20
ENDBRANCH  11  19
ENDBRANCH   7  17
ENDBRANCH   1   9
BRANCH   4  22
ATOM     22  S   UNL     1      -0.350  11.706  20.273  0.00  0.00    +0.000 S 
ATOM     23  O   UNL     1       0.389  12.747  19.592  0.00  0.00    +0.000 OA
ATOM     24  O   UNL     1      -1.730  11.423  19.936  0.00  0.00    +0.000 OA
BRANCH  22  25
ATOM     25  N   UNL     1      -0.330  11.995  21.946  0.00  0.00    +0.000 N 
ATOM     26  H   UNL     1       0.592  12.251  22.292  0.00  0.00    +0.000 HD
BRANCH  25  27
ATOM     27  C   UNL     1      -1.453  12.654  22.523  0.00  0.00    +0.000 A 
ATOM     28  C   UNL     1      -2.369  11.888  23.245  0.00  0.00    +0.000 A 
ATOM     29  C   UNL     1      -3.534  12.477  23.736  0.00  0.00    +0.000 A 
ATOM     30  C   UNL     1      -3.792  13.823  23.479  0.00  0.00    +0.000 A 
ATOM     31  C   UNL     1      -2.872  14.586  22.760  0.00  0.00    +0.000 A 
ATOM     32  C   UNL     1      -1.690  14.005  22.296  0.00  0.00    +0.000 A 
ENDBRANCH  25  27
ENDBRANCH  22  25
ENDBRANCH   4  22
TORSDOF 7
ENDMDL
MODEL 9
REMARK VINA RESULT:      -8.3      0.167      1.083
REMARK  Name = 
REMARK  7 active torsions:
REMARK  status: ('A' for Active; 'I' for Inactive)
REMARK    1  A    between atoms: C_2  and  O_3
REMARK    2  A    between atoms: C_2  and  C_4
REMARK    3  A    between atoms: C_10  and  C_11
REMARK    4  A    between atoms: N_13  and  C_14
REMARK    5  A    between atoms: C_17  and  S_18
REMARK    6  A    between atoms: S_18  and  N_21
REMARK    7  A    between atoms: N_21  and  C_22
REMARK                            x       y       z     vdW  Elec       q    Type
REMARK                         _______ _______ _______ _____ _____    ______ ____
ROOT
ATOM      1  C   UNL     1       2.149   7.864  19.320  0.00  0.00    +0.000 A 
ATOM      2  C   UNL     1       1.934   8.645  18.178  0.00  0.00    +0.000 A 
ATOM      3  C   UNL     1       1.147   9.800  18.226  0.00  0.00    +0.000 A 
ATOM      4  C   UNL     1       0.553  10.182  19.427  0.00  0.00    +0.000 A 
ATOM      5  C   UNL     1       0.788   9.443  20.590  0.00  0.00    +0.000 A 
ATOM      6  C   UNL     1       1.574   8.282  20.529  0.00  0.00    +0.000 A 
ENDROOT
BRANCH   1   9
ATOM      7  C   UNL     1       2.561   5.467  19.912  0.00  0.00    +0.000 C 
ATOM      8  O   UNL     1       1.523   5.264  20.533  0.00  0.00    +0.000 OA
ATOM      9  N   UNL     1       2.919   6.671  19.323  0.00  0.00    +0.000 N 
ATOM     10  H   UNL     1       3.795   6.714  18.819  0.00  0.00    +0.000 HD
BRANCH   7  17
ATOM     11  C   UNL     1       4.377   4.511  18.376  0.00  0.00    +0.000 C 
ATOM     12  C   UNL     1       4.034   3.236  17.607  0.00  0.00    +0.000 C 
ATOM     13  C   UNL     1       2.584   3.147  17.245  0.00  0.00    +0.000 C 
ATOM     14  C   UNL     1       1.916   2.948  18.389  0.00  0.00    +0.000 C 
ATOM     15  C   UNL     1       2.940   2.954  19.479  0.00  0.00    +0.000 C 
ATOM     16  O   UNL     1       4.035   2.308  18.747  0.00  0.00    +0.000 OA
ATOM     17  C   UNL     1       3.562   4.343  19.698  0.00  0.00    +0.000 C 
BRANCH  11  19
ATOM     18  O   UNL     1       6.724   4.248  17.915  0.00  0.00    +0.000 OA
ATOM     19  C   UNL     1       5.850   4.577  18.704  0.00  0.00    +0.000 C 
BRANCH  19  20
ATOM     20  O   UNL     1       6.152   5.120  19.906  0.00  0.00    +0.000 OA
ATOM     21  H   UNL     1       5.531   5.829  20.196  0.00  0.00    +0.000 HD
ENDBRANCH  19  20
ENDBRANCH  11  19
ENDBRANCH   7  17
ENDBRANCH   1   9
BRANCH   4  22
ATOM     22  S   UNL     1      -0.468  11.641  19.463  0.00  0.00    +0.000 S 
ATOM     23  O   UNL     1      -0.224  12.328  20.713  0.00  0.00    +0.000 OA
ATOM     24  O   UNL     1      -0.301  12.315  18.191  0.00  0.00    +0.000 OA
BRANCH  22  25
ATOM     25  N   UNL     1      -2.046  11.016  19.454  0.00  0.00    +0.000 N 
ATOM     26  H   UNL     1      -2.612  11.359  20.228  0.00  0.00    +0.000 HD
BRANCH  25  27
ATOM     27  C   UNL     1      -2.691  10.848  18.196  0.00  0.00    +0.000 A 
ATOM     28  C   UNL     1      -2.133   9.954  17.282  0.00  0.00    +0.000 A 
ATOM     29  C   UNL     1      -2.675   9.840  16.001  0.00  0.00    +0.000 A 
ATOM     30  C   UNL     1      -3.754  10.641  15.630  0.00  0.00    +0.000 A 
ATOM     31  C   UNL     1      -4.311  11.533  16.549  0.00  0.00    +0.000 A 
ATOM     32  C   UNL     1      -3.790  11.623  17.841  0.00  0.00    +0.000 A 
ENDBRANCH  25  27
ENDBRANCH  22  25
ENDBRANCH   4  22
TORSDOF 7
ENDMDL
