MODEL 1
REMARK VINA RESULT:      -8.4      0.000      0.000
REMARK  Name = 
REMARK  6 active torsions:
REMARK  status: ('A' for Active; 'I' for Inactive)
REMARK    1  A    between atoms: C_1  and  N_2
REMARK    2  A    between atoms: N_2  and  C_3
REMARK    3  A    between atoms: N_2  and  C_4
REMARK    4  A    between atoms: C_4  and  C_5
REMARK    5  A    between atoms: N_12  and  C_13
REMARK    6  A    between atoms: C_18  and  C_19
REMARK                            x       y       z     vdW  Elec       q    Type
REMARK                         _______ _______ _______ _____ _____    ______ ____
ROOT
ATOM      1  C   UNL     1      -0.952  11.273  18.614  0.00  0.00    +0.000 A 
ATOM      2  C   UNL     1      -0.828  11.887  19.846  0.00  0.00    +0.000 A 
ATOM      3  S   UNL     1       0.331  11.044  20.806  0.00  0.00    +0.000 S 
ATOM      4  C   UNL     1       0.591   9.969  19.507  0.00  0.00    +0.000 A 
ATOM      5  N   UNL     1       1.533   9.000  19.721  0.00  0.00    +0.000 N 
ATOM      6  C   UNL     1       2.014   8.259  18.658  0.00  0.00    +0.000 C 
ATOM      7  O   UNL     1       1.724   8.457  17.482  0.00  0.00    +0.000 OA
ATOM      8  N   UNL     1       2.912   7.282  19.057  0.00  0.00    +0.000 N 
ATOM      9  N   UNL     1      -0.137  10.167  18.447  0.00  0.00    +0.000 NA
ATOM     10  H   UNL     1       1.997   8.997  20.612  0.00  0.00    +0.000 HD
ATOM     11  H   UNL     1       3.169   7.170  20.023  0.00  0.00    +0.000 HD
ENDROOT
BRANCH   8  12
ATOM     12  C   UNL     1       3.582   6.489  18.101  0.00  0.00    +0.000 A 
ATOM     13  C   UNL     1       4.387   7.171  17.177  0.00  0.00    +0.000 A 
ATOM     14  C   UNL     1       5.082   6.493  16.182  0.00  0.00    +0.000 A 
ATOM     15  C   UNL     1       5.003   5.111  16.121  0.00  0.00    +0.000 A 
ATOM     16  C   UNL     1       4.209   4.420  17.044  0.00  0.00    +0.000 A 
ATOM     17  C   UNL     1       3.440   5.079  18.047  0.00  0.00    +0.000 A 
BRANCH  17  18
ATOM     18  C   UNL     1       2.617   4.247  18.977  0.00  0.00    +0.000 A 
ATOM     19  C   UNL     1       1.474   3.541  18.560  0.00  0.00    +0.000 A 
ATOM     20  C   UNL     1       0.728   2.747  19.442  0.00  0.00    +0.000 A 
ATOM     21  C   UNL     1       1.080   2.680  20.789  0.00  0.00    +0.000 A 
ATOM     22  C   UNL     1       2.174   3.405  21.246  0.00  0.00    +0.000 A 
ATOM     23  C   UNL     1       2.935   4.165  20.350  0.00  0.00    +0.000 A 
ENDBRANCH  17  18
ENDBRANCH   8  12
BRANCH   1  24
ATOM     24  C   UNL     1      -1.860  11.647  17.476  0.00  0.00    +0.000 C 
BRANCH  24  26
ATOM     25  C   UNL     1      -3.686  10.036  17.582  0.00  0.00    +0.000 C 
ATOM     26  N   UNL     1      -2.497  10.469  16.846  0.00  0.00    +0.000 NA
ATOM     27  C   UNL     1      -2.893  10.829  15.474  0.00  0.00    +0.000 C 
ENDBRANCH  24  26
ENDBRANCH   1  24
TORSDOF 4
ENDMDL
MODEL 2
REMARK VINA RESULT:      -8.3      0.351      1.018
REMARK  Name = 
REMARK  6 active torsions:
REMARK  status: ('A' for Active; 'I' for Inactive)
REMARK    1  A    between atoms: C_1  and  N_2
REMARK    2  A    between atoms: N_2  and  C_3
REMARK    3  A    between atoms: N_2  and  C_4
REMARK    4  A    between atoms: C_4  and  C_5
REMARK    5  A    between atoms: N_12  and  C_13
REMARK    6  A    between atoms: C_18  and  C_19
REMARK                            x       y       z     vdW  Elec       q    Type
REMARK                         _______ _______ _______ _____ _____    ______ ____
ROOT
ATOM      1  C   UNL     1      -1.014  11.119  18.591  0.00  0.00    +0.000 A 
ATOM      2  C   UNL     1      -0.917  11.715  19.835  0.00  0.00    +0.000 A 
ATOM      3  S   UNL     1       0.251  10.884  20.793  0.00  0.00    +0.000 S 
ATOM      4  C   UNL     1       0.550   9.836  19.480  0.00  0.00    +0.000 A 
ATOM      5  N   UNL     1       1.511   8.886  19.689  0.00  0.00    +0.000 N 
ATOM      6  C   UNL     1       2.020   8.173  18.619  0.00  0.00    +0.000 C 
ATOM      7  O   UNL     1       1.738   8.384  17.443  0.00  0.00    +0.000 OA
ATOM      8  N   UNL     1       2.936   7.211  19.011  0.00  0.00    +0.000 N 
ATOM      9  N   UNL     1      -0.172  10.034  18.416  0.00  0.00    +0.000 NA
ATOM     10  H   UNL     1       1.966   8.879  20.584  0.00  0.00    +0.000 HD
ATOM     11  H   UNL     1       3.186   7.089  19.979  0.00  0.00    +0.000 HD
ENDROOT
BRANCH   8  12
ATOM     12  C   UNL     1       3.634   6.449  18.050  0.00  0.00    +0.000 A 
ATOM     13  C   UNL     1       4.449   7.163  17.159  0.00  0.00    +0.000 A 
ATOM     14  C   UNL     1       5.171   6.518  16.162  0.00  0.00    +0.000 A 
ATOM     15  C   UNL     1       5.110   5.137  16.066  0.00  0.00    +0.000 A 
ATOM     16  C   UNL     1       4.307   4.414  16.956  0.00  0.00    +0.000 A 
ATOM     17  C   UNL     1       3.511   5.039  17.959  0.00  0.00    +0.000 A 
BRANCH  17  18
ATOM     18  C   UNL     1       2.681   4.176  18.853  0.00  0.00    +0.000 A 
ATOM     19  C   UNL     1       3.034   3.892  20.184  0.00  0.00    +0.000 A 
ATOM     20  C   UNL     1       2.230   3.100  21.015  0.00  0.00    +0.000 A 
ATOM     21  C   UNL     1       1.065   2.522  20.514  0.00  0.00    +0.000 A 
ATOM     22  C   UNL     1       0.711   2.739  19.188  0.00  0.00    +0.000 A 
ATOM     23  C   UNL     1       1.501   3.562  18.377  0.00  0.00    +0.000 A 
ENDBRANCH  17  18
ENDBRANCH   8  12
BRANCH   1  24
ATOM     24  C   UNL     1      -1.919  11.490  17.450  0.00  0.00    +0.000 C 
BRANCH  24  26
ATOM     25  C   UNL     1      -4.298  10.968  17.395  0.00  0.00    +0.000 C 
ATOM     26  N   UNL     1      -2.943  10.458  17.178  0.00  0.00    +0.000 NA
ATOM     27  C   UNL     1      -2.817  10.033  15.773  0.00  0.00    +0.000 C 
ENDBRANCH  24  26
ENDBRANCH   1  24
TORSDOF 4
ENDMDL
MODEL 3
REMARK VINA RESULT:      -8.0      1.009      1.025
REMARK  Name = 
REMARK  6 active torsions:
REMARK  status: ('A' for Active; 'I' for Inactive)
REMARK    1  A    between atoms: C_1  and  N_2
REMARK    2  A    between atoms: N_2  and  C_3
REMARK    3  A    between atoms: N_2  and  C_4
REMARK    4  A    between atoms: C_4  and  C_5
REMARK    5  A    between atoms: N_12  and  C_13
REMARK    6  A    between atoms: C_18  and  C_19
REMARK                            x       y       z     vdW  Elec       q    Type
REMARK                         _______ _______ _______ _____ _____    ______ ____
ROOT
ATOM      1  C   UNL     1      -0.629  10.819  18.673  0.00  0.00    +0.000 A 
ATOM      2  C   UNL     1      -0.590  11.219  19.995  0.00  0.00    +0.000 A 
ATOM      3  S   UNL     1       0.535  10.245  20.868  0.00  0.00    +0.000 S 
ATOM      4  C   UNL     1       0.894   9.407  19.426  0.00  0.00    +0.000 A 
ATOM      5  N   UNL     1       1.846   8.431  19.530  0.00  0.00    +0.000 N 
ATOM      6  C   UNL     1       2.404   7.886  18.388  0.00  0.00    +0.000 C 
ATOM      7  O   UNL     1       2.175   8.275  17.247  0.00  0.00    +0.000 OA
ATOM      8  N   UNL     1       3.302   6.870  18.671  0.00  0.00    +0.000 N 
ATOM      9  N   UNL     1       0.221   9.769  18.373  0.00  0.00    +0.000 NA
ATOM     10  H   UNL     1       2.260   8.286  20.434  0.00  0.00    +0.000 HD
ATOM     11  H   UNL     1       3.508   6.602  19.619  0.00  0.00    +0.000 HD
ENDROOT
BRANCH   8  12
ATOM     12  C   UNL     1       4.045   6.259  17.637  0.00  0.00    +0.000 A 
ATOM     13  C   UNL     1       4.953   7.079  16.953  0.00  0.00    +0.000 A 
ATOM     14  C   UNL     1       5.726   6.588  15.907  0.00  0.00    +0.000 A 
ATOM     15  C   UNL     1       5.621   5.253  15.554  0.00  0.00    +0.000 A 
ATOM     16  C   UNL     1       4.723   4.423  16.237  0.00  0.00    +0.000 A 
ATOM     17  C   UNL     1       3.875   4.897  17.280  0.00  0.00    +0.000 A 
BRANCH  17  18
ATOM     18  C   UNL     1       2.944   3.931  17.939  0.00  0.00    +0.000 A 
ATOM     19  C   UNL     1       1.557   4.146  18.025  0.00  0.00    +0.000 A 
ATOM     20  C   UNL     1       0.696   3.217  18.625  0.00  0.00    +0.000 A 
ATOM     21  C   UNL     1       1.213   2.061  19.207  0.00  0.00    +0.000 A 
ATOM     22  C   UNL     1       2.584   1.840  19.185  0.00  0.00    +0.000 A 
ATOM     23  C   UNL     1       3.432   2.756  18.550  0.00  0.00    +0.000 A 
ENDBRANCH  17  18
ENDBRANCH   8  12
BRANCH   1  24
ATOM     24  C   UNL     1      -1.482  11.365  17.562  0.00  0.00    +0.000 C 
BRANCH  24  26
ATOM     25  C   UNL     1      -3.317   9.764  17.658  0.00  0.00    +0.000 C 
ATOM     26  N   UNL     1      -2.227  10.307  16.845  0.00  0.00    +0.000 NA
ATOM     27  C   UNL     1      -2.796  10.885  15.616  0.00  0.00    +0.000 C 
ENDBRANCH  24  26
ENDBRANCH   1  24
TORSDOF 4
ENDMDL
MODEL 4
REMARK VINA RESULT:      -8.0      0.836      1.427
REMARK  Name = 
REMARK  6 active torsions:
REMARK  status: ('A' for Active; 'I' for Inactive)
REMARK    1  A    between atoms: C_1  and  N_2
REMARK    2  A    between atoms: N_2  and  C_3
REMARK    3  A    between atoms: N_2  and  C_4
REMARK    4  A    between atoms: C_4  and  C_5
REMARK    5  A    between atoms: N_12  and  C_13
REMARK    6  A    between atoms: C_18  and  C_19
REMARK                            x       y       z     vdW  Elec       q    Type
REMARK                         _______ _______ _______ _____ _____    ______ ____
ROOT
ATOM      1  C   UNL     1      -1.273  10.298  18.240  0.00  0.00    +0.000 A 
ATOM      2  C   UNL     1      -0.933  11.401  19.001  0.00  0.00    +0.000 A 
ATOM      3  S   UNL     1       0.678  11.229  19.594  0.00  0.00    +0.000 S 
ATOM      4  C   UNL     1       0.797   9.739  18.772  0.00  0.00    +0.000 A 
ATOM      5  N   UNL     1       2.000   9.098  18.880  0.00  0.00    +0.000 N 
ATOM      6  C   UNL     1       2.296   8.037  18.044  0.00  0.00    +0.000 C 
ATOM      7  O   UNL     1       1.582   7.659  17.120  0.00  0.00    +0.000 OA
ATOM      8  N   UNL     1       3.524   7.465  18.328  0.00  0.00    +0.000 N 
ATOM      9  N   UNL     1      -0.269   9.352  18.133  0.00  0.00    +0.000 NA
ATOM     10  H   UNL     1       2.715   9.548  19.424  0.00  0.00    +0.000 HD
ATOM     11  H   UNL     1       4.113   7.824  19.061  0.00  0.00    +0.000 HD
ENDROOT
BRANCH   8  12
ATOM     12  C   UNL     1       4.040   6.431  17.517  0.00  0.00    +0.000 A 
ATOM     13  C   UNL     1       4.910   6.819  16.488  0.00  0.00    +0.000 A 
ATOM     14  C   UNL     1       5.465   5.887  15.619  0.00  0.00    +0.000 A 
ATOM     15  C   UNL     1       5.180   4.543  15.793  0.00  0.00    +0.000 A 
ATOM     16  C   UNL     1       4.320   4.144  16.824  0.00  0.00    +0.000 A 
ATOM     17  C   UNL     1       3.689   5.070  17.704  0.00  0.00    +0.000 A 
BRANCH  17  18
ATOM     18  C   UNL     1       2.780   4.540  18.765  0.00  0.00    +0.000 A 
ATOM     19  C   UNL     1       3.020   4.724  20.138  0.00  0.00    +0.000 A 
ATOM     20  C   UNL     1       2.143   4.241  21.119  0.00  0.00    +0.000 A 
ATOM     21  C   UNL     1       1.018   3.508  20.748  0.00  0.00    +0.000 A 
ATOM     22  C   UNL     1       0.775   3.263  19.403  0.00  0.00    +0.000 A 
ATOM     23  C   UNL     1       1.637   3.782  18.429  0.00  0.00    +0.000 A 
ENDBRANCH  17  18
ENDBRANCH   8  12
BRANCH   1  24
ATOM     24  C   UNL     1      -2.579  10.010  17.554  0.00  0.00    +0.000 C 
BRANCH  24  26
ATOM     25  C   UNL     1      -2.809  10.441  15.166  0.00  0.00    +0.000 C 
ATOM     26  N   UNL     1      -2.907  11.008  16.513  0.00  0.00    +0.000 NA
ATOM     27  C   UNL     1      -4.286  11.476  16.730  0.00  0.00    +0.000 C 
ENDBRANCH  24  26
ENDBRANCH   1  24
TORSDOF 4
ENDMDL
MODEL 5
REMARK VINA RESULT:      -7.5      1.475      1.950
REMARK  Name = 
REMARK  6 active torsions:
REMARK  status: ('A' for Active; 'I' for Inactive)
REMARK    1  A    between atoms: C_1  and  N_2
REMARK    2  A    between atoms: N_2  and  C_3
REMARK    3  A    between atoms: N_2  and  C_4
REMARK    4  A    between atoms: C_4  and  C_5
REMARK    5  A    between atoms: N_12  and  C_13
REMARK    6  A    between atoms: C_18  and  C_19
REMARK                            x       y       z     vdW  Elec       q    Type
REMARK                         _______ _______ _______ _____ _____    ______ ____
ROOT
ATOM      1  C   UNL     1      -0.496  10.185  20.458  0.00  0.00    +0.000 A 
ATOM      2  C   UNL     1      -0.267  10.357  21.810  0.00  0.00    +0.000 A 
ATOM      3  S   UNL     1       0.987   9.294  22.332  0.00  0.00    +0.000 S 
ATOM      4  C   UNL     1       1.140   8.725  20.731  0.00  0.00    +0.000 A 
ATOM      5  N   UNL     1       2.109   7.782  20.528  0.00  0.00    +0.000 N 
ATOM      6  C   UNL     1       2.500   7.459  19.242  0.00  0.00    +0.000 C 
ATOM      7  O   UNL     1       2.100   8.025  18.229  0.00  0.00    +0.000 OA
ATOM      8  N   UNL     1       3.443   6.444  19.214  0.00  0.00    +0.000 N 
ATOM      9  N   UNL     1       0.315   9.233  19.863  0.00  0.00    +0.000 NA
ATOM     10  H   UNL     1       2.654   7.502  21.325  0.00  0.00    +0.000 HD
ATOM     11  H   UNL     1       3.790   6.028  20.062  0.00  0.00    +0.000 HD
ENDROOT
BRANCH   8  12
ATOM     12  C   UNL     1       4.033   6.045  17.995  0.00  0.00    +0.000 A 
ATOM     13  C   UNL     1       4.860   6.985  17.364  0.00  0.00    +0.000 A 
ATOM     14  C   UNL     1       5.480   6.706  16.152  0.00  0.00    +0.000 A 
ATOM     15  C   UNL     1       5.305   5.461  15.571  0.00  0.00    +0.000 A 
ATOM     16  C   UNL     1       4.488   4.511  16.198  0.00  0.00    +0.000 A 
ATOM     17  C   UNL     1       3.793   4.774  17.413  0.00  0.00    +0.000 A 
BRANCH  17  18
ATOM     18  C   UNL     1       2.937   3.695  17.995  0.00  0.00    +0.000 A 
ATOM     19  C   UNL     1       3.458   2.472  18.454  0.00  0.00    +0.000 A 
ATOM     20  C   UNL     1       2.644   1.482  19.019  0.00  0.00    +0.000 A 
ATOM     21  C   UNL     1       1.265   1.669  19.091  0.00  0.00    +0.000 A 
ATOM     22  C   UNL     1       0.709   2.844  18.600  0.00  0.00    +0.000 A 
ATOM     23  C   UNL     1       1.535   3.844  18.073  0.00  0.00    +0.000 A 
ENDBRANCH  17  18
ENDBRANCH   8  12
BRANCH   1  24
ATOM     24  C   UNL     1      -1.510  10.877  19.591  0.00  0.00    +0.000 C 
BRANCH  24  26
ATOM     25  C   UNL     1      -1.882  10.940  17.184  0.00  0.00    +0.000 C 
ATOM     26  N   UNL     1      -0.961  11.267  18.274  0.00  0.00    +0.000 NA
ATOM     27  C   UNL     1      -0.726  12.721  18.276  0.00  0.00    +0.000 C 
ENDBRANCH  24  26
ENDBRANCH   1  24
TORSDOF 4
ENDMDL
MODEL 6
REMARK VINA RESULT:      -7.4      2.040      3.028
REMARK  Name = 
REMARK  6 active torsions:
REMARK  status: ('A' for Active; 'I' for Inactive)
REMARK    1  A    between atoms: C_1  and  N_2
REMARK    2  A    between atoms: N_2  and  C_3
REMARK    3  A    between atoms: N_2  and  C_4
REMARK    4  A    between atoms: C_4  and  C_5
REMARK    5  A    between atoms: N_12  and  C_13
REMARK    6  A    between atoms: C_18  and  C_19
REMARK                            x       y       z     vdW  Elec       q    Type
REMARK                         _______ _______ _______ _____ _____    ______ ____
ROOT
ATOM      1  C   UNL     1      -0.042  10.545  20.062  0.00  0.00    +0.000 A 
ATOM      2  C   UNL     1      -1.100  10.620  19.176  0.00  0.00    +0.000 A 
ATOM      3  S   UNL     1      -0.708   9.776  17.724  0.00  0.00    +0.000 S 
ATOM      4  C   UNL     1       0.802   9.360  18.400  0.00  0.00    +0.000 A 
ATOM      5  N   UNL     1       1.609   8.586  17.613  0.00  0.00    +0.000 N 
ATOM      6  C   UNL     1       2.721   7.970  18.159  0.00  0.00    +0.000 C 
ATOM      7  O   UNL     1       3.012   7.988  19.351  0.00  0.00    +0.000 OA
ATOM      8  N   UNL     1       3.460   7.278  17.214  0.00  0.00    +0.000 N 
ATOM      9  N   UNL     1       1.043   9.828  19.590  0.00  0.00    +0.000 NA
ATOM     10  H   UNL     1       1.256   8.320  16.711  0.00  0.00    +0.000 HD
ATOM     11  H   UNL     1       3.174   7.240  16.250  0.00  0.00    +0.000 HD
ENDROOT
BRANCH   8  12
ATOM     12  C   UNL     1       4.577   6.506  17.601  0.00  0.00    +0.000 A 
ATOM     13  C   UNL     1       5.836   7.002  17.233  0.00  0.00    +0.000 A 
ATOM     14  C   UNL     1       7.004   6.317  17.547  0.00  0.00    +0.000 A 
ATOM     15  C   UNL     1       6.926   5.136  18.268  0.00  0.00    +0.000 A 
ATOM     16  C   UNL     1       5.674   4.637  18.648  0.00  0.00    +0.000 A 
ATOM     17  C   UNL     1       4.450   5.280  18.302  0.00  0.00    +0.000 A 
BRANCH  17  18
ATOM     18  C   UNL     1       3.166   4.659  18.749  0.00  0.00    +0.000 A 
ATOM     19  C   UNL     1       2.287   4.004  17.868  0.00  0.00    +0.000 A 
ATOM     20  C   UNL     1       1.099   3.407  18.309  0.00  0.00    +0.000 A 
ATOM     21  C   UNL     1       0.730   3.494  19.650  0.00  0.00    +0.000 A 
ATOM     22  C   UNL     1       1.549   4.177  20.540  0.00  0.00    +0.000 A 
ATOM     23  C   UNL     1       2.752   4.738  20.097  0.00  0.00    +0.000 A 
ENDBRANCH  17  18
ENDBRANCH   8  12
BRANCH   1  24
ATOM     24  C   UNL     1       0.068  11.155  21.432  0.00  0.00    +0.000 C 
BRANCH  24  26
ATOM     25  C   UNL     1      -0.084   9.651  23.343  0.00  0.00    +0.000 C 
ATOM     26  N   UNL     1      -0.827  10.507  22.416  0.00  0.00    +0.000 NA
ATOM     27  C   UNL     1      -1.513  11.557  23.188  0.00  0.00    +0.000 C 
ENDBRANCH  24  26
ENDBRANCH   1  24
TORSDOF 4
ENDMDL
MODEL 7
REMARK VINA RESULT:      -7.3      1.817      2.055
REMARK  Name = 
REMARK  6 active torsions:
REMARK  status: ('A' for Active; 'I' for Inactive)
REMARK    1  A    between atoms: C_1  and  N_2
REMARK    2  A    between atoms: N_2  and  C_3
REMARK    3  A    between atoms: N_2  and  C_4
REMARK    4  A    between atoms: C_4  and  C_5
REMARK    5  A    between atoms: N_12  and  C_13
REMARK    6  A    between atoms: C_18  and  C_19
REMARK                            x       y       z     vdW  Elec       q    Type
REMARK                         _______ _______ _______ _____ _____    ______ ____
ROOT
ATOM      1  C   UNL     1      -0.393  10.050  20.068  0.00  0.00    +0.000 A 
ATOM      2  C   UNL     1      -0.163  10.309  21.406  0.00  0.00    +0.000 A 
ATOM      3  S   UNL     1       1.124   9.315  21.982  0.00  0.00    +0.000 S 
ATOM      4  C   UNL     1       1.287   8.658  20.416  0.00  0.00    +0.000 A 
ATOM      5  N   UNL     1       2.283   7.733  20.263  0.00  0.00    +0.000 N 
ATOM      6  C   UNL     1       2.677   7.346  18.996  0.00  0.00    +0.000 C 
ATOM      7  O   UNL     1       2.256   7.840  17.954  0.00  0.00    +0.000 OA
ATOM      8  N   UNL     1       3.649   6.360  19.022  0.00  0.00    +0.000 N 
ATOM      9  N   UNL     1       0.443   9.090  19.525  0.00  0.00    +0.000 NA
ATOM     10  H   UNL     1       2.839   7.517  21.071  0.00  0.00    +0.000 HD
ATOM     11  H   UNL     1       4.012   6.005  19.890  0.00  0.00    +0.000 HD
ENDROOT
BRANCH   8  12
ATOM     12  C   UNL     1       4.245   5.907  17.825  0.00  0.00    +0.000 A 
ATOM     13  C   UNL     1       5.131   6.793  17.194  0.00  0.00    +0.000 A 
ATOM     14  C   UNL     1       5.764   6.458  16.002  0.00  0.00    +0.000 A 
ATOM     15  C   UNL     1       5.539   5.211  15.442  0.00  0.00    +0.000 A 
ATOM     16  C   UNL     1       4.663   4.316  16.069  0.00  0.00    +0.000 A 
ATOM     17  C   UNL     1       3.955   4.638  17.263  0.00  0.00    +0.000 A 
BRANCH  17  18
ATOM     18  C   UNL     1       3.035   3.614  17.846  0.00  0.00    +0.000 A 
ATOM     19  C   UNL     1       1.661   3.844  18.039  0.00  0.00    +0.000 A 
ATOM     20  C   UNL     1       0.809   2.864  18.565  0.00  0.00    +0.000 A 
ATOM     21  C   UNL     1       1.325   1.632  18.963  0.00  0.00    +0.000 A 
ATOM     22  C   UNL     1       2.686   1.388  18.834  0.00  0.00    +0.000 A 
ATOM     23  C   UNL     1       3.523   2.360  18.273  0.00  0.00    +0.000 A 
ENDBRANCH  17  18
ENDBRANCH   8  12
BRANCH   1  24
ATOM     24  C   UNL     1      -1.431  10.660  19.169  0.00  0.00    +0.000 C 
BRANCH  24  26
ATOM     25  C   UNL     1      -1.037  13.033  18.781  0.00  0.00    +0.000 C 
ATOM     26  N   UNL     1      -1.782  12.043  19.561  0.00  0.00    +0.000 NA
ATOM     27  C   UNL     1      -3.222  12.244  19.331  0.00  0.00    +0.000 C 
ENDBRANCH  24  26
ENDBRANCH   1  24
TORSDOF 4
ENDMDL
MODEL 8
REMARK VINA RESULT:      -7.2      1.381      1.755
REMARK  Name = 
REMARK  6 active torsions:
REMARK  status: ('A' for Active; 'I' for Inactive)
REMARK    1  A    between atoms: C_1  and  N_2
REMARK    2  A    between atoms: N_2  and  C_3
REMARK    3  A    between atoms: N_2  and  C_4
REMARK    4  A    between atoms: C_4  and  C_5
REMARK    5  A    between atoms: N_12  and  C_13
REMARK    6  A    between atoms: C_18  and  C_19
REMARK                            x       y       z     vdW  Elec       q    Type
REMARK                         _______ _______ _______ _____ _____    ______ ____
ROOT
ATOM      1  C   UNL     1      -0.657  10.727  20.819  0.00  0.00    +0.000 A 
ATOM      2  C   UNL     1      -0.539  10.795  22.195  0.00  0.00    +0.000 A 
ATOM      3  S   UNL     1       0.541   9.571  22.751  0.00  0.00    +0.000 S 
ATOM      4  C   UNL     1       0.783   9.081  21.135  0.00  0.00    +0.000 A 
ATOM      5  N   UNL     1       1.663   8.049  20.955  0.00  0.00    +0.000 N 
ATOM      6  C   UNL     1       2.137   7.759  19.689  0.00  0.00    +0.000 C 
ATOM      7  O   UNL     1       1.896   8.423  18.686  0.00  0.00    +0.000 OA
ATOM      8  N   UNL     1       2.966   6.650  19.676  0.00  0.00    +0.000 N 
ATOM      9  N   UNL     1       0.102   9.727  20.235  0.00  0.00    +0.000 NA
ATOM     10  H   UNL     1       2.097   7.666  21.776  0.00  0.00    +0.000 HD
ATOM     11  H   UNL     1       3.186   6.150  20.521  0.00  0.00    +0.000 HD
ENDROOT
BRANCH   8  12
ATOM     12  C   UNL     1       3.622   6.258  18.489  0.00  0.00    +0.000 A 
ATOM     13  C   UNL     1       4.398   7.237  17.852  0.00  0.00    +0.000 A 
ATOM     14  C   UNL     1       5.077   6.967  16.669  0.00  0.00    +0.000 A 
ATOM     15  C   UNL     1       5.011   5.695  16.125  0.00  0.00    +0.000 A 
ATOM     16  C   UNL     1       4.247   4.708  16.758  0.00  0.00    +0.000 A 
ATOM     17  C   UNL     1       3.495   4.955  17.943  0.00  0.00    +0.000 A 
BRANCH  17  18
ATOM     18  C   UNL     1       2.702   3.834  18.533  0.00  0.00    +0.000 A 
ATOM     19  C   UNL     1       1.449   3.439  18.034  0.00  0.00    +0.000 A 
ATOM     20  C   UNL     1       0.731   2.369  18.586  0.00  0.00    +0.000 A 
ATOM     21  C   UNL     1       1.231   1.694  19.697  0.00  0.00    +0.000 A 
ATOM     22  C   UNL     1       2.443   2.089  20.249  0.00  0.00    +0.000 A 
ATOM     23  C   UNL     1       3.170   3.135  19.668  0.00  0.00    +0.000 A 
ENDBRANCH  17  18
ENDBRANCH   8  12
BRANCH   1  24
ATOM     24  C   UNL     1      -1.506  11.576  19.916  0.00  0.00    +0.000 C 
BRANCH  24  26
ATOM     25  C   UNL     1      -1.974  11.350  17.535  0.00  0.00    +0.000 C 
ATOM     26  N   UNL     1      -0.961  11.667  18.544  0.00  0.00    +0.000 NA
ATOM     27  C   UNL     1      -0.485  13.043  18.319  0.00  0.00    +0.000 C 
ENDBRANCH  24  26
ENDBRANCH   1  24
TORSDOF 4
ENDMDL
MODEL 9
REMARK VINA RESULT:      -7.2      1.643      3.457
REMARK  Name = 
REMARK  6 active torsions:
REMARK  status: ('A' for Active; 'I' for Inactive)
REMARK    1  A    between atoms: C_1  and  N_2
REMARK    2  A    between atoms: N_2  and  C_3
REMARK    3  A    between atoms: N_2  and  C_4
REMARK    4  A    between atoms: C_4  and  C_5
REMARK    5  A    between atoms: N_12  and  C_13
REMARK    6  A    between atoms: C_18  and  C_19
REMARK                            x       y       z     vdW  Elec       q    Type
REMARK                         _______ _______ _______ _____ _____    ______ ____
ROOT
ATOM      1  C   UNL     1      -0.559  11.346  18.245  0.00  0.00    +0.000 A 
ATOM      2  C   UNL     1       0.147  12.330  18.912  0.00  0.00    +0.000 A 
ATOM      3  S   UNL     1       1.555  11.649  19.639  0.00  0.00    +0.000 S 
ATOM      4  C   UNL     1       1.131  10.131  18.986  0.00  0.00    +0.000 A 
ATOM      5  N   UNL     1       2.002   9.110  19.251  0.00  0.00    +0.000 N 
ATOM      6  C   UNL     1       1.903   7.921  18.553  0.00  0.00    +0.000 C 
ATOM      7  O   UNL     1       1.128   7.722  17.622  0.00  0.00    +0.000 OA
ATOM      8  N   UNL     1       2.816   6.974  18.986  0.00  0.00    +0.000 N 
ATOM      9  N   UNL     1       0.019  10.090  18.313  0.00  0.00    +0.000 NA
ATOM     10  H   UNL     1       2.816   9.328  19.797  0.00  0.00    +0.000 HD
ATOM     11  H   UNL     1       3.473   7.178  19.721  0.00  0.00    +0.000 HD
ENDROOT
BRANCH   8  12
ATOM     12  C   UNL     1       2.931   5.731  18.328  0.00  0.00    +0.000 A 
ATOM     13  C   UNL     1       1.742   5.008  18.149  0.00  0.00    +0.000 A 
ATOM     14  C   UNL     1       1.738   3.765  17.527  0.00  0.00    +0.000 A 
ATOM     15  C   UNL     1       2.927   3.243  17.044  0.00  0.00    +0.000 A 
ATOM     16  C   UNL     1       4.118   3.962  17.210  0.00  0.00    +0.000 A 
ATOM     17  C   UNL     1       4.175   5.215  17.886  0.00  0.00    +0.000 A 
BRANCH  17  18
ATOM     18  C   UNL     1       5.499   5.895  18.017  0.00  0.00    +0.000 A 
ATOM     19  C   UNL     1       5.892   6.967  17.196  0.00  0.00    +0.000 A 
ATOM     20  C   UNL     1       7.128   7.609  17.350  0.00  0.00    +0.000 A 
ATOM     21  C   UNL     1       8.035   7.156  18.306  0.00  0.00    +0.000 A 
ATOM     22  C   UNL     1       7.702   6.068  19.102  0.00  0.00    +0.000 A 
ATOM     23  C   UNL     1       6.449   5.457  18.966  0.00  0.00    +0.000 A 
ENDBRANCH  17  18
ENDBRANCH   8  12
BRANCH   1  24
ATOM     24  C   UNL     1      -1.855  11.478  17.496  0.00  0.00    +0.000 C 
BRANCH  24  26
ATOM     25  C   UNL     1      -3.408   9.605  17.629  0.00  0.00    +0.000 C 
ATOM     26  N   UNL     1      -2.293  10.202  16.890  0.00  0.00    +0.000 NA
ATOM     27  C   UNL     1      -2.728  10.465  15.507  0.00  0.00    +0.000 C 
ENDBRANCH  24  26
ENDBRANCH   1  24
TORSDOF 4
ENDMDL
