MODEL 1
REMARK VINA RESULT:      -6.4      0.000      0.000
REMARK  Name = 
REMARK  8 active torsions:
REMARK  status: ('A' for Active; 'I' for Inactive)
REMARK    1  A    between atoms: C_1  and  C_2
REMARK    2  A    between atoms: C_2  and  C_3
REMARK    3  A    between atoms: C_2  and  N_9
REMARK    4  A    between atoms: C_3  and  N_4
REMARK    5  A    between atoms: N_12  and  C_13
REMARK    6  A    between atoms: N_12  and  C_14
REMARK    7  A    between atoms: C_14  and  C_15
REMARK    8  A    between atoms: N_18  and  C_19
REMARK                            x       y       z     vdW  Elec       q    Type
REMARK                         _______ _______ _______ _____ _____    ______ ____
ROOT
ATOM      1  N   UNL     1       5.816   5.543  18.751  0.00  0.00    +0.000 N 
ATOM      2  C   UNL     1       4.731   6.120  18.156  0.00  0.00    +0.000 C 
ATOM      3  O   UNL     1       4.854   6.793  17.133  0.00  0.00    +0.000 OA
ATOM      4  N   UNL     1       3.507   5.867  18.751  0.00  0.00    +0.000 N 
ATOM      5  C   UNL     1       3.257   5.013  19.909  0.00  0.00    +0.000 C 
ATOM      6  H   UNL     1       5.737   5.305  19.726  0.00  0.00    +0.000 HD
ENDROOT
BRANCH   1   8
ATOM      7  C   UNL     1       8.113   5.927  19.427  0.00  0.00    +0.000 C 
ATOM      8  C   UNL     1       7.185   5.695  18.233  0.00  0.00    +0.000 C 
BRANCH   8   9
ATOM      9  C   UNL     1       7.595   4.475  17.388  0.00  0.00    +0.000 C 
BRANCH   9  10
ATOM     10  N   UNL     1       7.057   4.475  16.038  0.00  0.00    +0.000 N 
ATOM     11  C   UNL     1       6.011   3.740  15.562  0.00  0.00    +0.000 A 
ATOM     12  C   UNL     1       5.897   4.053  14.228  0.00  0.00    +0.000 A 
ATOM     13  C   UNL     1       6.934   4.971  13.988  0.00  0.00    +0.000 A 
ATOM     14  N   UNL     1       7.653   5.224  15.086  0.00  0.00    +0.000 NA
ENDBRANCH   9  10
ENDBRANCH   8   9
ENDBRANCH   1   8
BRANCH   4  15
ATOM     15  C   UNL     1       2.323   6.421  18.101  0.00  0.00    +0.000 C 
BRANCH  15  16
ATOM     16  C   UNL     1       2.023   7.803  18.565  0.00  0.00    +0.000 A 
ATOM     17  C   UNL     1       1.961   8.979  17.780  0.00  0.00    +0.000 A 
ATOM     18  N   UNL     1       1.530  10.041  18.471  0.00  0.00    +0.000 NA
ATOM     19  N   UNL     1       1.312   9.550  19.701  0.00  0.00    +0.000 N 
ATOM     20  C   UNL     1       0.691  10.369  20.713  0.00  0.00    +0.000 C 
ATOM     21  C   UNL     1       1.639   8.228  19.823  0.00  0.00    +0.000 A 
ENDBRANCH  15  16
ENDBRANCH   4  15
TORSDOF 5
ENDMDL
MODEL 2
REMARK VINA RESULT:      -6.4      2.330      6.902
REMARK  Name = 
REMARK  8 active torsions:
REMARK  status: ('A' for Active; 'I' for Inactive)
REMARK    1  A    between atoms: C_1  and  C_2
REMARK    2  A    between atoms: C_2  and  C_3
REMARK    3  A    between atoms: C_2  and  N_9
REMARK    4  A    between atoms: C_3  and  N_4
REMARK    5  A    between atoms: N_12  and  C_13
REMARK    6  A    between atoms: N_12  and  C_14
REMARK    7  A    between atoms: C_14  and  C_15
REMARK    8  A    between atoms: N_18  and  C_19
REMARK                            x       y       z     vdW  Elec       q    Type
REMARK                         _______ _______ _______ _____ _____    ______ ____
ROOT
ATOM      1  N   UNL     1       2.932   5.603  18.513  0.00  0.00    +0.000 N 
ATOM      2  C   UNL     1       4.182   5.152  18.198  0.00  0.00    +0.000 C 
ATOM      3  O   UNL     1       5.183   5.656  18.705  0.00  0.00    +0.000 OA
ATOM      4  N   UNL     1       4.238   4.085  17.317  0.00  0.00    +0.000 N 
ATOM      5  C   UNL     1       3.104   3.369  16.737  0.00  0.00    +0.000 C 
ATOM      6  H   UNL     1       2.194   5.416  17.855  0.00  0.00    +0.000 HD
ENDROOT
BRANCH   1   8
ATOM      7  C   UNL     1       2.181   7.905  18.641  0.00  0.00    +0.000 C 
ATOM      8  C   UNL     1       2.698   6.714  19.450  0.00  0.00    +0.000 C 
BRANCH   8   9
ATOM      9  C   UNL     1       1.733   6.294  20.574  0.00  0.00    +0.000 C 
BRANCH   9  10
ATOM     10  N   UNL     1       1.665   4.859  20.799  0.00  0.00    +0.000 N 
ATOM     11  C   UNL     1       2.393   4.125  21.687  0.00  0.00    +0.000 A 
ATOM     12  C   UNL     1       2.005   2.817  21.512  0.00  0.00    +0.000 A 
ATOM     13  C   UNL     1       1.052   2.863  20.480  0.00  0.00    +0.000 A 
ATOM     14  N   UNL     1       0.849   4.105  20.031  0.00  0.00    +0.000 NA
ENDBRANCH   9  10
ENDBRANCH   8   9
ENDBRANCH   1   8
BRANCH   4  15
ATOM     15  C   UNL     1       5.558   3.543  17.009  0.00  0.00    +0.000 C 
BRANCH  15  16
ATOM     16  C   UNL     1       6.134   4.137  15.773  0.00  0.00    +0.000 A 
ATOM     17  C   UNL     1       7.085   5.182  15.684  0.00  0.00    +0.000 A 
ATOM     18  N   UNL     1       7.506   5.394  14.432  0.00  0.00    +0.000 NA
ATOM     19  N   UNL     1       6.829   4.485  13.712  0.00  0.00    +0.000 N 
ATOM     20  C   UNL     1       7.124   4.297  12.314  0.00  0.00    +0.000 C 
ATOM     21  C   UNL     1       5.958   3.743  14.460  0.00  0.00    +0.000 A 
ENDBRANCH  15  16
ENDBRANCH   4  15
TORSDOF 5
ENDMDL
MODEL 3
REMARK VINA RESULT:      -6.3      3.396      8.150
REMARK  Name = 
REMARK  8 active torsions:
REMARK  status: ('A' for Active; 'I' for Inactive)
REMARK    1  A    between atoms: C_1  and  C_2
REMARK    2  A    between atoms: C_2  and  C_3
REMARK    3  A    between atoms: C_2  and  N_9
REMARK    4  A    between atoms: C_3  and  N_4
REMARK    5  A    between atoms: N_12  and  C_13
REMARK    6  A    between atoms: N_12  and  C_14
REMARK    7  A    between atoms: C_14  and  C_15
REMARK    8  A    between atoms: N_18  and  C_19
REMARK                            x       y       z     vdW  Elec       q    Type
REMARK                         _______ _______ _______ _____ _____    ______ ____
ROOT
ATOM      1  N   UNL     1       1.126   9.355  19.334  0.00  0.00    +0.000 N 
ATOM      2  C   UNL     1       1.872   8.613  18.463  0.00  0.00    +0.000 C 
ATOM      3  O   UNL     1       2.150   9.042  17.343  0.00  0.00    +0.000 OA
ATOM      4  N   UNL     1       2.317   7.389  18.934  0.00  0.00    +0.000 N 
ATOM      5  C   UNL     1       2.112   6.840  20.272  0.00  0.00    +0.000 C 
ATOM      6  H   UNL     1       0.648   8.861  20.069  0.00  0.00    +0.000 HD
ENDROOT
BRANCH   1   8
ATOM      7  C   UNL     1      -0.848  10.506  18.523  0.00  0.00    +0.000 C 
ATOM      8  C   UNL     1       0.596  10.685  18.997  0.00  0.00    +0.000 C 
BRANCH   8   9
ATOM      9  C   UNL     1       0.713  11.646  20.195  0.00  0.00    +0.000 C 
BRANCH   9  10
ATOM     10  N   UNL     1       0.046  11.181  21.401  0.00  0.00    +0.000 N 
ATOM     11  C   UNL     1      -1.041  11.731  22.011  0.00  0.00    +0.000 A 
ATOM     12  C   UNL     1      -1.283  10.966  23.129  0.00  0.00    +0.000 A 
ATOM     13  C   UNL     1      -0.273   9.989  23.116  0.00  0.00    +0.000 A 
ATOM     14  N   UNL     1       0.550  10.121  22.071  0.00  0.00    +0.000 NA
ENDBRANCH   9  10
ENDBRANCH   8   9
ENDBRANCH   1   8
BRANCH   4  15
ATOM     15  C   UNL     1       3.167   6.603  18.045  0.00  0.00    +0.000 C 
BRANCH  15  16
ATOM     16  C   UNL     1       2.844   5.151  18.099  0.00  0.00    +0.000 A 
ATOM     17  C   UNL     1       1.659   4.518  17.653  0.00  0.00    +0.000 A 
ATOM     18  N   UNL     1       1.732   3.183  17.713  0.00  0.00    +0.000 NA
ATOM     19  N   UNL     1       2.964   2.954  18.195  0.00  0.00    +0.000 N 
ATOM     20  C   UNL     1       3.480   1.610  18.266  0.00  0.00    +0.000 C 
ATOM     21  C   UNL     1       3.650   4.099  18.490  0.00  0.00    +0.000 A 
ENDBRANCH  15  16
ENDBRANCH   4  15
TORSDOF 5
ENDMDL
MODEL 4
REMARK VINA RESULT:      -6.0      3.209      8.017
REMARK  Name = 
REMARK  8 active torsions:
REMARK  status: ('A' for Active; 'I' for Inactive)
REMARK    1  A    between atoms: C_1  and  C_2
REMARK    2  A    between atoms: C_2  and  C_3
REMARK    3  A    between atoms: C_2  and  N_9
REMARK    4  A    between atoms: C_3  and  N_4
REMARK    5  A    between atoms: N_12  and  C_13
REMARK    6  A    between atoms: N_12  and  C_14
REMARK    7  A    between atoms: C_14  and  C_15
REMARK    8  A    between atoms: N_18  and  C_19
REMARK                            x       y       z     vdW  Elec       q    Type
REMARK                         _______ _______ _______ _____ _____    ______ ____
ROOT
ATOM      1  N   UNL     1       1.238   9.390  19.332  0.00  0.00    +0.000 N 
ATOM      2  C   UNL     1       1.937   8.670  18.405  0.00  0.00    +0.000 C 
ATOM      3  O   UNL     1       2.162   9.128  17.285  0.00  0.00    +0.000 OA
ATOM      4  N   UNL     1       2.400   7.433  18.821  0.00  0.00    +0.000 N 
ATOM      5  C   UNL     1       2.259   6.848  20.152  0.00  0.00    +0.000 C 
ATOM      6  H   UNL     1       0.794   8.878  20.075  0.00  0.00    +0.000 HD
ENDROOT
BRANCH   1   8
ATOM      7  C   UNL     1      -0.729  10.560  18.531  0.00  0.00    +0.000 C 
ATOM      8  C   UNL     1       0.697  10.731  19.057  0.00  0.00    +0.000 C 
BRANCH   8   9
ATOM      9  C   UNL     1       0.766  11.621  20.312  0.00  0.00    +0.000 C 
BRANCH   9  10
ATOM     10  N   UNL     1       0.155  11.035  21.494  0.00  0.00    +0.000 N 
ATOM     11  C   UNL     1      -0.990  11.432  22.119  0.00  0.00    +0.000 A 
ATOM     12  C   UNL     1      -1.144  10.600  23.203  0.00  0.00    +0.000 A 
ATOM     13  C   UNL     1      -0.028   9.747  23.158  0.00  0.00    +0.000 A 
ATOM     14  N   UNL     1       0.776  10.015  22.125  0.00  0.00    +0.000 NA
ENDBRANCH   9  10
ENDBRANCH   8   9
ENDBRANCH   1   8
BRANCH   4  15
ATOM     15  C   UNL     1       3.203   6.668  17.871  0.00  0.00    +0.000 C 
BRANCH  15  16
ATOM     16  C   UNL     1       2.952   5.205  17.975  0.00  0.00    +0.000 A 
ATOM     17  C   UNL     1       3.912   4.178  18.142  0.00  0.00    +0.000 A 
ATOM     18  N   UNL     1       3.357   2.978  18.342  0.00  0.00    +0.000 NA
ATOM     19  N   UNL     1       2.038   3.229  18.308  0.00  0.00    +0.000 N 
ATOM     20  C   UNL     1       1.091   2.193  18.635  0.00  0.00    +0.000 C 
ATOM     21  C   UNL     1       1.744   4.537  18.041  0.00  0.00    +0.000 A 
ENDBRANCH  15  16
ENDBRANCH   4  15
TORSDOF 5
ENDMDL
MODEL 5
REMARK VINA RESULT:      -5.9      2.617      7.038
REMARK  Name = 
REMARK  8 active torsions:
REMARK  status: ('A' for Active; 'I' for Inactive)
REMARK    1  A    between atoms: C_1  and  C_2
REMARK    2  A    between atoms: C_2  and  C_3
REMARK    3  A    between atoms: C_2  and  N_9
REMARK    4  A    between atoms: C_3  and  N_4
REMARK    5  A    between atoms: N_12  and  C_13
REMARK    6  A    between atoms: N_12  and  C_14
REMARK    7  A    between atoms: C_14  and  C_15
REMARK    8  A    between atoms: N_18  and  C_19
REMARK                            x       y       z     vdW  Elec       q    Type
REMARK                         _______ _______ _______ _____ _____    ______ ____
ROOT
ATOM      1  N   UNL     1       4.900   3.216  18.107  0.00  0.00    +0.000 N 
ATOM      2  C   UNL     1       4.800   4.018  17.007  0.00  0.00    +0.000 C 
ATOM      3  O   UNL     1       3.708   4.245  16.487  0.00  0.00    +0.000 OA
ATOM      4  N   UNL     1       5.982   4.579  16.555  0.00  0.00    +0.000 N 
ATOM      5  C   UNL     1       7.305   4.438  17.160  0.00  0.00    +0.000 C 
ATOM      6  H   UNL     1       5.794   2.792  18.290  0.00  0.00    +0.000 HD
ENDROOT
BRANCH   1   8
ATOM      7  C   UNL     1       3.955   1.049  18.648  0.00  0.00    +0.000 C 
ATOM      8  C   UNL     1       3.736   2.561  18.726  0.00  0.00    +0.000 C 
BRANCH   8   9
ATOM      9  C   UNL     1       3.525   3.059  20.168  0.00  0.00    +0.000 C 
BRANCH   9  10
ATOM     10  N   UNL     1       2.874   4.356  20.263  0.00  0.00    +0.000 N 
ATOM     11  C   UNL     1       1.647   4.630  20.790  0.00  0.00    +0.000 A 
ATOM     12  C   UNL     1       1.453   5.982  20.627  0.00  0.00    +0.000 A 
ATOM     13  C   UNL     1       2.613   6.431  19.972  0.00  0.00    +0.000 A 
ATOM     14  N   UNL     1       3.479   5.442  19.736  0.00  0.00    +0.000 NA
ENDBRANCH   9  10
ENDBRANCH   8   9
ENDBRANCH   1   8
BRANCH   4  15
ATOM     15  C   UNL     1       5.896   5.490  15.417  0.00  0.00    +0.000 C 
BRANCH  15  16
ATOM     16  C   UNL     1       6.140   4.797  14.124  0.00  0.00    +0.000 A 
ATOM     17  C   UNL     1       7.287   4.894  13.300  0.00  0.00    +0.000 A 
ATOM     18  N   UNL     1       7.260   4.038  12.272  0.00  0.00    +0.000 NA
ATOM     19  N   UNL     1       6.097   3.385  12.434  0.00  0.00    +0.000 N 
ATOM     20  C   UNL     1       5.770   2.261  11.593  0.00  0.00    +0.000 C 
ATOM     21  C   UNL     1       5.367   3.837  13.497  0.00  0.00    +0.000 A 
ENDBRANCH  15  16
ENDBRANCH   4  15
TORSDOF 5
ENDMDL
MODEL 6
REMARK VINA RESULT:      -5.8      2.549      4.102
REMARK  Name = 
REMARK  8 active torsions:
REMARK  status: ('A' for Active; 'I' for Inactive)
REMARK    1  A    between atoms: C_1  and  C_2
REMARK    2  A    between atoms: C_2  and  C_3
REMARK    3  A    between atoms: C_2  and  N_9
REMARK    4  A    between atoms: C_3  and  N_4
REMARK    5  A    between atoms: N_12  and  C_13
REMARK    6  A    between atoms: N_12  and  C_14
REMARK    7  A    between atoms: C_14  and  C_15
REMARK    8  A    between atoms: N_18  and  C_19
REMARK                            x       y       z     vdW  Elec       q    Type
REMARK                         _______ _______ _______ _____ _____    ______ ____
ROOT
ATOM      1  N   UNL     1       2.524   6.967  19.099  0.00  0.00    +0.000 N 
ATOM      2  C   UNL     1       1.758   7.841  19.816  0.00  0.00    +0.000 C 
ATOM      3  O   UNL     1       1.364   7.558  20.946  0.00  0.00    +0.000 OA
ATOM      4  N   UNL     1       1.497   9.058  19.209  0.00  0.00    +0.000 N 
ATOM      5  C   UNL     1       1.994   9.514  17.913  0.00  0.00    +0.000 C 
ATOM      6  H   UNL     1       2.536   7.077  18.099  0.00  0.00    +0.000 HD
ENDROOT
BRANCH   1   8
ATOM      7  C   UNL     1       1.942   4.614  19.017  0.00  0.00    +0.000 C 
ATOM      8  C   UNL     1       2.909   5.641  19.609  0.00  0.00    +0.000 C 
BRANCH   8   9
ATOM      9  C   UNL     1       4.381   5.330  19.281  0.00  0.00    +0.000 C 
BRANCH   9  10
ATOM     10  N   UNL     1       4.717   5.450  17.871  0.00  0.00    +0.000 N 
ATOM     11  C   UNL     1       5.036   4.444  17.007  0.00  0.00    +0.000 A 
ATOM     12  C   UNL     1       5.306   5.046  15.800  0.00  0.00    +0.000 A 
ATOM     13  C   UNL     1       5.142   6.420  16.043  0.00  0.00    +0.000 A 
ATOM     14  N   UNL     1       4.794   6.675  17.308  0.00  0.00    +0.000 NA
ENDBRANCH   9  10
ENDBRANCH   8   9
ENDBRANCH   1   8
BRANCH   4  15
ATOM     15  C   UNL     1       0.732  10.036  19.977  0.00  0.00    +0.000 C 
BRANCH  15  16
ATOM     16  C   UNL     1      -0.286  10.731  19.144  0.00  0.00    +0.000 A 
ATOM     17  C   UNL     1      -0.352  12.113  18.844  0.00  0.00    +0.000 A 
ATOM     18  N   UNL     1      -1.308  12.405  17.954  0.00  0.00    +0.000 NA
ATOM     19  N   UNL     1      -1.857  11.211  17.677  0.00  0.00    +0.000 N 
ATOM     20  C   UNL     1      -2.842  11.088  16.632  0.00  0.00    +0.000 C 
ATOM     21  C   UNL     1      -1.316  10.185  18.401  0.00  0.00    +0.000 A 
ENDBRANCH  15  16
ENDBRANCH   4  15
TORSDOF 5
ENDMDL
MODEL 7
REMARK VINA RESULT:      -5.8      2.002      3.496
REMARK  Name = 
REMARK  8 active torsions:
REMARK  status: ('A' for Active; 'I' for Inactive)
REMARK    1  A    between atoms: C_1  and  C_2
REMARK    2  A    between atoms: C_2  and  C_3
REMARK    3  A    between atoms: C_2  and  N_9
REMARK    4  A    between atoms: C_3  and  N_4
REMARK    5  A    between atoms: N_12  and  C_13
REMARK    6  A    between atoms: N_12  and  C_14
REMARK    7  A    between atoms: C_14  and  C_15
REMARK    8  A    between atoms: N_18  and  C_19
REMARK                            x       y       z     vdW  Elec       q    Type
REMARK                         _______ _______ _______ _____ _____    ______ ____
ROOT
ATOM      1  N   UNL     1       5.826   6.779  17.457  0.00  0.00    +0.000 N 
ATOM      2  C   UNL     1       4.941   6.283  18.371  0.00  0.00    +0.000 C 
ATOM      3  O   UNL     1       5.273   5.395  19.155  0.00  0.00    +0.000 OA
ATOM      4  N   UNL     1       3.686   6.866  18.379  0.00  0.00    +0.000 N 
ATOM      5  C   UNL     1       3.233   7.980  17.549  0.00  0.00    +0.000 C 
ATOM      6  H   UNL     1       5.444   7.232  16.643  0.00  0.00    +0.000 HD
ENDROOT
BRANCH   1   8
ATOM      7  C   UNL     1       7.907   6.514  18.674  0.00  0.00    +0.000 C 
ATOM      8  C   UNL     1       7.207   6.285  17.333  0.00  0.00    +0.000 C 
BRANCH   8   9
ATOM      9  C   UNL     1       7.227   4.808  16.897  0.00  0.00    +0.000 C 
BRANCH   9  10
ATOM     10  N   UNL     1       6.942   4.598  15.486  0.00  0.00    +0.000 N 
ATOM     11  C   UNL     1       6.055   3.718  14.942  0.00  0.00    +0.000 A 
ATOM     12  C   UNL     1       6.161   3.858  13.578  0.00  0.00    +0.000 A 
ATOM     13  C   UNL     1       7.156   4.834  13.398  0.00  0.00    +0.000 A 
ATOM     14  N   UNL     1       7.646   5.281  14.558  0.00  0.00    +0.000 NA
ENDBRANCH   9  10
ENDBRANCH   8   9
ENDBRANCH   1   8
BRANCH   4  15
ATOM     15  C   UNL     1       2.739   6.397  19.387  0.00  0.00    +0.000 C 
BRANCH  15  16
ATOM     16  C   UNL     1       2.127   5.093  19.017  0.00  0.00    +0.000 A 
ATOM     17  C   UNL     1       1.619   4.709  17.752  0.00  0.00    +0.000 A 
ATOM     18  N   UNL     1       1.262   3.421  17.707  0.00  0.00    +0.000 NA
ATOM     19  N   UNL     1       1.542   2.971  18.940  0.00  0.00    +0.000 N 
ATOM     20  C   UNL     1       1.431   1.566  19.246  0.00  0.00    +0.000 C 
ATOM     21  C   UNL     1       2.013   3.944  19.777  0.00  0.00    +0.000 A 
ENDBRANCH  15  16
ENDBRANCH   4  15
TORSDOF 5
ENDMDL
MODEL 8
REMARK VINA RESULT:      -5.8      3.107      5.012
REMARK  Name = 
REMARK  8 active torsions:
REMARK  status: ('A' for Active; 'I' for Inactive)
REMARK    1  A    between atoms: C_1  and  C_2
REMARK    2  A    between atoms: C_2  and  C_3
REMARK    3  A    between atoms: C_2  and  N_9
REMARK    4  A    between atoms: C_3  and  N_4
REMARK    5  A    between atoms: N_12  and  C_13
REMARK    6  A    between atoms: N_12  and  C_14
REMARK    7  A    between atoms: C_14  and  C_15
REMARK    8  A    between atoms: N_18  and  C_19
REMARK                            x       y       z     vdW  Elec       q    Type
REMARK                         _______ _______ _______ _____ _____    ______ ____
ROOT
ATOM      1  N   UNL     1       2.574   7.015  18.583  0.00  0.00    +0.000 N 
ATOM      2  C   UNL     1       2.242   8.310  18.309  0.00  0.00    +0.000 C 
ATOM      3  O   UNL     1       2.515   8.817  17.221  0.00  0.00    +0.000 OA
ATOM      4  N   UNL     1       1.556   8.985  19.304  0.00  0.00    +0.000 N 
ATOM      5  C   UNL     1       1.114   8.440  20.586  0.00  0.00    +0.000 C 
ATOM      6  H   UNL     1       2.646   6.751  19.552  0.00  0.00    +0.000 HD
ENDROOT
BRANCH   1   8
ATOM      7  C   UNL     1       4.785   6.323  17.867  0.00  0.00    +0.000 C 
ATOM      8  C   UNL     1       3.284   6.153  17.624  0.00  0.00    +0.000 C 
BRANCH   8   9
ATOM      9  C   UNL     1       2.823   4.689  17.751  0.00  0.00    +0.000 C 
BRANCH   9  10
ATOM     10  N   UNL     1       2.328   4.331  19.070  0.00  0.00    +0.000 N 
ATOM     11  C   UNL     1       1.128   3.762  19.379  0.00  0.00    +0.000 A 
ATOM     12  C   UNL     1       1.100   3.644  20.749  0.00  0.00    +0.000 A 
ATOM     13  C   UNL     1       2.322   4.190  21.178  0.00  0.00    +0.000 A 
ATOM     14  N   UNL     1       3.072   4.622  20.160  0.00  0.00    +0.000 NA
ENDBRANCH   9  10
ENDBRANCH   8   9
ENDBRANCH   1   8
BRANCH   4  15
ATOM     15  C   UNL     1       1.136  10.353  19.015  0.00  0.00    +0.000 C 
BRANCH  15  16
ATOM     16  C   UNL     1      -0.316  10.438  18.698  0.00  0.00    +0.000 A 
ATOM     17  C   UNL     1      -1.287  11.250  19.330  0.00  0.00    +0.000 A 
ATOM     18  N   UNL     1      -2.478  11.202  18.722  0.00  0.00    +0.000 NA
ATOM     19  N   UNL     1      -2.275  10.362  17.695  0.00  0.00    +0.000 N 
ATOM     20  C   UNL     1      -3.301  10.163  16.702  0.00  0.00    +0.000 C 
ATOM     21  C   UNL     1      -1.012   9.837  17.666  0.00  0.00    +0.000 A 
ENDBRANCH  15  16
ENDBRANCH   4  15
TORSDOF 5
ENDMDL
MODEL 9
REMARK VINA RESULT:      -5.8      2.359      6.290
REMARK  Name = 
REMARK  8 active torsions:
REMARK  status: ('A' for Active; 'I' for Inactive)
REMARK    1  A    between atoms: C_1  and  C_2
REMARK    2  A    between atoms: C_2  and  C_3
REMARK    3  A    between atoms: C_2  and  N_9
REMARK    4  A    between atoms: C_3  and  N_4
REMARK    5  A    between atoms: N_12  and  C_13
REMARK    6  A    between atoms: N_12  and  C_14
REMARK    7  A    between atoms: C_14  and  C_15
REMARK    8  A    between atoms: N_18  and  C_19
REMARK                            x       y       z     vdW  Elec       q    Type
REMARK                         _______ _______ _______ _____ _____    ______ ____
ROOT
ATOM      1  N   UNL     1       3.033   6.048  19.127  0.00  0.00    +0.000 N 
ATOM      2  C   UNL     1       4.339   5.724  18.891  0.00  0.00    +0.000 C 
ATOM      3  O   UNL     1       4.949   4.964  19.642  0.00  0.00    +0.000 OA
ATOM      4  N   UNL     1       4.902   6.269  17.749  0.00  0.00    +0.000 N 
ATOM      5  C   UNL     1       4.232   7.106  16.757  0.00  0.00    +0.000 C 
ATOM      6  H   UNL     1       2.687   6.898  18.716  0.00  0.00    +0.000 HD
ENDROOT
BRANCH   1   8
ATOM      7  C   UNL     1       1.525   6.711  20.906  0.00  0.00    +0.000 C 
ATOM      8  C   UNL     1       2.282   5.536  20.284  0.00  0.00    +0.000 C 
BRANCH   8   9
ATOM      9  C   UNL     1       1.351   4.380  19.870  0.00  0.00    +0.000 C 
BRANCH   9  10
ATOM     10  N   UNL     1       2.006   3.331  19.105  0.00  0.00    +0.000 N 
ATOM     11  C   UNL     1       2.813   2.341  19.579  0.00  0.00    +0.000 A 
ATOM     12  C   UNL     1       3.217   1.616  18.482  0.00  0.00    +0.000 A 
ATOM     13  C   UNL     1       2.615   2.262  17.388  0.00  0.00    +0.000 A 
ATOM     14  N   UNL     1       1.884   3.317  17.760  0.00  0.00    +0.000 NA
ENDBRANCH   9  10
ENDBRANCH   8   9
ENDBRANCH   1   8
BRANCH   4  15
ATOM     15  C   UNL     1       6.278   5.891  17.439  0.00  0.00    +0.000 C 
BRANCH  15  16
ATOM     16  C   UNL     1       6.364   5.032  16.228  0.00  0.00    +0.000 A 
ATOM     17  C   UNL     1       5.696   3.805  15.995  0.00  0.00    +0.000 A 
ATOM     18  N   UNL     1       5.874   3.347  14.750  0.00  0.00    +0.000 NA
ATOM     19  N   UNL     1       6.654   4.279  14.178  0.00  0.00    +0.000 N 
ATOM     20  C   UNL     1       6.949   4.215  12.769  0.00  0.00    +0.000 C 
ATOM     21  C   UNL     1       7.017   5.280  15.035  0.00  0.00    +0.000 A 
ENDBRANCH  15  16
ENDBRANCH   4  15
TORSDOF 5
ENDMDL
