MODEL 1
REMARK VINA RESULT:      -8.4      0.000      0.000
REMARK  Name = 
REMARK  6 active torsions:
REMARK  status: ('A' for Active; 'I' for Inactive)
REMARK    1  A    between atoms: C_1  and  C_2
REMARK    2  A    between atoms: C_2  and  N_3
REMARK    3  A    between atoms: C_6  and  C_7
REMARK    4  A    between atoms: C_18  and  C_20
REMARK    5  A    between atoms: C_20  and  N_21
REMARK    6  A    between atoms: N_21  and  C_22
REMARK                            x       y       z     vdW  Elec       q    Type
REMARK                         _______ _______ _______ _____ _____    ______ ____
ROOT
ATOM      1  C   UNL     1       0.283  12.884  18.374  0.00  0.00    +0.000 C 
ATOM      2  C   UNL     1       0.970  12.535  19.720  0.00  0.00    +0.000 C 
ATOM      3  C   UNL     1       0.012  12.907  20.883  0.00  0.00    +0.000 C 
ATOM      4  C   UNL     1       0.151  11.802  21.918  0.00  0.00    +0.000 C 
ATOM      5  N   UNL     1       0.378  10.567  21.182  0.00  0.00    +0.000 N 
ATOM      6  C   UNL     1      -0.006   9.336  21.759  0.00  0.00    +0.000 C 
ATOM      7  O   UNL     1      -0.608   9.336  22.844  0.00  0.00    +0.000 OA
ATOM      8  C   UNL     1       0.973  10.914  19.865  0.00  0.00    +0.000 C 
ENDROOT
BRANCH   2   9
ATOM      9  N   UNL     1       2.283  13.299  19.695  0.00  0.00    +0.000 NA
ATOM     10  C   UNL     1       2.857  13.536  18.340  0.00  0.00    +0.000 C 
ATOM     11  C   UNL     1       4.090  14.455  18.233  0.00  0.00    +0.000 C 
ATOM     12  C   UNL     1       3.892  15.765  19.011  0.00  0.00    +0.000 C 
ATOM     13  C   UNL     1       3.638  15.300  20.457  0.00  0.00    +0.000 C 
ATOM     14  C   UNL     1       2.353  14.458  20.583  0.00  0.00    +0.000 C 
BRANCH  12  15
ATOM     15  C   UNL     1       2.839  16.723  18.446  0.00  0.00    +0.000 A 
ATOM     16  C   UNL     1       1.949  17.400  19.298  0.00  0.00    +0.000 A 
ATOM     17  C   UNL     1       0.941  18.229  18.795  0.00  0.00    +0.000 A 
ATOM     18  C   UNL     1       0.826  18.432  17.426  0.00  0.00    +0.000 A 
ATOM     19  C   UNL     1       1.738  17.833  16.564  0.00  0.00    +0.000 A 
ATOM     20  C   UNL     1       2.741  16.998  17.070  0.00  0.00    +0.000 A 
ENDBRANCH  12  15
ENDBRANCH   2   9
BRANCH   6  21
ATOM     21  C   UNL     1       0.413   7.942  21.169  0.00  0.00    +0.000 C 
BRANCH  21  22
ATOM     22  N   UNL     1       1.847   7.780  20.641  0.00  0.00    +0.000 N 
ATOM     23  H   UNL     1       2.157   8.565  20.073  0.00  0.00    +0.000 HD
BRANCH  22  24
ATOM     24  C   UNL     1       2.094   6.514  20.031  0.00  0.00    +0.000 A 
ATOM     25  N   UNL     1       1.454   5.495  20.621  0.00  0.00    +0.000 NA
ATOM     26  C   UNL     1       2.130   4.359  20.738  0.00  0.00    +0.000 A 
ATOM     27  N   UNL     1       3.408   4.165  20.399  0.00  0.00    +0.000 NA
ATOM     28  C   UNL     1       3.911   5.081  19.557  0.00  0.00    +0.000 A 
ATOM     29  C   UNL     1       5.154   4.744  19.026  0.00  0.00    +0.000 A 
ATOM     30  C   UNL     1       5.605   5.310  17.846  0.00  0.00    +0.000 A 
ATOM     31 CL   UNL     1       7.090   4.716  17.196  0.00  0.00    +0.000 Cl
ATOM     32  C   UNL     1       4.790   6.251  17.214  0.00  0.00    +0.000 A 
ATOM     33 CL   UNL     1       5.065   6.663  15.555  0.00  0.00    +0.000 Cl
ATOM     34  C   UNL     1       3.658   6.773  17.896  0.00  0.00    +0.000 A 
ATOM     35  C   UNL     1       3.220   6.234  19.163  0.00  0.00    +0.000 A 
ENDBRANCH  22  24
ENDBRANCH  21  22
ENDBRANCH   6  21
TORSDOF 5
ENDMDL
MODEL 2
REMARK VINA RESULT:      -8.3      1.057      1.421
REMARK  Name = 
REMARK  6 active torsions:
REMARK  status: ('A' for Active; 'I' for Inactive)
REMARK    1  A    between atoms: C_1  and  C_2
REMARK    2  A    between atoms: C_2  and  N_3
REMARK    3  A    between atoms: C_6  and  C_7
REMARK    4  A    between atoms: C_18  and  C_20
REMARK    5  A    between atoms: C_20  and  N_21
REMARK    6  A    between atoms: N_21  and  C_22
REMARK                            x       y       z     vdW  Elec       q    Type
REMARK                         _______ _______ _______ _____ _____    ______ ____
ROOT
ATOM      1  C   UNL     1      -0.029  13.248  18.663  0.00  0.00    +0.000 C 
ATOM      2  C   UNL     1       0.259  12.732  20.098  0.00  0.00    +0.000 C 
ATOM      3  C   UNL     1      -1.073  12.259  20.738  0.00  0.00    +0.000 C 
ATOM      4  C   UNL     1      -0.742  11.002  21.527  0.00  0.00    +0.000 C 
ATOM      5  N   UNL     1       0.298  10.306  20.785  0.00  0.00    +0.000 N 
ATOM      6  C   UNL     1       0.421   8.904  20.913  0.00  0.00    +0.000 C 
ATOM      7  O   UNL     1      -0.414   8.281  21.588  0.00  0.00    +0.000 OA
ATOM      8  C   UNL     1       1.029  11.304  19.962  0.00  0.00    +0.000 C 
ENDROOT
BRANCH   2   9
ATOM      9  N   UNL     1       0.936  13.897  20.799  0.00  0.00    +0.000 NA
ATOM     10  C   UNL     1       2.365  14.116  20.437  0.00  0.00    +0.000 C 
ATOM     11  C   UNL     1       3.056  15.385  20.977  0.00  0.00    +0.000 C 
ATOM     12  C   UNL     1       2.204  16.641  20.742  0.00  0.00    +0.000 C 
ATOM     13  C   UNL     1       0.888  16.337  21.482  0.00  0.00    +0.000 C 
ATOM     14  C   UNL     1       0.147  15.125  20.884  0.00  0.00    +0.000 C 
BRANCH  12  15
ATOM     15  C   UNL     1       2.038  17.070  19.280  0.00  0.00    +0.000 A 
ATOM     16  C   UNL     1       0.897  17.774  18.861  0.00  0.00    +0.000 A 
ATOM     17  C   UNL     1       0.701  18.119  17.519  0.00  0.00    +0.000 A 
ATOM     18  C   UNL     1       1.665  17.801  16.571  0.00  0.00    +0.000 A 
ATOM     19  C   UNL     1       2.838  17.168  16.970  0.00  0.00    +0.000 A 
ATOM     20  C   UNL     1       3.027  16.818  18.312  0.00  0.00    +0.000 A 
ENDBRANCH  12  15
ENDBRANCH   2   9
BRANCH   6  21
ATOM     21  C   UNL     1       1.648   8.094  20.362  0.00  0.00    +0.000 C 
BRANCH  21  22
ATOM     22  N   UNL     1       1.951   6.721  20.984  0.00  0.00    +0.000 N 
ATOM     23  H   UNL     1       2.702   6.748  21.669  0.00  0.00    +0.000 HD
BRANCH  22  24
ATOM     24  C   UNL     1       2.103   5.677  20.023  0.00  0.00    +0.000 A 
ATOM     25  N   UNL     1       1.378   4.584  20.293  0.00  0.00    +0.000 NA
ATOM     26  C   UNL     1       1.961   3.414  20.060  0.00  0.00    +0.000 A 
ATOM     27  N   UNL     1       3.224   3.229  19.663  0.00  0.00    +0.000 NA
ATOM     28  C   UNL     1       3.808   4.311  19.124  0.00  0.00    +0.000 A 
ATOM     29  C   UNL     1       5.027   4.049  18.503  0.00  0.00    +0.000 A 
ATOM     30  C   UNL     1       5.534   4.902  17.538  0.00  0.00    +0.000 A 
ATOM     31 CL   UNL     1       6.976   4.411  16.723  0.00  0.00    +0.000 Cl
ATOM     32  C   UNL     1       4.804   6.049  17.223  0.00  0.00    +0.000 A 
ATOM     33 CL   UNL     1       5.131   6.911  15.757  0.00  0.00    +0.000 Cl
ATOM     34  C   UNL     1       3.709   6.433  18.042  0.00  0.00    +0.000 A 
ATOM     35  C   UNL     1       3.214   5.580  19.098  0.00  0.00    +0.000 A 
ENDBRANCH  22  24
ENDBRANCH  21  22
ENDBRANCH   6  21
TORSDOF 5
ENDMDL
MODEL 3
REMARK VINA RESULT:      -8.3      2.830      4.591
REMARK  Name = 
REMARK  6 active torsions:
REMARK  status: ('A' for Active; 'I' for Inactive)
REMARK    1  A    between atoms: C_1  and  C_2
REMARK    2  A    between atoms: C_2  and  N_3
REMARK    3  A    between atoms: C_6  and  C_7
REMARK    4  A    between atoms: C_18  and  C_20
REMARK    5  A    between atoms: C_20  and  N_21
REMARK    6  A    between atoms: N_21  and  C_22
REMARK                            x       y       z     vdW  Elec       q    Type
REMARK                         _______ _______ _______ _____ _____    ______ ____
ROOT
ATOM      1  C   UNL     1      -1.011  10.351  18.421  0.00  0.00    +0.000 C 
ATOM      2  C   UNL     1       0.325  10.264  19.206  0.00  0.00    +0.000 C 
ATOM      3  C   UNL     1       0.074   9.513  20.540  0.00  0.00    +0.000 C 
ATOM      4  C   UNL     1       1.289   8.627  20.764  0.00  0.00    +0.000 C 
ATOM      5  N   UNL     1       1.731   8.185  19.449  0.00  0.00    +0.000 N 
ATOM      6  C   UNL     1       2.429   6.962  19.327  0.00  0.00    +0.000 C 
ATOM      7  O   UNL     1       2.578   6.246  20.330  0.00  0.00    +0.000 OA
ATOM      8  C   UNL     1       1.273   9.182  18.447  0.00  0.00    +0.000 C 
ENDROOT
BRANCH   2   9
ATOM      9  N   UNL     1       0.782  11.706  19.352  0.00  0.00    +0.000 NA
ATOM     10  C   UNL     1      -0.137  12.728  18.777  0.00  0.00    +0.000 C 
ATOM     11  C   UNL     1       0.181  14.212  19.047  0.00  0.00    +0.000 C 
ATOM     12  C   UNL     1       0.470  14.471  20.534  0.00  0.00    +0.000 C 
ATOM     13  C   UNL     1       1.670  13.555  20.840  0.00  0.00    +0.000 C 
ATOM     14  C   UNL     1       1.328  12.063  20.661  0.00  0.00    +0.000 C 
BRANCH  12  15
ATOM     15  C   UNL     1      -0.723  14.311  21.482  0.00  0.00    +0.000 A 
ATOM     16  C   UNL     1      -2.017  14.087  20.980  0.00  0.00    +0.000 A 
ATOM     17  C   UNL     1      -3.126  14.000  21.829  0.00  0.00    +0.000 A 
ATOM     18  C   UNL     1      -2.959  14.097  23.204  0.00  0.00    +0.000 A 
ATOM     19  C   UNL     1      -1.681  14.246  23.732  0.00  0.00    +0.000 A 
ATOM     20  C   UNL     1      -0.574  14.339  22.880  0.00  0.00    +0.000 A 
ENDBRANCH  12  15
ENDBRANCH   2   9
BRANCH   6  21
ATOM     21  C   UNL     1       3.159   6.517  18.011  0.00  0.00    +0.000 C 
BRANCH  21  22
ATOM     22  N   UNL     1       3.213   5.016  17.683  0.00  0.00    +0.000 N 
ATOM     23  H   UNL     1       2.646   4.448  18.308  0.00  0.00    +0.000 HD
BRANCH  22  24
ATOM     24  C   UNL     1       4.538   4.513  17.515  0.00  0.00    +0.000 A 
ATOM     25  N   UNL     1       5.203   4.345  18.666  0.00  0.00    +0.000 NA
ATOM     26  C   UNL     1       6.487   4.679  18.663  0.00  0.00    +0.000 A 
ATOM     27  N   UNL     1       7.152   5.242  17.650  0.00  0.00    +0.000 NA
ATOM     28  C   UNL     1       6.559   5.120  16.452  0.00  0.00    +0.000 A 
ATOM     29  C   UNL     1       7.363   5.495  15.378  0.00  0.00    +0.000 A 
ATOM     30  C   UNL     1       7.110   5.030  14.099  0.00  0.00    +0.000 A 
ATOM     31 CL   UNL     1       8.251   5.434  12.867  0.00  0.00    +0.000 Cl
ATOM     32  C   UNL     1       6.009   4.194  13.908  0.00  0.00    +0.000 A 
ATOM     33 CL   UNL     1       5.886   3.236  12.471  0.00  0.00    +0.000 Cl
ATOM     34  C   UNL     1       5.057   4.034  14.951  0.00  0.00    +0.000 A 
ATOM     35  C   UNL     1       5.280   4.575  16.272  0.00  0.00    +0.000 A 
ENDBRANCH  22  24
ENDBRANCH  21  22
ENDBRANCH   6  21
TORSDOF 5
ENDMDL
MODEL 4
REMARK VINA RESULT:      -8.2      3.368      5.565
REMARK  Name = 
REMARK  6 active torsions:
REMARK  status: ('A' for Active; 'I' for Inactive)
REMARK    1  A    between atoms: C_1  and  C_2
REMARK    2  A    between atoms: C_2  and  N_3
REMARK    3  A    between atoms: C_6  and  C_7
REMARK    4  A    between atoms: C_18  and  C_20
REMARK    5  A    between atoms: C_20  and  N_21
REMARK    6  A    between atoms: N_21  and  C_22
REMARK                            x       y       z     vdW  Elec       q    Type
REMARK                         _______ _______ _______ _____ _____    ______ ____
ROOT
ATOM      1  C   UNL     1      -0.005  14.018  22.328  0.00  0.00    +0.000 C 
ATOM      2  C   UNL     1      -0.988  13.103  21.550  0.00  0.00    +0.000 C 
ATOM      3  C   UNL     1      -0.749  13.288  20.029  0.00  0.00    +0.000 C 
ATOM      4  C   UNL     1      -0.878  11.906  19.407  0.00  0.00    +0.000 C 
ATOM      5  N   UNL     1      -0.355  10.960  20.381  0.00  0.00    +0.000 N 
ATOM      6  C   UNL     1       0.184   9.732  19.934  0.00  0.00    +0.000 C 
ATOM      7  O   UNL     1       0.279   9.519  18.715  0.00  0.00    +0.000 OA
ATOM      8  C   UNL     1      -0.477  11.568  21.731  0.00  0.00    +0.000 C 
ENDROOT
BRANCH   2   9
ATOM      9  N   UNL     1      -2.366  13.509  22.043  0.00  0.00    +0.000 NA
ATOM     10  C   UNL     1      -3.126  14.415  21.136  0.00  0.00    +0.000 C 
ATOM     11  C   UNL     1      -4.595  14.720  21.492  0.00  0.00    +0.000 C 
ATOM     12  C   UNL     1      -5.380  13.440  21.815  0.00  0.00    +0.000 C 
ATOM     13  C   UNL     1      -4.611  12.826  23.000  0.00  0.00    +0.000 C 
ATOM     14  C   UNL     1      -3.169  12.433  22.621  0.00  0.00    +0.000 C 
BRANCH  12  15
ATOM     15  C   UNL     1      -5.618  12.490  20.638  0.00  0.00    +0.000 A 
ATOM     16  C   UNL     1      -4.713  12.433  19.563  0.00  0.00    +0.000 A 
ATOM     17  C   UNL     1      -4.948  11.617  18.451  0.00  0.00    +0.000 A 
ATOM     18  C   UNL     1      -6.074  10.806  18.408  0.00  0.00    +0.000 A 
ATOM     19  C   UNL     1      -6.948  10.787  19.489  0.00  0.00    +0.000 A 
ATOM     20  C   UNL     1      -6.716  11.611  20.597  0.00  0.00    +0.000 A 
ENDBRANCH  12  15
ENDBRANCH   2   9
BRANCH   6  21
ATOM     21  C   UNL     1       0.543   8.548  20.900  0.00  0.00    +0.000 C 
BRANCH  21  22
ATOM     22  N   UNL     1       1.965   7.968  20.840  0.00  0.00    +0.000 N 
ATOM     23  H   UNL     1       2.659   8.641  20.524  0.00  0.00    +0.000 HD
BRANCH  22  24
ATOM     24  C   UNL     1       2.045   6.716  20.161  0.00  0.00    +0.000 A 
ATOM     25  N   UNL     1       1.287   5.755  20.706  0.00  0.00    +0.000 NA
ATOM     26  C   UNL     1       1.816   4.539  20.753  0.00  0.00    +0.000 A 
ATOM     27  N   UNL     1       3.056   4.205  20.386  0.00  0.00    +0.000 NA
ATOM     28  C   UNL     1       3.664   5.095  19.586  0.00  0.00    +0.000 A 
ATOM     29  C   UNL     1       4.850   4.634  19.020  0.00  0.00    +0.000 A 
ATOM     30  C   UNL     1       5.359   5.202  17.864  0.00  0.00    +0.000 A 
ATOM     31 CL   UNL     1       6.753   4.462  17.163  0.00  0.00    +0.000 Cl
ATOM     32  C   UNL     1       4.664   6.270  17.295  0.00  0.00    +0.000 A 
ATOM     33 CL   UNL     1       4.976   6.733  15.655  0.00  0.00    +0.000 Cl
ATOM     34  C   UNL     1       3.613   6.892  18.020  0.00  0.00    +0.000 A 
ATOM     35  C   UNL     1       3.120   6.345  19.263  0.00  0.00    +0.000 A 
ENDBRANCH  22  24
ENDBRANCH  21  22
ENDBRANCH   6  21
TORSDOF 5
ENDMDL
MODEL 5
REMARK VINA RESULT:      -8.2      6.123      7.528
REMARK  Name = 
REMARK  6 active torsions:
REMARK  status: ('A' for Active; 'I' for Inactive)
REMARK    1  A    between atoms: C_1  and  C_2
REMARK    2  A    between atoms: C_2  and  N_3
REMARK    3  A    between atoms: C_6  and  C_7
REMARK    4  A    between atoms: C_18  and  C_20
REMARK    5  A    between atoms: C_20  and  N_21
REMARK    6  A    between atoms: N_21  and  C_22
REMARK                            x       y       z     vdW  Elec       q    Type
REMARK                         _______ _______ _______ _____ _____    ______ ____
ROOT
ATOM      1  C   UNL     1      11.398  11.219  19.271  0.00  0.00    +0.000 C 
ATOM      2  C   UNL     1       9.853  11.230  19.130  0.00  0.00    +0.000 C 
ATOM      3  C   UNL     1       9.487  11.358  17.627  0.00  0.00    +0.000 C 
ATOM      4  C   UNL     1       8.288  10.451  17.403  0.00  0.00    +0.000 C 
ATOM      5  N   UNL     1       8.461   9.305  18.283  0.00  0.00    +0.000 N 
ATOM      6  C   UNL     1       7.874   8.067  17.934  0.00  0.00    +0.000 C 
ATOM      7  O   UNL     1       7.295   7.958  16.842  0.00  0.00    +0.000 OA
ATOM      8  C   UNL     1       9.321   9.720  19.421  0.00  0.00    +0.000 C 
ENDROOT
BRANCH   2   9
ATOM      9  N   UNL     1       9.392  12.381  20.007  0.00  0.00    +0.000 NA
ATOM     10  C   UNL     1      10.460  13.036  20.813  0.00  0.00    +0.000 C 
ATOM     11  C   UNL     1      10.092  14.319  21.586  0.00  0.00    +0.000 C 
ATOM     12  C   UNL     1       9.344  15.324  20.697  0.00  0.00    +0.000 C 
ATOM     13  C   UNL     1       8.098  14.548  20.233  0.00  0.00    +0.000 C 
ATOM     14  C   UNL     1       8.459  13.316  19.380  0.00  0.00    +0.000 C 
BRANCH  12  15
ATOM     15  C   UNL     1      10.167  15.958  19.571  0.00  0.00    +0.000 A 
ATOM     16  C   UNL     1      11.560  15.781  19.508  0.00  0.00    +0.000 A 
ATOM     17  C   UNL     1      12.333  16.403  18.523  0.00  0.00    +0.000 A 
ATOM     18  C   UNL     1      11.724  17.187  17.552  0.00  0.00    +0.000 A 
ATOM     19  C   UNL     1      10.340  17.321  17.547  0.00  0.00    +0.000 A 
ATOM     20  C   UNL     1       9.569  16.703  18.538  0.00  0.00    +0.000 A 
ENDBRANCH  12  15
ENDBRANCH   2   9
BRANCH   6  21
ATOM     21  C   UNL     1       7.789   6.848  18.919  0.00  0.00    +0.000 C 
BRANCH  21  22
ATOM     22  N   UNL     1       8.340   5.493  18.446  0.00  0.00    +0.000 N 
ATOM     23  H   UNL     1       9.259   5.562  18.015  0.00  0.00    +0.000 HD
BRANCH  22  24
ATOM     24  C   UNL     1       7.412   4.735  17.671  0.00  0.00    +0.000 A 
ATOM     25  N   UNL     1       7.784   4.566  16.395  0.00  0.00    +0.000 NA
ATOM     26  C   UNL     1       6.824   4.651  15.482  0.00  0.00    +0.000 A 
ATOM     27  N   UNL     1       5.546   4.970  15.710  0.00  0.00    +0.000 NA
ATOM     28  C   UNL     1       5.153   4.836  16.987  0.00  0.00    +0.000 A 
ATOM     29  C   UNL     1       3.776   4.939  17.171  0.00  0.00    +0.000 A 
ATOM     30  C   UNL     1       3.162   4.398  18.288  0.00  0.00    +0.000 A 
ATOM     31 CL   UNL     1       1.437   4.449  18.349  0.00  0.00    +0.000 Cl
ATOM     32  C   UNL     1       3.965   3.769  19.240  0.00  0.00    +0.000 A 
ATOM     33 CL   UNL     1       3.255   2.705  20.408  0.00  0.00    +0.000 Cl
ATOM     34  C   UNL     1       5.378   3.901  19.168  0.00  0.00    +0.000 A 
ATOM     35  C   UNL     1       6.025   4.526  18.038  0.00  0.00    +0.000 A 
ENDBRANCH  22  24
ENDBRANCH  21  22
ENDBRANCH   6  21
TORSDOF 5
ENDMDL
MODEL 6
REMARK VINA RESULT:      -8.0      1.194      2.543
REMARK  Name = 
REMARK  6 active torsions:
REMARK  status: ('A' for Active; 'I' for Inactive)
REMARK    1  A    between atoms: C_1  and  C_2
REMARK    2  A    between atoms: C_2  and  N_3
REMARK    3  A    between atoms: C_6  and  C_7
REMARK    4  A    between atoms: C_18  and  C_20
REMARK    5  A    between atoms: C_20  and  N_21
REMARK    6  A    between atoms: N_21  and  C_22
REMARK                            x       y       z     vdW  Elec       q    Type
REMARK                         _______ _______ _______ _____ _____    ______ ____
ROOT
ATOM      1  C   UNL     1      -0.872  13.018  18.127  0.00  0.00    +0.000 C 
ATOM      2  C   UNL     1       0.387  12.857  19.020  0.00  0.00    +0.000 C 
ATOM      3  C   UNL     1      -0.023  13.046  20.504  0.00  0.00    +0.000 C 
ATOM      4  C   UNL     1       0.773  12.023  21.299  0.00  0.00    +0.000 C 
ATOM      5  N   UNL     1       0.902  10.846  20.452  0.00  0.00    +0.000 N 
ATOM      6  C   UNL     1       1.065   9.576  21.050  0.00  0.00    +0.000 C 
ATOM      7  O   UNL     1       1.009   9.476  22.286  0.00  0.00    +0.000 OA
ATOM      8  C   UNL     1       0.781  11.278  19.035  0.00  0.00    +0.000 C 
ENDROOT
BRANCH   2   9
ATOM      9  N   UNL     1       1.373  13.882  18.486  0.00  0.00    +0.000 NA
ATOM     10  C   UNL     1       1.171  15.276  18.973  0.00  0.00    +0.000 C 
ATOM     11  C   UNL     1       2.241  16.326  18.610  0.00  0.00    +0.000 C 
ATOM     12  C   UNL     1       3.660  15.815  18.900  0.00  0.00    +0.000 C 
ATOM     13  C   UNL     1       3.778  14.544  18.039  0.00  0.00    +0.000 C 
ATOM     14  C   UNL     1       2.771  13.456  18.461  0.00  0.00    +0.000 C 
BRANCH  12  15
ATOM     15  C   UNL     1       4.011  15.627  20.380  0.00  0.00    +0.000 A 
ATOM     16  C   UNL     1       3.155  16.102  21.389  0.00  0.00    +0.000 A 
ATOM     17  C   UNL     1       3.490  15.994  22.743  0.00  0.00    +0.000 A 
ATOM     18  C   UNL     1       4.671  15.370  23.120  0.00  0.00    +0.000 A 
ATOM     19  C   UNL     1       5.502  14.826  22.146  0.00  0.00    +0.000 A 
ATOM     20  C   UNL     1       5.168  14.942  20.792  0.00  0.00    +0.000 A 
ENDBRANCH  12  15
ENDBRANCH   2   9
BRANCH   6  21
ATOM     21  C   UNL     1       1.458   8.289  20.241  0.00  0.00    +0.000 C 
BRANCH  21  22
ATOM     22  N   UNL     1       1.920   7.051  21.028  0.00  0.00    +0.000 N 
ATOM     23  H   UNL     1       2.703   7.240  21.649  0.00  0.00    +0.000 HD
BRANCH  22  24
ATOM     24  C   UNL     1       2.114   5.895  20.214  0.00  0.00    +0.000 A 
ATOM     25  N   UNL     1       1.442   4.817  20.637  0.00  0.00    +0.000 NA
ATOM     26  C   UNL     1       2.076   3.654  20.556  0.00  0.00    +0.000 A 
ATOM     27  N   UNL     1       3.343   3.473  20.172  0.00  0.00    +0.000 NA
ATOM     28  C   UNL     1       3.873   4.497  19.485  0.00  0.00    +0.000 A 
ATOM     29  C   UNL     1       5.099   4.208  18.889  0.00  0.00    +0.000 A 
ATOM     30  C   UNL     1       5.561   4.945  17.812  0.00  0.00    +0.000 A 
ATOM     31 CL   UNL     1       7.018   4.414  17.053  0.00  0.00    +0.000 Cl
ATOM     32  C   UNL     1       4.777   6.006  17.355  0.00  0.00    +0.000 A 
ATOM     33 CL   UNL     1       5.054   6.675  15.783  0.00  0.00    +0.000 Cl
ATOM     34  C   UNL     1       3.670   6.448  18.129  0.00  0.00    +0.000 A 
ATOM     35  C   UNL     1       3.222   5.723  19.296  0.00  0.00    +0.000 A 
ENDBRANCH  22  24
ENDBRANCH  21  22
ENDBRANCH   6  21
TORSDOF 5
ENDMDL
MODEL 7
REMARK VINA RESULT:      -7.9      1.657      2.224
REMARK  Name = 
REMARK  6 active torsions:
REMARK  status: ('A' for Active; 'I' for Inactive)
REMARK    1  A    between atoms: C_1  and  C_2
REMARK    2  A    between atoms: C_2  and  N_3
REMARK    3  A    between atoms: C_6  and  C_7
REMARK    4  A    between atoms: C_18  and  C_20
REMARK    5  A    between atoms: C_20  and  N_21
REMARK    6  A    between atoms: N_21  and  C_22
REMARK                            x       y       z     vdW  Elec       q    Type
REMARK                         _______ _______ _______ _____ _____    ______ ____
ROOT
ATOM      1  C   UNL     1      -1.977  13.440  20.581  0.00  0.00    +0.000 C 
ATOM      2  C   UNL     1      -1.025  12.810  21.631  0.00  0.00    +0.000 C 
ATOM      3  C   UNL     1      -1.874  12.069  22.698  0.00  0.00    +0.000 C 
ATOM      4  C   UNL     1      -1.117  10.793  23.032  0.00  0.00    +0.000 C 
ATOM      5  N   UNL     1      -0.476  10.354  21.802  0.00  0.00    +0.000 N 
ATOM      6  C   UNL     1      -0.193   8.982  21.620  0.00  0.00    +0.000 C 
ATOM      7  O   UNL     1      -0.573   8.165  22.473  0.00  0.00    +0.000 OA
ATOM      8  C   UNL     1      -0.287  11.541  20.928  0.00  0.00    +0.000 C 
ENDROOT
BRANCH   2   9
ATOM      9  N   UNL     1      -0.201  13.974  22.154  0.00  0.00    +0.000 NA
ATOM     10  C   UNL     1       1.107  14.188  21.472  0.00  0.00    +0.000 C 
ATOM     11  C   UNL     1       1.907  15.455  21.835  0.00  0.00    +0.000 C 
ATOM     12  C   UNL     1       1.026  16.714  21.798  0.00  0.00    +0.000 C 
ATOM     13  C   UNL     1      -0.084  16.416  22.822  0.00  0.00    +0.000 C 
ATOM     14  C   UNL     1      -0.946  15.205  22.415  0.00  0.00    +0.000 C 
BRANCH  12  15
ATOM     15  C   UNL     1       0.530  17.140  20.413  0.00  0.00    +0.000 A 
ATOM     16  C   UNL     1      -0.771  17.643  20.237  0.00  0.00    +0.000 A 
ATOM     17  C   UNL     1      -1.260  17.978  18.969  0.00  0.00    +0.000 A 
ATOM     18  C   UNL     1      -0.444  17.855  17.853  0.00  0.00    +0.000 A 
ATOM     19  C   UNL     1       0.871  17.429  18.008  0.00  0.00    +0.000 A 
ATOM     20  C   UNL     1       1.356  17.088  19.275  0.00  0.00    +0.000 A 
ENDBRANCH  12  15
ENDBRANCH   2   9
BRANCH   6  21
ATOM     21  C   UNL     1       0.710   8.437  20.456  0.00  0.00    +0.000 C 
BRANCH  21  22
ATOM     22  N   UNL     1       1.995   7.680  20.828  0.00  0.00    +0.000 N 
ATOM     23  H   UNL     1       2.828   8.263  20.796  0.00  0.00    +0.000 HD
BRANCH  22  24
ATOM     24  C   UNL     1       2.150   6.440  20.138  0.00  0.00    +0.000 A 
ATOM     25  N   UNL     1       1.462   5.428  20.683  0.00  0.00    +0.000 NA
ATOM     26  C   UNL     1       2.069   4.249  20.715  0.00  0.00    +0.000 A 
ATOM     27  N   UNL     1       3.325   3.999  20.333  0.00  0.00    +0.000 NA
ATOM     28  C   UNL     1       3.865   4.933  19.534  0.00  0.00    +0.000 A 
ATOM     29  C   UNL     1       5.073   4.555  18.953  0.00  0.00    +0.000 A 
ATOM     30  C   UNL     1       5.532   5.163  17.797  0.00  0.00    +0.000 A 
ATOM     31 CL   UNL     1       6.964   4.521  17.076  0.00  0.00    +0.000 Cl
ATOM     32  C   UNL     1       4.763   6.188  17.243  0.00  0.00    +0.000 A 
ATOM     33 CL   UNL     1       5.026   6.682  15.605  0.00  0.00    +0.000 Cl
ATOM     34  C   UNL     1       3.680   6.734  17.983  0.00  0.00    +0.000 A 
ATOM     35  C   UNL     1       3.237   6.147  19.227  0.00  0.00    +0.000 A 
ENDBRANCH  22  24
ENDBRANCH  21  22
ENDBRANCH   6  21
TORSDOF 5
ENDMDL
MODEL 8
REMARK VINA RESULT:      -7.7      3.764      5.804
REMARK  Name = 
REMARK  6 active torsions:
REMARK  status: ('A' for Active; 'I' for Inactive)
REMARK    1  A    between atoms: C_1  and  C_2
REMARK    2  A    between atoms: C_2  and  N_3
REMARK    3  A    between atoms: C_6  and  C_7
REMARK    4  A    between atoms: C_18  and  C_20
REMARK    5  A    between atoms: C_20  and  N_21
REMARK    6  A    between atoms: N_21  and  C_22
REMARK                            x       y       z     vdW  Elec       q    Type
REMARK                         _______ _______ _______ _____ _____    ______ ____
ROOT
ATOM      1  C   UNL     1      -0.351  14.334  22.688  0.00  0.00    +0.000 C 
ATOM      2  C   UNL     1      -1.384  13.261  22.255  0.00  0.00    +0.000 C 
ATOM      3  C   UNL     1      -1.663  13.416  20.737  0.00  0.00    +0.000 C 
ATOM      4  C   UNL     1      -1.780  12.006  20.179  0.00  0.00    +0.000 C 
ATOM      5  N   UNL     1      -0.847  11.181  20.933  0.00  0.00    +0.000 N 
ATOM      6  C   UNL     1      -0.304  10.023  20.332  0.00  0.00    +0.000 C 
ATOM      7  O   UNL     1      -0.565   9.777  19.144  0.00  0.00    +0.000 OA
ATOM      8  C   UNL     1      -0.627  11.820  22.256  0.00  0.00    +0.000 C 
ENDROOT
BRANCH   2   9
ATOM      9  N   UNL     1      -2.583  13.491  23.159  0.00  0.00    +0.000 NA
ATOM     10  C   UNL     1      -3.300  14.781  22.953  0.00  0.00    +0.000 C 
ATOM     11  C   UNL     1      -4.624  14.996  23.712  0.00  0.00    +0.000 C 
ATOM     12  C   UNL     1      -5.563  13.788  23.573  0.00  0.00    +0.000 C 
ATOM     13  C   UNL     1      -4.746  12.618  24.151  0.00  0.00    +0.000 C 
ATOM     14  C   UNL     1      -3.467  12.339  23.337  0.00  0.00    +0.000 C 
BRANCH  12  15
ATOM     15  C   UNL     1      -6.134  13.547  22.172  0.00  0.00    +0.000 A 
ATOM     16  C   UNL     1      -6.165  14.580  21.218  0.00  0.00    +0.000 A 
ATOM     17  C   UNL     1      -6.739  14.394  19.956  0.00  0.00    +0.000 A 
ATOM     18  C   UNL     1      -7.260  13.156  19.604  0.00  0.00    +0.000 A 
ATOM     19  C   UNL     1      -7.178  12.096  20.501  0.00  0.00    +0.000 A 
ATOM     20  C   UNL     1      -6.609  12.287  21.766  0.00  0.00    +0.000 A 
ENDBRANCH  12  15
ENDBRANCH   2   9
BRANCH   6  21
ATOM     21  C   UNL     1       0.506   8.940  21.129  0.00  0.00    +0.000 C 
BRANCH  21  22
ATOM     22  N   UNL     1       1.895   8.542  20.605  0.00  0.00    +0.000 N 
ATOM     23  H   UNL     1       2.315   9.248  20.005  0.00  0.00    +0.000 HD
BRANCH  22  24
ATOM     24  C   UNL     1       1.942   7.229  20.046  0.00  0.00    +0.000 A 
ATOM     25  N   UNL     1       1.147   6.348  20.667  0.00  0.00    +0.000 NA
ATOM     26  C   UNL     1       1.634   5.125  20.835  0.00  0.00    +0.000 A 
ATOM     27  N   UNL     1       2.868   4.719  20.518  0.00  0.00    +0.000 NA
ATOM     28  C   UNL     1       3.514   5.512  19.648  0.00  0.00    +0.000 A 
ATOM     29  C   UNL     1       4.691   4.962  19.146  0.00  0.00    +0.000 A 
ATOM     30  C   UNL     1       5.232   5.404  17.950  0.00  0.00    +0.000 A 
ATOM     31 CL   UNL     1       6.609   4.558  17.341  0.00  0.00    +0.000 Cl
ATOM     32  C   UNL     1       4.580   6.436  17.274  0.00  0.00    +0.000 A 
ATOM     33 CL   UNL     1       4.926   6.733  15.603  0.00  0.00    +0.000 Cl
ATOM     34  C   UNL     1       3.540   7.156  17.922  0.00  0.00    +0.000 A 
ATOM     35  C   UNL     1       3.015   6.743  19.203  0.00  0.00    +0.000 A 
ENDBRANCH  22  24
ENDBRANCH  21  22
ENDBRANCH   6  21
TORSDOF 5
ENDMDL
MODEL 9
REMARK VINA RESULT:      -7.7      1.371      2.326
REMARK  Name = 
REMARK  6 active torsions:
REMARK  status: ('A' for Active; 'I' for Inactive)
REMARK    1  A    between atoms: C_1  and  C_2
REMARK    2  A    between atoms: C_2  and  N_3
REMARK    3  A    between atoms: C_6  and  C_7
REMARK    4  A    between atoms: C_18  and  C_20
REMARK    5  A    between atoms: C_20  and  N_21
REMARK    6  A    between atoms: N_21  and  C_22
REMARK                            x       y       z     vdW  Elec       q    Type
REMARK                         _______ _______ _______ _____ _____    ______ ____
ROOT
ATOM      1  C   UNL     1      -0.404  12.994  18.255  0.00  0.00    +0.000 C 
ATOM      2  C   UNL     1      -0.271  12.730  19.779  0.00  0.00    +0.000 C 
ATOM      3  C   UNL     1      -1.621  12.184  20.313  0.00  0.00    +0.000 C 
ATOM      4  C   UNL     1      -1.273  11.106  21.327  0.00  0.00    +0.000 C 
ATOM      5  N   UNL     1      -0.065  10.453  20.843  0.00  0.00    +0.000 N 
ATOM      6  C   UNL     1       0.191   9.112  21.207  0.00  0.00    +0.000 C 
ATOM      7  O   UNL     1      -0.659   8.488  21.861  0.00  0.00    +0.000 OA
ATOM      8  C   UNL     1       0.662  11.411  19.970  0.00  0.00    +0.000 C 
ENDROOT
BRANCH   2   9
ATOM      9  N   UNL     1       0.165  14.062  20.365  0.00  0.00    +0.000 NA
ATOM     10  C   UNL     1       1.290  13.991  21.341  0.00  0.00    +0.000 C 
ATOM     11  C   UNL     1       1.895  15.320  21.836  0.00  0.00    +0.000 C 
ATOM     12  C   UNL     1       2.202  16.274  20.672  0.00  0.00    +0.000 C 
ATOM     13  C   UNL     1       0.836  16.477  19.991  0.00  0.00    +0.000 C 
ATOM     14  C   UNL     1       0.271  15.165  19.412  0.00  0.00    +0.000 C 
BRANCH  12  15
ATOM     15  C   UNL     1       3.333  15.838  19.734  0.00  0.00    +0.000 A 
ATOM     16  C   UNL     1       3.096  15.644  18.362  0.00  0.00    +0.000 A 
ATOM     17  C   UNL     1       4.102  15.187  17.504  0.00  0.00    +0.000 A 
ATOM     18  C   UNL     1       5.380  14.952  17.992  0.00  0.00    +0.000 A 
ATOM     19  C   UNL     1       5.661  15.205  19.331  0.00  0.00    +0.000 A 
ATOM     20  C   UNL     1       4.651  15.655  20.189  0.00  0.00    +0.000 A 
ENDBRANCH  12  15
ENDBRANCH   2   9
BRANCH   6  21
ATOM     21  C   UNL     1       1.566   8.399  20.950  0.00  0.00    +0.000 C 
BRANCH  21  22
ATOM     22  N   UNL     1       1.950   8.064  19.500  0.00  0.00    +0.000 N 
ATOM     23  H   UNL     1       1.282   8.413  18.817  0.00  0.00    +0.000 HD
BRANCH  22  24
ATOM     24  C   UNL     1       2.292   6.693  19.300  0.00  0.00    +0.000 A 
ATOM     25  N   UNL     1       1.662   5.851  20.130  0.00  0.00    +0.000 NA
ATOM     26  C   UNL     1       2.380   4.842  20.607  0.00  0.00    +0.000 A 
ATOM     27  N   UNL     1       3.685   4.638  20.403  0.00  0.00    +0.000 NA
ATOM     28  C   UNL     1       4.200   5.300  19.355  0.00  0.00    +0.000 A 
ATOM     29  C   UNL     1       5.488   4.902  19.008  0.00  0.00    +0.000 A 
ATOM     30  C   UNL     1       5.988   5.129  17.737  0.00  0.00    +0.000 A 
ATOM     31 CL   UNL     1       7.538   4.465  17.363  0.00  0.00    +0.000 Cl
ATOM     32  C   UNL     1       5.175   5.794  16.818  0.00  0.00    +0.000 A 
ATOM     33 CL   UNL     1       5.538   5.723  15.127  0.00  0.00    +0.000 Cl
ATOM     34  C   UNL     1       3.978   6.419  17.261  0.00  0.00    +0.000 A 
ATOM     35  C   UNL     1       3.484   6.245  18.607  0.00  0.00    +0.000 A 
ENDBRANCH  22  24
ENDBRANCH  21  22
ENDBRANCH   6  21
TORSDOF 5
ENDMDL
