MODEL 1
REMARK VINA RESULT:      -7.5      0.000      0.000
REMARK  Name = 
REMARK  13 active torsions:
REMARK  status: ('A' for Active; 'I' for Inactive)
REMARK    1  A    between atoms: C_1  and  C_2
REMARK    2  A    between atoms: C_2  and  C_3
REMARK    3  A    between atoms: C_2  and  C_4
REMARK    4  A    between atoms: C_4  and  N_5
REMARK    5  A    between atoms: N_5  and  C_6
REMARK    6  A    between atoms: N_5  and  C_7
REMARK    7  A    between atoms: C_7  and  C_8
REMARK    8  A    between atoms: C_8  and  O_9
REMARK    9  A    between atoms: N_12  and  C_13
REMARK   10  A    between atoms: C_13  and  C_14
REMARK   11  A    between atoms: C_14  and  C_15
REMARK   12  A    between atoms: C_15  and  C_16
REMARK   13  A    between atoms: C_22  and  N_23
REMARK                            x       y       z     vdW  Elec       q    Type
REMARK                         _______ _______ _______ _____ _____    ______ ____
ROOT
ATOM      1  C   UNL     1       8.270   9.171  17.851  0.00  0.00    +0.000 C 
ENDROOT
BRANCH   1   2
ATOM      2  C   UNL     1       8.358   7.779  18.498  0.00  0.00    +0.000 C 
BRANCH   2   6
ATOM      3  C   UNL     1       5.535   4.701  17.270  0.00  0.00    +0.000 C 
ATOM      4  C   UNL     1       5.697   6.030  16.515  0.00  0.00    +0.000 C 
ATOM      5  C   UNL     1       7.068   6.646  16.765  0.00  0.00    +0.000 C 
ATOM      6  N   UNL     1       7.193   6.936  18.197  0.00  0.00    +0.000 NA
ATOM      7  C   UNL     1       7.222   5.665  18.946  0.00  0.00    +0.000 C 
ATOM      8  C   UNL     1       5.910   4.885  18.751  0.00  0.00    +0.000 C 
BRANCH   3   9
ATOM      9  O   UNL     1       6.471   3.793  16.664  0.00  0.00    +0.000 OA
ATOM     10  H   UNL     1       6.926   3.321  17.381  0.00  0.00    +0.000 HD
ENDBRANCH   3   9
BRANCH   3  11
ATOM     11  C   UNL     1       4.055   4.203  17.084  0.00  0.00    +0.000 C 
BRANCH  11  12
ATOM     12  N   UNL     1       3.366   3.549  18.225  0.00  0.00    +0.000 NA
ATOM     13  C   UNL     1       3.252   2.100  18.051  0.00  0.00    +0.000 C 
BRANCH  12  14
ATOM     14  C   UNL     1       2.017   4.151  18.409  0.00  0.00    +0.000 C 
BRANCH  14  16
ATOM     15  C   UNL     1       2.281   4.111  20.938  0.00  0.00    +0.000 C 
ATOM     16  C   UNL     1       1.834   4.937  19.733  0.00  0.00    +0.000 C 
ATOM     17  C   UNL     1       2.585   6.272  19.700  0.00  0.00    +0.000 C 
ENDBRANCH  14  16
ENDBRANCH  12  14
ENDBRANCH  11  12
ENDBRANCH   3  11
ENDBRANCH   2   6
ENDBRANCH   1   2
BRANCH   1  18
ATOM     18  C   UNL     1       8.632  10.298  18.826  0.00  0.00    +0.000 C 
BRANCH  18  19
ATOM     19  C   UNL     1       9.716  11.178  18.284  0.00  0.00    +0.000 A 
ATOM     20  C   UNL     1      10.950  10.765  17.828  0.00  0.00    +0.000 A 
ATOM     21  N   UNL     1      11.643  11.866  17.402  0.00  0.00    +0.000 N 
ATOM     22  C   UNL     1      10.883  12.999  17.571  0.00  0.00    +0.000 A 
ATOM     23  C   UNL     1      11.178  14.333  17.267  0.00  0.00    +0.000 A 
ATOM     24  C   UNL     1      10.204  15.298  17.562  0.00  0.00    +0.000 A 
ATOM     25  C   UNL     1       8.978  14.943  18.140  0.00  0.00    +0.000 A 
ATOM     26  C   UNL     1       8.706  13.591  18.424  0.00  0.00    +0.000 A 
ATOM     27  C   UNL     1       9.673  12.603  18.134  0.00  0.00    +0.000 A 
ATOM     28  H   UNL     1      12.578  11.850  17.019  0.00  0.00    +0.000 HD
BRANCH  25  29
ATOM     29  N   UNL     1       8.011  15.941  18.441  0.00  0.00    +0.000 N 
ATOM     30  C   UNL     1       8.218  17.269  18.730  0.00  0.00    +0.000 A 
ATOM     31  N   UNL     1       7.076  17.881  18.949  0.00  0.00    +0.000 NA
ATOM     32  N   UNL     1       6.079  16.952  18.813  0.00  0.00    +0.000 NA
ATOM     33  C   UNL     1       6.646  15.803  18.512  0.00  0.00    +0.000 A 
ENDBRANCH  25  29
ENDBRANCH  18  19
ENDBRANCH   1  18
TORSDOF 10
ENDMDL
MODEL 2
REMARK VINA RESULT:      -7.4      3.119      3.675
REMARK  Name = 
REMARK  13 active torsions:
REMARK  status: ('A' for Active; 'I' for Inactive)
REMARK    1  A    between atoms: C_1  and  C_2
REMARK    2  A    between atoms: C_2  and  C_3
REMARK    3  A    between atoms: C_2  and  C_4
REMARK    4  A    between atoms: C_4  and  N_5
REMARK    5  A    between atoms: N_5  and  C_6
REMARK    6  A    between atoms: N_5  and  C_7
REMARK    7  A    between atoms: C_7  and  C_8
REMARK    8  A    between atoms: C_8  and  O_9
REMARK    9  A    between atoms: N_12  and  C_13
REMARK   10  A    between atoms: C_13  and  C_14
REMARK   11  A    between atoms: C_14  and  C_15
REMARK   12  A    between atoms: C_15  and  C_16
REMARK   13  A    between atoms: C_22  and  N_23
REMARK                            x       y       z     vdW  Elec       q    Type
REMARK                         _______ _______ _______ _____ _____    ______ ____
ROOT
ATOM      1  C   UNL     1       7.883   9.271  17.929  0.00  0.00    +0.000 C 
ENDROOT
BRANCH   1   2
ATOM      2  C   UNL     1       7.861   7.913  17.207  0.00  0.00    +0.000 C 
BRANCH   2   6
ATOM      3  C   UNL     1       5.115   4.672  18.160  0.00  0.00    +0.000 C 
ATOM      4  C   UNL     1       4.812   5.729  17.086  0.00  0.00    +0.000 C 
ATOM      5  C   UNL     1       6.093   6.363  16.556  0.00  0.00    +0.000 C 
ATOM      6  N   UNL     1       6.769   7.043  17.664  0.00  0.00    +0.000 NA
ATOM      7  C   UNL     1       7.236   6.036  18.636  0.00  0.00    +0.000 C 
ATOM      8  C   UNL     1       6.048   5.260  19.233  0.00  0.00    +0.000 C 
BRANCH   3   9
ATOM      9  O   UNL     1       5.804   3.611  17.476  0.00  0.00    +0.000 OA
ATOM     10  H   UNL     1       6.681   3.947  17.223  0.00  0.00    +0.000 HD
ENDBRANCH   3   9
BRANCH   3  11
ATOM     11  C   UNL     1       3.751   4.172  18.760  0.00  0.00    +0.000 C 
BRANCH  11  12
ATOM     12  N   UNL     1       3.128   4.938  19.870  0.00  0.00    +0.000 NA
ATOM     13  C   UNL     1       2.567   4.065  20.903  0.00  0.00    +0.000 C 
BRANCH  12  14
ATOM     14  C   UNL     1       2.072   5.837  19.329  0.00  0.00    +0.000 C 
BRANCH  14  16
ATOM     15  C   UNL     1       2.122   8.076  18.125  0.00  0.00    +0.000 C 
ATOM     16  C   UNL     1       2.390   7.350  19.443  0.00  0.00    +0.000 C 
ATOM     17  C   UNL     1       1.596   8.005  20.578  0.00  0.00    +0.000 C 
ENDBRANCH  14  16
ENDBRANCH  12  14
ENDBRANCH  11  12
ENDBRANCH   3  11
ENDBRANCH   2   6
ENDBRANCH   1   2
BRANCH   1  18
ATOM     18  C   UNL     1       9.051   9.394  18.916  0.00  0.00    +0.000 C 
BRANCH  18  19
ATOM     19  C   UNL     1       9.614  10.781  18.944  0.00  0.00    +0.000 A 
ATOM     20  C   UNL     1      10.297  11.405  17.920  0.00  0.00    +0.000 A 
ATOM     21  N   UNL     1      10.631  12.666  18.331  0.00  0.00    +0.000 N 
ATOM     22  C   UNL     1      10.179  12.884  19.611  0.00  0.00    +0.000 A 
ATOM     23  C   UNL     1      10.282  14.021  20.420  0.00  0.00    +0.000 A 
ATOM     24  C   UNL     1       9.730  13.955  21.708  0.00  0.00    +0.000 A 
ATOM     25  C   UNL     1       9.098  12.795  22.172  0.00  0.00    +0.000 A 
ATOM     26  C   UNL     1       9.000  11.670  21.330  0.00  0.00    +0.000 A 
ATOM     27  C   UNL     1       9.547  11.715  20.028  0.00  0.00    +0.000 A 
ATOM     28  H   UNL     1      11.136  13.342  17.776  0.00  0.00    +0.000 HD
BRANCH  25  29
ATOM     29  N   UNL     1       8.557  12.748  23.486  0.00  0.00    +0.000 N 
ATOM     30  C   UNL     1       8.034  11.667  24.155  0.00  0.00    +0.000 A 
ATOM     31  N   UNL     1       7.637  12.013  25.359  0.00  0.00    +0.000 NA
ATOM     32  N   UNL     1       7.888  13.351  25.506  0.00  0.00    +0.000 NA
ATOM     33  C   UNL     1       8.435  13.777  24.387  0.00  0.00    +0.000 A 
ENDBRANCH  25  29
ENDBRANCH  18  19
ENDBRANCH   1  18
TORSDOF 10
ENDMDL
MODEL 3
REMARK VINA RESULT:      -7.4      6.588     11.367
REMARK  Name = 
REMARK  13 active torsions:
REMARK  status: ('A' for Active; 'I' for Inactive)
REMARK    1  A    between atoms: C_1  and  C_2
REMARK    2  A    between atoms: C_2  and  C_3
REMARK    3  A    between atoms: C_2  and  C_4
REMARK    4  A    between atoms: C_4  and  N_5
REMARK    5  A    between atoms: N_5  and  C_6
REMARK    6  A    between atoms: N_5  and  C_7
REMARK    7  A    between atoms: C_7  and  C_8
REMARK    8  A    between atoms: C_8  and  O_9
REMARK    9  A    between atoms: N_12  and  C_13
REMARK   10  A    between atoms: C_13  and  C_14
REMARK   11  A    between atoms: C_14  and  C_15
REMARK   12  A    between atoms: C_15  and  C_16
REMARK   13  A    between atoms: C_22  and  N_23
REMARK                            x       y       z     vdW  Elec       q    Type
REMARK                         _______ _______ _______ _____ _____    ______ ____
ROOT
ATOM      1  C   UNL     1       0.823   7.753  20.999  0.00  0.00    +0.000 C 
ENDROOT
BRANCH   1   2
ATOM      2  C   UNL     1       1.096   8.885  22.003  0.00  0.00    +0.000 C 
BRANCH   2   6
ATOM      3  C   UNL     1      -1.132  12.620  22.200  0.00  0.00    +0.000 C 
ATOM      4  C   UNL     1      -1.629  11.321  22.854  0.00  0.00    +0.000 C 
ATOM      5  C   UNL     1      -0.474  10.368  23.139  0.00  0.00    +0.000 C 
ATOM      6  N   UNL     1       0.157  10.007  21.866  0.00  0.00    +0.000 NA
ATOM      7  C   UNL     1       0.804  11.202  21.291  0.00  0.00    +0.000 C 
ATOM      8  C   UNL     1      -0.236  12.296  20.992  0.00  0.00    +0.000 C 
BRANCH   3   9
ATOM      9  O   UNL     1      -0.339  13.280  23.202  0.00  0.00    +0.000 OA
ATOM     10  H   UNL     1       0.080  14.050  22.782  0.00  0.00    +0.000 HD
ENDBRANCH   3   9
BRANCH   3  11
ATOM     11  C   UNL     1      -2.384  13.484  21.803  0.00  0.00    +0.000 C 
BRANCH  11  12
ATOM     12  N   UNL     1      -3.709  12.823  21.684  0.00  0.00    +0.000 NA
ATOM     13  C   UNL     1      -4.100  12.607  20.290  0.00  0.00    +0.000 C 
BRANCH  12  14
ATOM     14  C   UNL     1      -4.740  13.633  22.387  0.00  0.00    +0.000 C 
BRANCH  14  16
ATOM     15  C   UNL     1      -4.632  12.490  24.655  0.00  0.00    +0.000 C 
ATOM     16  C   UNL     1      -5.531  12.868  23.479  0.00  0.00    +0.000 C 
ATOM     17  C   UNL     1      -6.733  13.681  23.973  0.00  0.00    +0.000 C 
ENDBRANCH  14  16
ENDBRANCH  12  14
ENDBRANCH  11  12
ENDBRANCH   3  11
ENDBRANCH   2   6
ENDBRANCH   1   2
BRANCH   1  18
ATOM     18  C   UNL     1       2.094   7.285  20.279  0.00  0.00    +0.000 C 
BRANCH  18  19
ATOM     19  C   UNL     1       2.050   5.821  19.966  0.00  0.00    +0.000 A 
ATOM     20  C   UNL     1       1.158   4.903  20.480  0.00  0.00    +0.000 A 
ATOM     21  N   UNL     1       1.439   3.679  19.937  0.00  0.00    +0.000 N 
ATOM     22  C   UNL     1       2.502   3.776  19.071  0.00  0.00    +0.000 A 
ATOM     23  C   UNL     1       3.119   2.792  18.290  0.00  0.00    +0.000 A 
ATOM     24  C   UNL     1       4.208   3.180  17.496  0.00  0.00    +0.000 A 
ATOM     25  C   UNL     1       4.665   4.504  17.482  0.00  0.00    +0.000 A 
ATOM     26  C   UNL     1       4.017   5.475  18.270  0.00  0.00    +0.000 A 
ATOM     27  C   UNL     1       2.916   5.106  19.076  0.00  0.00    +0.000 A 
ATOM     28  H   UNL     1       0.938   2.825  20.140  0.00  0.00    +0.000 HD
BRANCH  25  29
ATOM     29  N   UNL     1       5.779   4.871  16.678  0.00  0.00    +0.000 N 
ATOM     30  C   UNL     1       6.510   6.035  16.713  0.00  0.00    +0.000 A 
ATOM     31  N   UNL     1       7.473   6.007  15.819  0.00  0.00    +0.000 NA
ATOM     32  N   UNL     1       7.388   4.808  15.162  0.00  0.00    +0.000 NA
ATOM     33  C   UNL     1       6.379   4.141  15.680  0.00  0.00    +0.000 A 
ENDBRANCH  25  29
ENDBRANCH  18  19
ENDBRANCH   1  18
TORSDOF 10
ENDMDL
MODEL 4
REMARK VINA RESULT:      -7.4      0.931      1.581
REMARK  Name = 
REMARK  13 active torsions:
REMARK  status: ('A' for Active; 'I' for Inactive)
REMARK    1  A    between atoms: C_1  and  C_2
REMARK    2  A    between atoms: C_2  and  C_3
REMARK    3  A    between atoms: C_2  and  C_4
REMARK    4  A    between atoms: C_4  and  N_5
REMARK    5  A    between atoms: N_5  and  C_6
REMARK    6  A    between atoms: N_5  and  C_7
REMARK    7  A    between atoms: C_7  and  C_8
REMARK    8  A    between atoms: C_8  and  O_9
REMARK    9  A    between atoms: N_12  and  C_13
REMARK   10  A    between atoms: C_13  and  C_14
REMARK   11  A    between atoms: C_14  and  C_15
REMARK   12  A    between atoms: C_15  and  C_16
REMARK   13  A    between atoms: C_22  and  N_23
REMARK                            x       y       z     vdW  Elec       q    Type
REMARK                         _______ _______ _______ _____ _____    ______ ____
ROOT
ATOM      1  C   UNL     1       8.187  10.005  18.236  0.00  0.00    +0.000 C 
ENDROOT
BRANCH   1   2
ATOM      2  C   UNL     1       8.413   8.694  17.464  0.00  0.00    +0.000 C 
BRANCH   2   6
ATOM      3  C   UNL     1       6.491   4.916  18.456  0.00  0.00    +0.000 C 
ATOM      4  C   UNL     1       5.944   5.870  17.382  0.00  0.00    +0.000 C 
ATOM      5  C   UNL     1       7.040   6.777  16.837  0.00  0.00    +0.000 C 
ATOM      6  N   UNL     1       7.554   7.599  17.936  0.00  0.00    +0.000 NA
ATOM      7  C   UNL     1       8.248   6.731  18.906  0.00  0.00    +0.000 C 
ATOM      8  C   UNL     1       7.275   5.707  19.518  0.00  0.00    +0.000 C 
BRANCH   3   9
ATOM      9  O   UNL     1       7.398   4.037  17.769  0.00  0.00    +0.000 OA
ATOM     10  H   UNL     1       7.360   3.173  18.213  0.00  0.00    +0.000 HD
ENDBRANCH   3   9
BRANCH   3  11
ATOM     11  C   UNL     1       5.283   4.120  19.073  0.00  0.00    +0.000 C 
BRANCH  11  12
ATOM     12  N   UNL     1       3.900   4.593  18.812  0.00  0.00    +0.000 NA
ATOM     13  C   UNL     1       3.524   5.719  19.670  0.00  0.00    +0.000 C 
BRANCH  12  14
ATOM     14  C   UNL     1       2.942   3.469  18.993  0.00  0.00    +0.000 C 
BRANCH  14  16
ATOM     15  C   UNL     1       0.574   3.253  19.895  0.00  0.00    +0.000 C 
ATOM     16  C   UNL     1       2.025   3.593  20.237  0.00  0.00    +0.000 C 
ATOM     17  C   UNL     1       2.518   2.708  21.387  0.00  0.00    +0.000 C 
ENDBRANCH  14  16
ENDBRANCH  12  14
ENDBRANCH  11  12
ENDBRANCH   3  11
ENDBRANCH   2   6
ENDBRANCH   1   2
BRANCH   1  18
ATOM     18  C   UNL     1       9.374  10.371  19.136  0.00  0.00    +0.000 C 
BRANCH  18  19
ATOM     19  C   UNL     1      10.276  11.375  18.487  0.00  0.00    +0.000 A 
ATOM     20  C   UNL     1      11.548  11.138  18.007  0.00  0.00    +0.000 A 
ATOM     21  N   UNL     1      12.031  12.302  17.476  0.00  0.00    +0.000 N 
ATOM     22  C   UNL     1      11.098  13.304  17.599  0.00  0.00    +0.000 A 
ATOM     23  C   UNL     1      11.154  14.642  17.191  0.00  0.00    +0.000 A 
ATOM     24  C   UNL     1      10.042  15.451  17.461  0.00  0.00    +0.000 A 
ATOM     25  C   UNL     1       8.912  14.944  18.116  0.00  0.00    +0.000 A 
ATOM     26  C   UNL     1       8.880  13.591  18.504  0.00  0.00    +0.000 A 
ATOM     27  C   UNL     1       9.990  12.757  18.241  0.00  0.00    +0.000 A 
ATOM     28  H   UNL     1      12.943  12.413  17.054  0.00  0.00    +0.000 HD
BRANCH  25  29
ATOM     29  N   UNL     1       7.801  15.788  18.389  0.00  0.00    +0.000 N 
ATOM     30  C   UNL     1       6.469  15.452  18.453  0.00  0.00    +0.000 A 
ATOM     31  N   UNL     1       5.737  16.505  18.738  0.00  0.00    +0.000 NA
ATOM     32  N   UNL     1       6.584  17.574  18.861  0.00  0.00    +0.000 NA
ATOM     33  C   UNL     1       7.807  17.137  18.651  0.00  0.00    +0.000 A 
ENDBRANCH  25  29
ENDBRANCH  18  19
ENDBRANCH   1  18
TORSDOF 10
ENDMDL
MODEL 5
REMARK VINA RESULT:      -7.3      1.967      2.500
REMARK  Name = 
REMARK  13 active torsions:
REMARK  status: ('A' for Active; 'I' for Inactive)
REMARK    1  A    between atoms: C_1  and  C_2
REMARK    2  A    between atoms: C_2  and  C_3
REMARK    3  A    between atoms: C_2  and  C_4
REMARK    4  A    between atoms: C_4  and  N_5
REMARK    5  A    between atoms: N_5  and  C_6
REMARK    6  A    between atoms: N_5  and  C_7
REMARK    7  A    between atoms: C_7  and  C_8
REMARK    8  A    between atoms: C_8  and  O_9
REMARK    9  A    between atoms: N_12  and  C_13
REMARK   10  A    between atoms: C_13  and  C_14
REMARK   11  A    between atoms: C_14  and  C_15
REMARK   12  A    between atoms: C_15  and  C_16
REMARK   13  A    between atoms: C_22  and  N_23
REMARK                            x       y       z     vdW  Elec       q    Type
REMARK                         _______ _______ _______ _____ _____    ______ ____
ROOT
ATOM      1  C   UNL     1       8.149   9.559  18.157  0.00  0.00    +0.000 C 
ENDROOT
BRANCH   1   2
ATOM      2  C   UNL     1       8.497   8.089  18.442  0.00  0.00    +0.000 C 
BRANCH   2   6
ATOM      3  C   UNL     1       5.815   4.832  17.371  0.00  0.00    +0.000 C 
ATOM      4  C   UNL     1       5.895   6.140  16.568  0.00  0.00    +0.000 C 
ATOM      5  C   UNL     1       7.237   6.833  16.772  0.00  0.00    +0.000 C 
ATOM      6  N   UNL     1       7.372   7.178  18.191  0.00  0.00    +0.000 NA
ATOM      7  C   UNL     1       7.479   5.937  18.982  0.00  0.00    +0.000 C 
ATOM      8  C   UNL     1       6.206   5.085  18.838  0.00  0.00    +0.000 C 
BRANCH   3   9
ATOM      9  O   UNL     1       6.786   3.952  16.778  0.00  0.00    +0.000 OA
ATOM     10  H   UNL     1       6.314   3.159  16.472  0.00  0.00    +0.000 HD
ENDBRANCH   3   9
BRANCH   3  11
ATOM     11  C   UNL     1       4.360   4.253  17.229  0.00  0.00    +0.000 C 
BRANCH  11  12
ATOM     12  N   UNL     1       3.772   3.495  18.363  0.00  0.00    +0.000 NA
ATOM     13  C   UNL     1       3.647   2.066  18.073  0.00  0.00    +0.000 C 
BRANCH  12  14
ATOM     14  C   UNL     1       2.443   4.066  18.713  0.00  0.00    +0.000 C 
BRANCH  14  16
ATOM     15  C   UNL     1       1.857   5.710  20.562  0.00  0.00    +0.000 C 
ATOM     16  C   UNL     1       2.200   4.258  20.232  0.00  0.00    +0.000 C 
ATOM     17  C   UNL     1       1.098   3.325  20.746  0.00  0.00    +0.000 C 
ENDBRANCH  14  16
ENDBRANCH  12  14
ENDBRANCH  11  12
ENDBRANCH   3  11
ENDBRANCH   2   6
ENDBRANCH   1   2
BRANCH   1  18
ATOM     18  C   UNL     1       9.372  10.481  18.240  0.00  0.00    +0.000 C 
BRANCH  18  19
ATOM     19  C   UNL     1       9.437  11.205  19.550  0.00  0.00    +0.000 A 
ATOM     20  C   UNL     1       9.186  10.664  20.794  0.00  0.00    +0.000 A 
ATOM     21  N   UNL     1       9.367  11.642  21.733  0.00  0.00    +0.000 N 
ATOM     22  C   UNL     1       9.733  12.820  21.127  0.00  0.00    +0.000 A 
ATOM     23  C   UNL     1      10.030  14.067  21.690  0.00  0.00    +0.000 A 
ATOM     24  C   UNL     1      10.368  15.111  20.816  0.00  0.00    +0.000 A 
ATOM     25  C   UNL     1      10.408  14.917  19.430  0.00  0.00    +0.000 A 
ATOM     26  C   UNL     1      10.115  13.648  18.894  0.00  0.00    +0.000 A 
ATOM     27  C   UNL     1       9.774  12.582  19.756  0.00  0.00    +0.000 A 
ATOM     28  H   UNL     1       9.249  11.519  22.729  0.00  0.00    +0.000 HD
BRANCH  25  29
ATOM     29  N   UNL     1      10.741  15.995  18.564  0.00  0.00    +0.000 N 
ATOM     30  C   UNL     1      11.984  16.514  18.288  0.00  0.00    +0.000 A 
ATOM     31  N   UNL     1      11.894  17.505  17.430  0.00  0.00    +0.000 NA
ATOM     32  N   UNL     1      10.569  17.666  17.125  0.00  0.00    +0.000 NA
ATOM     33  C   UNL     1       9.893  16.763  17.804  0.00  0.00    +0.000 A 
ENDBRANCH  25  29
ENDBRANCH  18  19
ENDBRANCH   1  18
TORSDOF 10
ENDMDL
MODEL 6
REMARK VINA RESULT:      -7.2      5.346     11.141
REMARK  Name = 
REMARK  13 active torsions:
REMARK  status: ('A' for Active; 'I' for Inactive)
REMARK    1  A    between atoms: C_1  and  C_2
REMARK    2  A    between atoms: C_2  and  C_3
REMARK    3  A    between atoms: C_2  and  C_4
REMARK    4  A    between atoms: C_4  and  N_5
REMARK    5  A    between atoms: N_5  and  C_6
REMARK    6  A    between atoms: N_5  and  C_7
REMARK    7  A    between atoms: C_7  and  C_8
REMARK    8  A    between atoms: C_8  and  O_9
REMARK    9  A    between atoms: N_12  and  C_13
REMARK   10  A    between atoms: C_13  and  C_14
REMARK   11  A    between atoms: C_14  and  C_15
REMARK   12  A    between atoms: C_15  and  C_16
REMARK   13  A    between atoms: C_22  and  N_23
REMARK                            x       y       z     vdW  Elec       q    Type
REMARK                         _______ _______ _______ _____ _____    ______ ____
ROOT
ATOM      1  C   UNL     1       0.531   9.289  17.759  0.00  0.00    +0.000 C 
ENDROOT
BRANCH   1   2
ATOM      2  C   UNL     1      -0.238  10.185  18.744  0.00  0.00    +0.000 C 
BRANCH   2   6
ATOM      3  C   UNL     1       0.955  14.208  19.903  0.00  0.00    +0.000 C 
ATOM      4  C   UNL     1       0.331  13.888  18.535  0.00  0.00    +0.000 C 
ATOM      5  C   UNL     1      -0.493  12.606  18.589  0.00  0.00    +0.000 C 
ATOM      6  N   UNL     1       0.398  11.496  18.937  0.00  0.00    +0.000 NA
ATOM      7  C   UNL     1       0.879  11.677  20.320  0.00  0.00    +0.000 C 
ATOM      8  C   UNL     1       1.697  12.975  20.449  0.00  0.00    +0.000 C 
BRANCH   3   9
ATOM      9  O   UNL     1      -0.150  14.508  20.773  0.00  0.00    +0.000 OA
ATOM     10  H   UNL     1      -0.456  15.405  20.558  0.00  0.00    +0.000 HD
ENDBRANCH   3   9
BRANCH   3  11
ATOM     11  C   UNL     1       1.902  15.452  19.735  0.00  0.00    +0.000 C 
BRANCH  11  12
ATOM     12  N   UNL     1       1.942  16.157  18.429  0.00  0.00    +0.000 NA
ATOM     13  C   UNL     1       3.310  16.395  17.965  0.00  0.00    +0.000 C 
BRANCH  12  14
ATOM     14  C   UNL     1       1.204  17.446  18.532  0.00  0.00    +0.000 C 
BRANCH  14  16
ATOM     15  C   UNL     1      -1.323  17.529  18.810  0.00  0.00    +0.000 C 
ATOM     16  C   UNL     1      -0.168  17.466  17.810  0.00  0.00    +0.000 C 
ATOM     17  C   UNL     1      -0.263  18.631  16.819  0.00  0.00    +0.000 C 
ENDBRANCH  14  16
ENDBRANCH  12  14
ENDBRANCH  11  12
ENDBRANCH   3  11
ENDBRANCH   2   6
ENDBRANCH   1   2
BRANCH   1  18
ATOM     18  C   UNL     1       2.021   9.172  18.108  0.00  0.00    +0.000 C 
BRANCH  18  19
ATOM     19  C   UNL     1       2.310   7.944  18.915  0.00  0.00    +0.000 A 
ATOM     20  C   UNL     1       1.760   7.624  20.139  0.00  0.00    +0.000 A 
ATOM     21  N   UNL     1       2.267   6.417  20.536  0.00  0.00    +0.000 N 
ATOM     22  C   UNL     1       3.141   5.935  19.592  0.00  0.00    +0.000 A 
ATOM     23  C   UNL     1       3.877   4.744  19.571  0.00  0.00    +0.000 A 
ATOM     24  C   UNL     1       4.712   4.515  18.467  0.00  0.00    +0.000 A 
ATOM     25  C   UNL     1       4.809   5.442  17.422  0.00  0.00    +0.000 A 
ATOM     26  C   UNL     1       4.049   6.625  17.465  0.00  0.00    +0.000 A 
ATOM     27  C   UNL     1       3.200   6.876  18.567  0.00  0.00    +0.000 A 
ATOM     28  H   UNL     1       2.033   5.945  21.399  0.00  0.00    +0.000 HD
BRANCH  25  29
ATOM     29  N   UNL     1       5.672   5.192  16.319  0.00  0.00    +0.000 N 
ATOM     30  C   UNL     1       5.381   4.557  15.135  0.00  0.00    +0.000 A 
ATOM     31  N   UNL     1       6.437   4.522  14.354  0.00  0.00    +0.000 NA
ATOM     32  N   UNL     1       7.463   5.136  15.023  0.00  0.00    +0.000 NA
ATOM     33  C   UNL     1       6.997   5.530  16.189  0.00  0.00    +0.000 A 
ENDBRANCH  25  29
ENDBRANCH  18  19
ENDBRANCH   1  18
TORSDOF 10
ENDMDL
MODEL 7
REMARK VINA RESULT:      -7.2      5.729      9.913
REMARK  Name = 
REMARK  13 active torsions:
REMARK  status: ('A' for Active; 'I' for Inactive)
REMARK    1  A    between atoms: C_1  and  C_2
REMARK    2  A    between atoms: C_2  and  C_3
REMARK    3  A    between atoms: C_2  and  C_4
REMARK    4  A    between atoms: C_4  and  N_5
REMARK    5  A    between atoms: N_5  and  C_6
REMARK    6  A    between atoms: N_5  and  C_7
REMARK    7  A    between atoms: C_7  and  C_8
REMARK    8  A    between atoms: C_8  and  O_9
REMARK    9  A    between atoms: N_12  and  C_13
REMARK   10  A    between atoms: C_13  and  C_14
REMARK   11  A    between atoms: C_14  and  C_15
REMARK   12  A    between atoms: C_15  and  C_16
REMARK   13  A    between atoms: C_22  and  N_23
REMARK                            x       y       z     vdW  Elec       q    Type
REMARK                         _______ _______ _______ _____ _____    ______ ____
ROOT
ATOM      1  C   UNL     1       1.146   5.350  20.509  0.00  0.00    +0.000 C 
ENDROOT
BRANCH   1   2
ATOM      2  C   UNL     1       1.805   6.607  21.102  0.00  0.00    +0.000 C 
BRANCH   2   6
ATOM      3  C   UNL     1       0.259  10.653  20.670  0.00  0.00    +0.000 C 
ATOM      4  C   UNL     1      -0.217   9.695  21.773  0.00  0.00    +0.000 C 
ATOM      5  C   UNL     1       0.827   8.624  22.065  0.00  0.00    +0.000 C 
ATOM      6  N   UNL     1       1.030   7.829  20.850  0.00  0.00    +0.000 NA
ATOM      7  C   UNL     1       1.657   8.677  19.818  0.00  0.00    +0.000 C 
ATOM      8  C   UNL     1       0.738   9.854  19.445  0.00  0.00    +0.000 C 
BRANCH   3   9
ATOM      9  O   UNL     1       1.379  11.362  21.228  0.00  0.00    +0.000 OA
ATOM     10  H   UNL     1       2.161  11.140  20.695  0.00  0.00    +0.000 HD
ENDBRANCH   3   9
BRANCH   3  11
ATOM     11  C   UNL     1      -0.920  11.633  20.322  0.00  0.00    +0.000 C 
BRANCH  11  12
ATOM     12  N   UNL     1      -1.200  11.948  18.898  0.00  0.00    +0.000 NA
ATOM     13  C   UNL     1      -0.758  13.294  18.528  0.00  0.00    +0.000 C 
BRANCH  12  14
ATOM     14  C   UNL     1      -2.655  11.793  18.625  0.00  0.00    +0.000 C 
BRANCH  14  16
ATOM     15  C   UNL     1      -4.503  10.495  17.458  0.00  0.00    +0.000 C 
ATOM     16  C   UNL     1      -3.042  10.477  17.904  0.00  0.00    +0.000 C 
ATOM     17  C   UNL     1      -2.127  10.206  16.705  0.00  0.00    +0.000 C 
ENDBRANCH  14  16
ENDBRANCH  12  14
ENDBRANCH  11  12
ENDBRANCH   3  11
ENDBRANCH   2   6
ENDBRANCH   1   2
BRANCH   1  18
ATOM     18  C   UNL     1       1.950   4.074  20.790  0.00  0.00    +0.000 C 
BRANCH  18  19
ATOM     19  C   UNL     1       2.402   3.411  19.526  0.00  0.00    +0.000 A 
ATOM     20  C   UNL     1       1.829   2.304  18.936  0.00  0.00    +0.000 A 
ATOM     21  N   UNL     1       2.522   2.018  17.792  0.00  0.00    +0.000 N 
ATOM     22  C   UNL     1       3.545   2.920  17.618  0.00  0.00    +0.000 A 
ATOM     23  C   UNL     1       4.492   3.020  16.593  0.00  0.00    +0.000 A 
ATOM     24  C   UNL     1       5.440   4.050  16.682  0.00  0.00    +0.000 A 
ATOM     25  C   UNL     1       5.443   4.948  17.757  0.00  0.00    +0.000 A 
ATOM     26  C   UNL     1       4.470   4.829  18.768  0.00  0.00    +0.000 A 
ATOM     27  C   UNL     1       3.504   3.800  18.697  0.00  0.00    +0.000 A 
ATOM     28  H   UNL     1       2.314   1.255  17.163  0.00  0.00    +0.000 HD
BRANCH  25  29
ATOM     29  N   UNL     1       6.422   5.976  17.831  0.00  0.00    +0.000 N 
ATOM     30  C   UNL     1       6.508   7.128  17.085  0.00  0.00    +0.000 A 
ATOM     31  N   UNL     1       7.552   7.840  17.446  0.00  0.00    +0.000 NA
ATOM     32  N   UNL     1       8.188   7.157  18.448  0.00  0.00    +0.000 NA
ATOM     33  C   UNL     1       7.509   6.051  18.668  0.00  0.00    +0.000 A 
ENDBRANCH  25  29
ENDBRANCH  18  19
ENDBRANCH   1  18
TORSDOF 10
ENDMDL
MODEL 8
REMARK VINA RESULT:      -7.2      5.406      8.333
REMARK  Name = 
REMARK  13 active torsions:
REMARK  status: ('A' for Active; 'I' for Inactive)
REMARK    1  A    between atoms: C_1  and  C_2
REMARK    2  A    between atoms: C_2  and  C_3
REMARK    3  A    between atoms: C_2  and  C_4
REMARK    4  A    between atoms: C_4  and  N_5
REMARK    5  A    between atoms: N_5  and  C_6
REMARK    6  A    between atoms: N_5  and  C_7
REMARK    7  A    between atoms: C_7  and  C_8
REMARK    8  A    between atoms: C_8  and  O_9
REMARK    9  A    between atoms: N_12  and  C_13
REMARK   10  A    between atoms: C_13  and  C_14
REMARK   11  A    between atoms: C_14  and  C_15
REMARK   12  A    between atoms: C_15  and  C_16
REMARK   13  A    between atoms: C_22  and  N_23
REMARK                            x       y       z     vdW  Elec       q    Type
REMARK                         _______ _______ _______ _____ _____    ______ ____
ROOT
ATOM      1  C   UNL     1       1.201   6.912  20.371  0.00  0.00    +0.000 C 
ENDROOT
BRANCH   1   2
ATOM      2  C   UNL     1       2.358   6.024  20.861  0.00  0.00    +0.000 C 
BRANCH   2   6
ATOM      3  C   UNL     1       4.063   4.109  17.343  0.00  0.00    +0.000 C 
ATOM      4  C   UNL     1       4.369   3.641  18.774  0.00  0.00    +0.000 C 
ATOM      5  C   UNL     1       3.266   4.056  19.741  0.00  0.00    +0.000 C 
ATOM      6  N   UNL     1       3.193   5.520  19.762  0.00  0.00    +0.000 NA
ATOM      7  C   UNL     1       2.726   6.000  18.448  0.00  0.00    +0.000 C 
ATOM      8  C   UNL     1       3.718   5.609  17.338  0.00  0.00    +0.000 C 
BRANCH   3   9
ATOM      9  O   UNL     1       2.903   3.365  16.931  0.00  0.00    +0.000 OA
ATOM     10  H   UNL     1       2.774   2.646  17.572  0.00  0.00    +0.000 HD
ENDBRANCH   3   9
BRANCH   3  11
ATOM     11  C   UNL     1       5.304   3.777  16.437  0.00  0.00    +0.000 C 
BRANCH  11  12
ATOM     12  N   UNL     1       6.242   4.869  16.071  0.00  0.00    +0.000 NA
ATOM     13  C   UNL     1       6.798   4.698  14.727  0.00  0.00    +0.000 C 
BRANCH  12  14
ATOM     14  C   UNL     1       7.339   4.947  17.074  0.00  0.00    +0.000 C 
BRANCH  14  16
ATOM     15  C   UNL     1       7.966   5.765  19.398  0.00  0.00    +0.000 C 
ATOM     16  C   UNL     1       7.173   6.071  18.128  0.00  0.00    +0.000 C 
ATOM     17  C   UNL     1       7.587   7.434  17.563  0.00  0.00    +0.000 C 
ENDBRANCH  14  16
ENDBRANCH  12  14
ENDBRANCH  11  12
ENDBRANCH   3  11
ENDBRANCH   2   6
ENDBRANCH   1   2
BRANCH   1  18
ATOM     18  C   UNL     1       1.283   8.342  20.921  0.00  0.00    +0.000 C 
BRANCH  18  19
ATOM     19  C   UNL     1       0.927   9.360  19.882  0.00  0.00    +0.000 A 
ATOM     20  C   UNL     1       1.361   9.375  18.573  0.00  0.00    +0.000 A 
ATOM     21  N   UNL     1       0.801  10.455  17.947  0.00  0.00    +0.000 N 
ATOM     22  C   UNL     1       0.005  11.153  18.823  0.00  0.00    +0.000 A 
ATOM     23  C   UNL     1      -0.764  12.304  18.620  0.00  0.00    +0.000 A 
ATOM     24  C   UNL     1      -1.479  12.811  19.715  0.00  0.00    +0.000 A 
ATOM     25  C   UNL     1      -1.428  12.190  20.969  0.00  0.00    +0.000 A 
ATOM     26  C   UNL     1      -0.655  11.027  21.141  0.00  0.00    +0.000 A 
ATOM     27  C   UNL     1       0.072  10.498  20.051  0.00  0.00    +0.000 A 
ATOM     28  H   UNL     1       0.950  10.706  16.979  0.00  0.00    +0.000 HD
BRANCH  25  29
ATOM     29  N   UNL     1      -2.153  12.730  22.067  0.00  0.00    +0.000 N 
ATOM     30  C   UNL     1      -2.505  14.040  22.295  0.00  0.00    +0.000 A 
ATOM     31  N   UNL     1      -3.179  14.151  23.417  0.00  0.00    +0.000 NA
ATOM     32  N   UNL     1      -3.279  12.899  23.963  0.00  0.00    +0.000 NA
ATOM     33  C   UNL     1      -2.666  12.063  23.153  0.00  0.00    +0.000 A 
ENDBRANCH  25  29
ENDBRANCH  18  19
ENDBRANCH   1  18
TORSDOF 10
ENDMDL
MODEL 9
REMARK VINA RESULT:      -7.1      5.192     10.626
REMARK  Name = 
REMARK  13 active torsions:
REMARK  status: ('A' for Active; 'I' for Inactive)
REMARK    1  A    between atoms: C_1  and  C_2
REMARK    2  A    between atoms: C_2  and  C_3
REMARK    3  A    between atoms: C_2  and  C_4
REMARK    4  A    between atoms: C_4  and  N_5
REMARK    5  A    between atoms: N_5  and  C_6
REMARK    6  A    between atoms: N_5  and  C_7
REMARK    7  A    between atoms: C_7  and  C_8
REMARK    8  A    between atoms: C_8  and  O_9
REMARK    9  A    between atoms: N_12  and  C_13
REMARK   10  A    between atoms: C_13  and  C_14
REMARK   11  A    between atoms: C_14  and  C_15
REMARK   12  A    between atoms: C_15  and  C_16
REMARK   13  A    between atoms: C_22  and  N_23
REMARK                            x       y       z     vdW  Elec       q    Type
REMARK                         _______ _______ _______ _____ _____    ______ ____
ROOT
ATOM      1  C   UNL     1       1.226   7.373  20.539  0.00  0.00    +0.000 C 
ENDROOT
BRANCH   1   2
ATOM      2  C   UNL     1       1.282   8.553  21.524  0.00  0.00    +0.000 C 
BRANCH   2   6
ATOM      3  C   UNL     1      -0.577  11.948  19.533  0.00  0.00    +0.000 C 
ATOM      4  C   UNL     1       0.486  11.068  18.856  0.00  0.00    +0.000 C 
ATOM      5  C   UNL     1       0.546   9.684  19.492  0.00  0.00    +0.000 C 
ATOM      6  N   UNL     1       0.929   9.834  20.899  0.00  0.00    +0.000 NA
ATOM      7  C   UNL     1      -0.156  10.522  21.625  0.00  0.00    +0.000 C 
ATOM      8  C   UNL     1      -0.382  11.936  21.059  0.00  0.00    +0.000 C 
BRANCH   3   9
ATOM      9  O   UNL     1      -1.841  11.338  19.222  0.00  0.00    +0.000 OA
ATOM     10  H   UNL     1      -2.423  12.033  18.871  0.00  0.00    +0.000 HD
ENDBRANCH   3   9
BRANCH   3  11
ATOM     11  C   UNL     1      -0.479  13.396  18.928  0.00  0.00    +0.000 C 
BRANCH  11  12
ATOM     12  N   UNL     1       0.079  14.490  19.763  0.00  0.00    +0.000 NA
ATOM     13  C   UNL     1      -0.936  15.474  20.143  0.00  0.00    +0.000 C 
BRANCH  12  14
ATOM     14  C   UNL     1       1.194  15.157  19.037  0.00  0.00    +0.000 C 
BRANCH  14  16
ATOM     15  C   UNL     1       2.614  13.810  20.660  0.00  0.00    +0.000 C 
ATOM     16  C   UNL     1       2.601  14.580  19.340  0.00  0.00    +0.000 C 
ATOM     17  C   UNL     1       3.097  13.684  18.201  0.00  0.00    +0.000 C 
ENDBRANCH  14  16
ENDBRANCH  12  14
ENDBRANCH  11  12
ENDBRANCH   3  11
ENDBRANCH   2   6
ENDBRANCH   1   2
BRANCH   1  18
ATOM     18  C   UNL     1       1.787   6.077  21.139  0.00  0.00    +0.000 C 
BRANCH  18  19
ATOM     19  C   UNL     1       1.744   4.945  20.160  0.00  0.00    +0.000 A 
ATOM     20  C   UNL     1       0.815   3.926  20.132  0.00  0.00    +0.000 A 
ATOM     21  N   UNL     1       1.111   3.103  19.080  0.00  0.00    +0.000 N 
ATOM     22  C   UNL     1       2.221   3.564  18.413  0.00  0.00    +0.000 A 
ATOM     23  C   UNL     1       2.869   3.053  17.283  0.00  0.00    +0.000 A 
ATOM     24  C   UNL     1       4.004   3.734  16.820  0.00  0.00    +0.000 A 
ATOM     25  C   UNL     1       4.476   4.885  17.463  0.00  0.00    +0.000 A 
ATOM     26  C   UNL     1       3.797   5.382  18.591  0.00  0.00    +0.000 A 
ATOM     27  C   UNL     1       2.650   4.713  19.074  0.00  0.00    +0.000 A 
ATOM     28  H   UNL     1       0.590   2.274  18.827  0.00  0.00    +0.000 HD
BRANCH  25  29
ATOM     29  N   UNL     1       5.636   5.552  16.981  0.00  0.00    +0.000 N 
ATOM     30  C   UNL     1       6.541   5.117  16.042  0.00  0.00    +0.000 A 
ATOM     31  N   UNL     1       7.482   6.014  15.853  0.00  0.00    +0.000 NA
ATOM     32  N   UNL     1       7.216   7.071  16.682  0.00  0.00    +0.000 NA
ATOM     33  C   UNL     1       6.117   6.785  17.348  0.00  0.00    +0.000 A 
ENDBRANCH  25  29
ENDBRANCH  18  19
ENDBRANCH   1  18
TORSDOF 10
ENDMDL
