MODEL 1
REMARK VINA RESULT:      -6.6      0.000      0.000
REMARK  Name = 
REMARK  1 active torsions:
REMARK  status: ('A' for Active; 'I' for Inactive)
REMARK    1  A    between atoms: C_2  and  C_3
REMARK                            x       y       z     vdW  Elec       q    Type
REMARK                         _______ _______ _______ _____ _____    ______ ____
ROOT
ATOM      1  C   UNL     1       6.286   4.816  16.438  0.00  0.00    +0.000 A 
ATOM      2  C   UNL     1       6.922   5.293  17.641  0.00  0.00    +0.000 A 
ATOM      3  C   UNL     1       6.290   5.205  18.819  0.00  0.00    +0.000 A 
ATOM      4  C   UNL     1       4.928   4.596  18.903  0.00  0.00    +0.000 A 
ATOM      5  N   UNL     1       4.350   4.508  20.063  0.00  0.00    +0.000 NA
ATOM      6  C   UNL     1       3.109   3.936  20.078  0.00  0.00    +0.000 A 
ATOM      7  C   UNL     1       2.454   3.486  19.009  0.00  0.00    +0.000 A 
ATOM      8  C   UNL     1       3.081   3.595  17.678  0.00  0.00    +0.000 A 
ATOM      9  O   UNL     1       2.509   3.216  16.656  0.00  0.00    +0.000 OA
ATOM     10  N   UNL     1       4.362   4.158  17.700  0.00  0.00    +0.000 N 
ATOM     11  C   UNL     1       5.055   4.285  16.500  0.00  0.00    +0.000 A 
ATOM     12  S   UNL     1       0.910   2.804  19.300  0.00  0.00    +0.000 S 
ATOM     13  C   UNL     1       1.086   2.982  21.108  0.00  0.00    +0.000 C 
ATOM     14  C   UNL     1       2.379   3.763  21.376  0.00  0.00    +0.000 C 
ENDROOT
BRANCH   1  16
ATOM     15  N   UNL     1       7.510   5.117  13.959  0.00  0.00    +0.000 NA
ATOM     16  C   UNL     1       6.955   4.981  15.083  0.00  0.00    +0.000 C 
ENDBRANCH   1  16
TORSDOF 1
ENDMDL
MODEL 2
REMARK VINA RESULT:      -6.6      1.544      1.615
REMARK  Name = 
REMARK  1 active torsions:
REMARK  status: ('A' for Active; 'I' for Inactive)
REMARK    1  A    between atoms: C_2  and  C_3
REMARK                            x       y       z     vdW  Elec       q    Type
REMARK                         _______ _______ _______ _____ _____    ______ ____
ROOT
ATOM      1  C   UNL     1       5.479   4.711  15.356  0.00  0.00    +0.000 A 
ATOM      2  C   UNL     1       5.362   6.098  15.731  0.00  0.00    +0.000 A 
ATOM      3  C   UNL     1       4.683   6.444  16.833  0.00  0.00    +0.000 A 
ATOM      4  C   UNL     1       4.054   5.397  17.693  0.00  0.00    +0.000 A 
ATOM      5  N   UNL     1       3.419   5.764  18.765  0.00  0.00    +0.000 NA
ATOM      6  C   UNL     1       2.872   4.762  19.517  0.00  0.00    +0.000 A 
ATOM      7  C   UNL     1       2.926   3.463  19.227  0.00  0.00    +0.000 A 
ATOM      8  C   UNL     1       3.623   3.023  18.003  0.00  0.00    +0.000 A 
ATOM      9  O   UNL     1       3.683   1.838  17.678  0.00  0.00    +0.000 OA
ATOM     10  N   UNL     1       4.197   4.070  17.272  0.00  0.00    +0.000 N 
ATOM     11  C   UNL     1       4.902   3.764  16.111  0.00  0.00    +0.000 A 
ATOM     12  S   UNL     1       2.163   2.407  20.339  0.00  0.00    +0.000 S 
ATOM     13  C   UNL     1       1.760   3.774  21.480  0.00  0.00    +0.000 C 
ATOM     14  C   UNL     1       2.147   5.088  20.788  0.00  0.00    +0.000 C 
ENDROOT
BRANCH   1  16
ATOM     15  N   UNL     1       6.756   3.972  12.999  0.00  0.00    +0.000 NA
ATOM     16  C   UNL     1       6.177   4.307  14.067  0.00  0.00    +0.000 C 
ENDBRANCH   1  16
TORSDOF 1
ENDMDL
MODEL 3
REMARK VINA RESULT:      -6.6      2.628      5.997
REMARK  Name = 
REMARK  1 active torsions:
REMARK  status: ('A' for Active; 'I' for Inactive)
REMARK    1  A    between atoms: C_2  and  C_3
REMARK                            x       y       z     vdW  Elec       q    Type
REMARK                         _______ _______ _______ _____ _____    ______ ____
ROOT
ATOM      1  C   UNL     1       2.120   2.886  20.063  0.00  0.00    +0.000 A 
ATOM      2  C   UNL     1       1.359   2.661  18.860  0.00  0.00    +0.000 A 
ATOM      3  C   UNL     1       1.885   2.955  17.663  0.00  0.00    +0.000 A 
ATOM      4  C   UNL     1       3.271   3.503  17.562  0.00  0.00    +0.000 A 
ATOM      5  N   UNL     1       3.760   3.761  16.386  0.00  0.00    +0.000 NA
ATOM      6  C   UNL     1       5.035   4.252  16.355  0.00  0.00    +0.000 A 
ATOM      7  C   UNL     1       5.792   4.500  17.423  0.00  0.00    +0.000 A 
ATOM      8  C   UNL     1       5.251   4.236  18.770  0.00  0.00    +0.000 A 
ATOM      9  O   UNL     1       5.900   4.468  19.789  0.00  0.00    +0.000 OA
ATOM     10  N   UNL     1       3.956   3.705  18.765  0.00  0.00    +0.000 N 
ATOM     11  C   UNL     1       3.358   3.395  19.984  0.00  0.00    +0.000 A 
ATOM     12  S   UNL     1       7.362   5.110  17.112  0.00  0.00    +0.000 S 
ATOM     13  C   UNL     1       7.148   4.958  15.306  0.00  0.00    +0.000 C 
ATOM     14  C   UNL     1       5.693   4.549  15.041  0.00  0.00    +0.000 C 
ENDROOT
BRANCH   1  16
ATOM     15  N   UNL     1       1.002   2.422  22.567  0.00  0.00    +0.000 NA
ATOM     16  C   UNL     1       1.509   2.632  21.431  0.00  0.00    +0.000 C 
ENDBRANCH   1  16
TORSDOF 1
ENDMDL
MODEL 4
REMARK VINA RESULT:      -6.2      2.182      2.844
REMARK  Name = 
REMARK  1 active torsions:
REMARK  status: ('A' for Active; 'I' for Inactive)
REMARK    1  A    between atoms: C_2  and  C_3
REMARK                            x       y       z     vdW  Elec       q    Type
REMARK                         _______ _______ _______ _____ _____    ______ ____
ROOT
ATOM      1  C   UNL     1       6.630   6.609  17.432  0.00  0.00    +0.000 A 
ATOM      2  C   UNL     1       7.018   5.521  16.570  0.00  0.00    +0.000 A 
ATOM      3  C   UNL     1       6.269   4.412  16.504  0.00  0.00    +0.000 A 
ATOM      4  C   UNL     1       5.015   4.298  17.309  0.00  0.00    +0.000 A 
ATOM      5  N   UNL     1       4.301   3.218  17.208  0.00  0.00    +0.000 NA
ATOM      6  C   UNL     1       3.161   3.175  17.962  0.00  0.00    +0.000 A 
ATOM      7  C   UNL     1       2.747   4.133  18.790  0.00  0.00    +0.000 A 
ATOM      8  C   UNL     1       3.553   5.360  18.937  0.00  0.00    +0.000 A 
ATOM      9  O   UNL     1       3.227   6.265  19.704  0.00  0.00    +0.000 OA
ATOM     10  N   UNL     1       4.696   5.385  18.130  0.00  0.00    +0.000 N 
ATOM     11  C   UNL     1       5.516   6.510  18.173  0.00  0.00    +0.000 A 
ATOM     12  S   UNL     1       1.276   3.835  19.616  0.00  0.00    +0.000 S 
ATOM     13  C   UNL     1       1.005   2.263  18.727  0.00  0.00    +0.000 C 
ATOM     14  C   UNL     1       2.257   1.981  17.887  0.00  0.00    +0.000 C 
ENDROOT
BRANCH   1  16
ATOM     15  N   UNL     1       8.240   8.861  17.700  0.00  0.00    +0.000 NA
ATOM     16  C   UNL     1       7.510   7.840  17.578  0.00  0.00    +0.000 C 
ENDBRANCH   1  16
TORSDOF 1
ENDMDL
MODEL 5
REMARK VINA RESULT:      -5.9      2.544      5.654
REMARK  Name = 
REMARK  1 active torsions:
REMARK  status: ('A' for Active; 'I' for Inactive)
REMARK    1  A    between atoms: C_2  and  C_3
REMARK                            x       y       z     vdW  Elec       q    Type
REMARK                         _______ _______ _______ _____ _____    ______ ____
ROOT
ATOM      1  C   UNL     1       2.039   3.814  20.649  0.00  0.00    +0.000 A 
ATOM      2  C   UNL     1       1.894   5.247  20.710  0.00  0.00    +0.000 A 
ATOM      3  C   UNL     1       2.497   6.026  19.802  0.00  0.00    +0.000 A 
ATOM      4  C   UNL     1       3.312   5.420  18.707  0.00  0.00    +0.000 A 
ATOM      5  N   UNL     1       3.868   6.201  17.832  0.00  0.00    +0.000 NA
ATOM      6  C   UNL     1       4.595   5.589  16.850  0.00  0.00    +0.000 A 
ATOM      7  C   UNL     1       4.786   4.276  16.737  0.00  0.00    +0.000 A 
ATOM      8  C   UNL     1       4.182   3.368  17.731  0.00  0.00    +0.000 A 
ATOM      9  O   UNL     1       4.346   2.150  17.685  0.00  0.00    +0.000 OA
ATOM     10  N   UNL     1       3.421   4.024  18.706  0.00  0.00    +0.000 N 
ATOM     11  C   UNL     1       2.785   3.260  19.680  0.00  0.00    +0.000 A 
ATOM     12  S   UNL     1       5.735   3.761  15.407  0.00  0.00    +0.000 S 
ATOM     13  C   UNL     1       5.875   5.458  14.750  0.00  0.00    +0.000 C 
ATOM     14  C   UNL     1       5.247   6.409  15.777  0.00  0.00    +0.000 C 
ENDROOT
BRANCH   1  16
ATOM     15  N   UNL     1       0.921   2.180  22.601  0.00  0.00    +0.000 NA
ATOM     16  C   UNL     1       1.428   2.921  21.716  0.00  0.00    +0.000 C 
ENDBRANCH   1  16
TORSDOF 1
ENDMDL
MODEL 6
REMARK VINA RESULT:      -5.9      3.849      5.723
REMARK  Name = 
REMARK  1 active torsions:
REMARK  status: ('A' for Active; 'I' for Inactive)
REMARK    1  A    between atoms: C_2  and  C_3
REMARK                            x       y       z     vdW  Elec       q    Type
REMARK                         _______ _______ _______ _____ _____    ______ ____
ROOT
ATOM      1  C   UNL     1       1.390   8.535  20.400  0.00  0.00    +0.000 A 
ATOM      2  C   UNL     1       1.690   8.967  19.058  0.00  0.00    +0.000 A 
ATOM      3  C   UNL     1       2.216   8.107  18.175  0.00  0.00    +0.000 A 
ATOM      4  C   UNL     1       2.480   6.690  18.564  0.00  0.00    +0.000 A 
ATOM      5  N   UNL     1       2.973   5.877  17.679  0.00  0.00    +0.000 NA
ATOM      6  C   UNL     1       3.186   4.591  18.091  0.00  0.00    +0.000 A 
ATOM      7  C   UNL     1       2.947   4.124  19.315  0.00  0.00    +0.000 A 
ATOM      8  C   UNL     1       2.408   5.033  20.344  0.00  0.00    +0.000 A 
ATOM      9  O   UNL     1       2.191   4.658  21.495  0.00  0.00    +0.000 OA
ATOM     10  N   UNL     1       2.173   6.334  19.882  0.00  0.00    +0.000 N 
ATOM     11  C   UNL     1       1.641   7.268  20.766  0.00  0.00    +0.000 A 
ATOM     12  S   UNL     1       3.296   2.467  19.573  0.00  0.00    +0.000 S 
ATOM     13  C   UNL     1       3.734   2.205  17.821  0.00  0.00    +0.000 C 
ATOM     14  C   UNL     1       3.722   3.574  17.128  0.00  0.00    +0.000 C 
ENDROOT
BRANCH   1  16
ATOM     15  N   UNL     1       0.435  10.329  22.298  0.00  0.00    +0.000 NA
ATOM     16  C   UNL     1       0.868   9.515  21.437  0.00  0.00    +0.000 C 
ENDBRANCH   1  16
TORSDOF 1
ENDMDL
MODEL 7
REMARK VINA RESULT:      -5.7      4.223      6.338
REMARK  Name = 
REMARK  1 active torsions:
REMARK  status: ('A' for Active; 'I' for Inactive)
REMARK    1  A    between atoms: C_2  and  C_3
REMARK                            x       y       z     vdW  Elec       q    Type
REMARK                         _______ _______ _______ _____ _____    ______ ____
ROOT
ATOM      1  C   UNL     1       0.821   8.671  20.758  0.00  0.00    +0.000 A 
ATOM      2  C   UNL     1       1.068   9.493  19.599  0.00  0.00    +0.000 A 
ATOM      3  C   UNL     1       1.847   9.043  18.607  0.00  0.00    +0.000 A 
ATOM      4  C   UNL     1       2.455   7.680  18.681  0.00  0.00    +0.000 A 
ATOM      5  N   UNL     1       3.190   7.266  17.694  0.00  0.00    +0.000 NA
ATOM      6  C   UNL     1       3.712   6.008  17.815  0.00  0.00    +0.000 A 
ATOM      7  C   UNL     1       3.540   5.199  18.859  0.00  0.00    +0.000 A 
ATOM      8  C   UNL     1       2.727   5.655  20.002  0.00  0.00    +0.000 A 
ATOM      9  O   UNL     1       2.555   4.956  20.999  0.00  0.00    +0.000 OA
ATOM     10  N   UNL     1       2.183   6.934  19.834  0.00  0.00    +0.000 N 
ATOM     11  C   UNL     1       1.377   7.453  20.843  0.00  0.00    +0.000 A 
ATOM     12  S   UNL     1       4.298   3.666  18.760  0.00  0.00    +0.000 S 
ATOM     13  C   UNL     1       4.882   3.978  17.059  0.00  0.00    +0.000 C 
ATOM     14  C   UNL     1       4.547   5.434  16.710  0.00  0.00    +0.000 C 
ENDROOT
BRANCH   1  16
ATOM     15  N   UNL     1      -0.672   9.633  22.898  0.00  0.00    +0.000 NA
ATOM     16  C   UNL     1       0.005   9.197  21.927  0.00  0.00    +0.000 C 
ENDBRANCH   1  16
TORSDOF 1
ENDMDL
MODEL 8
REMARK VINA RESULT:      -5.7      3.306      4.676
REMARK  Name = 
REMARK  1 active torsions:
REMARK  status: ('A' for Active; 'I' for Inactive)
REMARK    1  A    between atoms: C_2  and  C_3
REMARK                            x       y       z     vdW  Elec       q    Type
REMARK                         _______ _______ _______ _____ _____    ______ ____
ROOT
ATOM      1  C   UNL     1       5.374   3.775  12.792  0.00  0.00    +0.000 A 
ATOM      2  C   UNL     1       6.676   4.335  12.528  0.00  0.00    +0.000 A 
ATOM      3  C   UNL     1       7.394   4.872  13.523  0.00  0.00    +0.000 A 
ATOM      4  C   UNL     1       6.862   4.882  14.919  0.00  0.00    +0.000 A 
ATOM      5  N   UNL     1       7.591   5.393  15.865  0.00  0.00    +0.000 NA
ATOM      6  C   UNL     1       7.056   5.367  17.122  0.00  0.00    +0.000 A 
ATOM      7  C   UNL     1       5.857   4.881  17.440  0.00  0.00    +0.000 A 
ATOM      8  C   UNL     1       5.002   4.315  16.380  0.00  0.00    +0.000 A 
ATOM      9  O   UNL     1       3.878   3.874  16.616  0.00  0.00    +0.000 OA
ATOM     10  N   UNL     1       5.591   4.330  15.110  0.00  0.00    +0.000 N 
ATOM     11  C   UNL     1       4.879   3.796  14.039  0.00  0.00    +0.000 A 
ATOM     12  S   UNL     1       5.423   4.962  19.095  0.00  0.00    +0.000 S 
ATOM     13  C   UNL     1       7.054   5.628  19.571  0.00  0.00    +0.000 C 
ATOM     14  C   UNL     1       7.838   5.906  18.282  0.00  0.00    +0.000 C 
ENDROOT
BRANCH   1  16
ATOM     15  N   UNL     1       3.800   2.785  10.725  0.00  0.00    +0.000 NA
ATOM     16  C   UNL     1       4.514   3.234  11.662  0.00  0.00    +0.000 C 
ENDBRANCH   1  16
TORSDOF 1
ENDMDL
MODEL 9
REMARK VINA RESULT:      -5.6      4.664      4.891
REMARK  Name = 
REMARK  1 active torsions:
REMARK  status: ('A' for Active; 'I' for Inactive)
REMARK    1  A    between atoms: C_2  and  C_3
REMARK                            x       y       z     vdW  Elec       q    Type
REMARK                         _______ _______ _______ _____ _____    ______ ____
ROOT
ATOM      1  C   UNL     1       4.122   6.276  17.432  0.00  0.00    +0.000 A 
ATOM      2  C   UNL     1       4.013   5.384  18.559  0.00  0.00    +0.000 A 
ATOM      3  C   UNL     1       3.246   5.712  19.608  0.00  0.00    +0.000 A 
ATOM      4  C   UNL     1       2.484   6.996  19.614  0.00  0.00    +0.000 A 
ATOM      5  N   UNL     1       1.735   7.277  20.638  0.00  0.00    +0.000 NA
ATOM      6  C   UNL     1       1.055   8.461  20.584  0.00  0.00    +0.000 A 
ATOM      7  C   UNL     1       1.118   9.341  19.586  0.00  0.00    +0.000 A 
ATOM      8  C   UNL     1       1.978   9.056  18.422  0.00  0.00    +0.000 A 
ATOM      9  O   UNL     1       2.089   9.845  17.485  0.00  0.00    +0.000 OA
ATOM     10  N   UNL     1       2.637   7.822  18.495  0.00  0.00    +0.000 N 
ATOM     11  C   UNL     1       3.456   7.441  17.436  0.00  0.00    +0.000 A 
ATOM     12  S   UNL     1       0.161  10.751  19.759  0.00  0.00    +0.000 S 
ATOM     13  C   UNL     1      -0.578  10.152  21.317  0.00  0.00    +0.000 C 
ATOM     14  C   UNL     1       0.142   8.854  21.706  0.00  0.00    +0.000 C 
ENDROOT
BRANCH   1  16
ATOM     15  N   UNL     1       5.817   5.691  15.306  0.00  0.00    +0.000 NA
ATOM     16  C   UNL     1       5.049   5.956  16.270  0.00  0.00    +0.000 C 
ENDBRANCH   1  16
TORSDOF 1
ENDMDL
