MODEL 1
REMARK VINA RESULT:      -8.5      0.000      0.000
REMARK  Name = 
REMARK  10 active torsions:
REMARK  status: ('A' for Active; 'I' for Inactive)
REMARK    1  A    between atoms: C_1  and  O_2
REMARK    2  A    between atoms: O_2  and  C_3
REMARK    3  A    between atoms: C_5  and  C_6
REMARK    4  A    between atoms: N_8  and  C_9
REMARK    5  A    between atoms: N_17  and  C_18
REMARK    6  A    between atoms: C_18  and  C_19
REMARK    7  A    between atoms: C_29  and  O_30
REMARK    8  A    between atoms: O_30  and  C_31
REMARK    9  A    between atoms: C_32  and  O_33
REMARK   10  A    between atoms: O_33  and  C_34
REMARK                            x       y       z     vdW  Elec       q    Type
REMARK                         _______ _______ _______ _____ _____    ______ ____
ROOT
ATOM      1  C   UNL     1       0.757  10.415  19.457  0.00  0.00    +0.000 C 
ATOM      2  C   UNL     1      -0.697  10.399  18.983  0.00  0.00    +0.000 C 
ATOM      3  C   UNL     1      -1.388  11.772  19.108  0.00  0.00    +0.000 C 
ATOM      4  C   UNL     1      -0.826  12.810  18.114  0.00  0.00    +0.000 C 
ATOM      5  C   UNL     1       0.510  13.441  18.510  0.00  0.00    +0.000 C 
ATOM      6  C   UNL     1       0.728  13.579  20.016  0.00  0.00    +0.000 C 
ATOM      7  C   UNL     1       0.092  12.469  20.870  0.00  0.00    +0.000 C 
ATOM      8  C   UNL     1       0.868  11.129  20.808  0.00  0.00    +0.000 C 
ATOM      9  N   UNL     1      -1.321  12.230  20.512  0.00  0.00    +0.000 NA
ENDROOT
BRANCH   1  12
ATOM     10  C   UNL     1       1.990   8.488  18.467  0.00  0.00    +0.000 C 
ATOM     11  O   UNL     1       2.186   9.054  17.400  0.00  0.00    +0.000 OA
ATOM     12  N   UNL     1       1.285   9.050  19.513  0.00  0.00    +0.000 N 
ATOM     13  H   UNL     1       1.351   8.618  20.425  0.00  0.00    +0.000 HD
BRANCH  10  16
ATOM     14  C   UNL     1       4.306   5.519  18.182  0.00  0.00    +0.000 A 
ATOM     15  C   UNL     1       3.600   6.699  17.887  0.00  0.00    +0.000 A 
ATOM     16  C   UNL     1       2.582   7.147  18.725  0.00  0.00    +0.000 A 
ATOM     17  C   UNL     1       2.184   6.349  19.794  0.00  0.00    +0.000 A 
ATOM     18  C   UNL     1       2.821   5.122  20.059  0.00  0.00    +0.000 A 
ATOM     19  C   UNL     1       3.899   4.692  19.252  0.00  0.00    +0.000 A 
BRANCH  14  21
ATOM     20  C   UNL     1       5.074   4.689  16.102  0.00  0.00    +0.000 C 
ATOM     21  O   UNL     1       5.386   5.164  17.414  0.00  0.00    +0.000 OA
ENDBRANCH  14  21
BRANCH  18  22
ATOM     22  O   UNL     1       2.265   4.505  21.154  0.00  0.00    +0.000 OA
ATOM     23  C   UNL     1       1.226   3.554  20.973  0.00  0.00    +0.000 C 
ENDBRANCH  18  22
BRANCH  19  24
ATOM     24  O   UNL     1       4.449   3.484  19.587  0.00  0.00    +0.000 OA
ATOM     25  C   UNL     1       3.991   2.277  19.001  0.00  0.00    +0.000 C 
ENDBRANCH  19  24
ENDBRANCH  10  16
ENDBRANCH   1  12
BRANCH   9  26
ATOM     26  C   UNL     1      -2.226  13.392  20.735  0.00  0.00    +0.000 C 
BRANCH  26  27
ATOM     27  C   UNL     1      -3.608  13.074  21.225  0.00  0.00    +0.000 A 
ATOM     28  N   UNL     1      -4.617  12.592  20.518  0.00  0.00    +0.000 NA
ATOM     29  C   UNL     1      -5.630  12.483  21.430  0.00  0.00    +0.000 A 
ATOM     30  C   UNL     1      -6.957  12.070  21.278  0.00  0.00    +0.000 A 
ATOM     31  C   UNL     1      -7.790  12.084  22.402  0.00  0.00    +0.000 A 
ATOM     32  C   UNL     1      -7.302  12.482  23.654  0.00  0.00    +0.000 A 
ATOM     33  C   UNL     1      -5.969  12.883  23.828  0.00  0.00    +0.000 A 
ATOM     34  C   UNL     1      -5.182  12.876  22.682  0.00  0.00    +0.000 A 
ATOM     35  O   UNL     1      -3.873  13.249  22.562  0.00  0.00    +0.000 OA
ENDBRANCH  26  27
ENDBRANCH   9  26
TORSDOF 7
ENDMDL
MODEL 2
REMARK VINA RESULT:      -8.4      0.688      1.082
REMARK  Name = 
REMARK  10 active torsions:
REMARK  status: ('A' for Active; 'I' for Inactive)
REMARK    1  A    between atoms: C_1  and  O_2
REMARK    2  A    between atoms: O_2  and  C_3
REMARK    3  A    between atoms: C_5  and  C_6
REMARK    4  A    between atoms: N_8  and  C_9
REMARK    5  A    between atoms: N_17  and  C_18
REMARK    6  A    between atoms: C_18  and  C_19
REMARK    7  A    between atoms: C_29  and  O_30
REMARK    8  A    between atoms: O_30  and  C_31
REMARK    9  A    between atoms: C_32  and  O_33
REMARK   10  A    between atoms: O_33  and  C_34
REMARK                            x       y       z     vdW  Elec       q    Type
REMARK                         _______ _______ _______ _____ _____    ______ ____
ROOT
ATOM      1  C   UNL     1       0.737  10.475  19.455  0.00  0.00    +0.000 C 
ATOM      2  C   UNL     1      -0.707  10.476  18.948  0.00  0.00    +0.000 C 
ATOM      3  C   UNL     1      -1.397  11.848  19.095  0.00  0.00    +0.000 C 
ATOM      4  C   UNL     1      -0.810  12.910  18.142  0.00  0.00    +0.000 C 
ATOM      5  C   UNL     1       0.518  13.526  18.584  0.00  0.00    +0.000 C 
ATOM      6  C   UNL     1       0.703  13.623  20.098  0.00  0.00    +0.000 C 
ATOM      7  C   UNL     1       0.045  12.492  20.907  0.00  0.00    +0.000 C 
ATOM      8  C   UNL     1       0.820  11.152  20.827  0.00  0.00    +0.000 C 
ATOM      9  N   UNL     1      -1.359  12.267  20.512  0.00  0.00    +0.000 NA
ENDROOT
BRANCH   1  12
ATOM     10  C   UNL     1       1.980   8.569  18.439  0.00  0.00    +0.000 C 
ATOM     11  O   UNL     1       2.197   9.161  17.390  0.00  0.00    +0.000 OA
ATOM     12  N   UNL     1       1.260   9.107  19.486  0.00  0.00    +0.000 N 
ATOM     13  H   UNL     1       1.308   8.652  20.388  0.00  0.00    +0.000 HD
BRANCH  10  16
ATOM     14  C   UNL     1       4.238   5.567  18.057  0.00  0.00    +0.000 A 
ATOM     15  C   UNL     1       3.537   6.755  17.791  0.00  0.00    +0.000 A 
ATOM     16  C   UNL     1       2.564   7.220  18.673  0.00  0.00    +0.000 A 
ATOM     17  C   UNL     1       2.204   6.430  19.761  0.00  0.00    +0.000 A 
ATOM     18  C   UNL     1       2.834   5.195  20.001  0.00  0.00    +0.000 A 
ATOM     19  C   UNL     1       3.868   4.748  19.147  0.00  0.00    +0.000 A 
BRANCH  14  21
ATOM     20  C   UNL     1       5.961   6.269  16.593  0.00  0.00    +0.000 C 
ATOM     21  O   UNL     1       5.277   5.194  17.241  0.00  0.00    +0.000 OA
ENDBRANCH  14  21
BRANCH  18  22
ATOM     22  O   UNL     1       2.319   4.589  21.121  0.00  0.00    +0.000 OA
ATOM     23  C   UNL     1       1.241   3.672  20.993  0.00  0.00    +0.000 C 
ENDBRANCH  18  22
BRANCH  19  24
ATOM     24  O   UNL     1       4.416   3.532  19.459  0.00  0.00    +0.000 OA
ATOM     25  C   UNL     1       3.901   2.329  18.914  0.00  0.00    +0.000 C 
ENDBRANCH  19  24
ENDBRANCH  10  16
ENDBRANCH   1  12
BRANCH   9  26
ATOM     26  C   UNL     1      -2.266  13.427  20.747  0.00  0.00    +0.000 C 
BRANCH  26  27
ATOM     27  C   UNL     1      -3.640  13.103  21.256  0.00  0.00    +0.000 A 
ATOM     28  N   UNL     1      -4.131  13.363  22.456  0.00  0.00    +0.000 NA
ATOM     29  C   UNL     1      -5.407  12.874  22.399  0.00  0.00    +0.000 A 
ATOM     30  C   UNL     1      -6.410  12.818  23.371  0.00  0.00    +0.000 A 
ATOM     31  C   UNL     1      -7.632  12.229  23.031  0.00  0.00    +0.000 A 
ATOM     32  C   UNL     1      -7.854  11.724  21.743  0.00  0.00    +0.000 A 
ATOM     33  C   UNL     1      -6.865  11.787  20.750  0.00  0.00    +0.000 A 
ATOM     34  C   UNL     1      -5.658  12.360  21.136  0.00  0.00    +0.000 A 
ATOM     35  O   UNL     1      -4.526  12.515  20.386  0.00  0.00    +0.000 OA
ENDBRANCH  26  27
ENDBRANCH   9  26
TORSDOF 7
ENDMDL
MODEL 3
REMARK VINA RESULT:      -8.2      0.580      2.225
REMARK  Name = 
REMARK  10 active torsions:
REMARK  status: ('A' for Active; 'I' for Inactive)
REMARK    1  A    between atoms: C_1  and  O_2
REMARK    2  A    between atoms: O_2  and  C_3
REMARK    3  A    between atoms: C_5  and  C_6
REMARK    4  A    between atoms: N_8  and  C_9
REMARK    5  A    between atoms: N_17  and  C_18
REMARK    6  A    between atoms: C_18  and  C_19
REMARK    7  A    between atoms: C_29  and  O_30
REMARK    8  A    between atoms: O_30  and  C_31
REMARK    9  A    between atoms: C_32  and  O_33
REMARK   10  A    between atoms: O_33  and  C_34
REMARK                            x       y       z     vdW  Elec       q    Type
REMARK                         _______ _______ _______ _____ _____    ______ ____
ROOT
ATOM      1  C   UNL     1       0.838  10.435  19.646  0.00  0.00    +0.000 C 
ATOM      2  C   UNL     1      -0.212  10.668  18.557  0.00  0.00    +0.000 C 
ATOM      3  C   UNL     1      -0.951  12.013  18.709  0.00  0.00    +0.000 C 
ATOM      4  C   UNL     1      -0.039  13.224  18.421  0.00  0.00    +0.000 C 
ATOM      5  C   UNL     1       0.911  13.613  19.554  0.00  0.00    +0.000 C 
ATOM      6  C   UNL     1       0.379  13.331  20.958  0.00  0.00    +0.000 C 
ATOM      7  C   UNL     1      -0.527  12.094  21.074  0.00  0.00    +0.000 C 
ATOM      8  C   UNL     1       0.254  10.757  21.025  0.00  0.00    +0.000 C 
ATOM      9  N   UNL     1      -1.584  12.078  20.043  0.00  0.00    +0.000 NA
ENDROOT
BRANCH   1  12
ATOM     10  C   UNL     1       2.059   8.599  18.484  0.00  0.00    +0.000 C 
ATOM     11  O   UNL     1       2.279   9.266  17.482  0.00  0.00    +0.000 OA
ATOM     12  N   UNL     1       1.347   9.063  19.572  0.00  0.00    +0.000 N 
ATOM     13  H   UNL     1       1.393   8.542  20.437  0.00  0.00    +0.000 HD
BRANCH  10  16
ATOM     14  C   UNL     1       2.605   5.091  19.770  0.00  0.00    +0.000 A 
ATOM     15  C   UNL     1       2.228   6.443  19.690  0.00  0.00    +0.000 A 
ATOM     16  C   UNL     1       2.629   7.230  18.614  0.00  0.00    +0.000 A 
ATOM     17  C   UNL     1       3.512   6.698  17.677  0.00  0.00    +0.000 A 
ATOM     18  C   UNL     1       3.970   5.372  17.784  0.00  0.00    +0.000 A 
ATOM     19  C   UNL     1       3.515   4.546  18.838  0.00  0.00    +0.000 A 
BRANCH  14  21
ATOM     20  C   UNL     1       0.888   3.609  20.449  0.00  0.00    +0.000 C 
ATOM     21  O   UNL     1       2.095   4.303  20.772  0.00  0.00    +0.000 OA
ENDBRANCH  14  21
BRANCH  18  22
ATOM     22  O   UNL     1       4.831   5.064  16.759  0.00  0.00    +0.000 OA
ATOM     23  C   UNL     1       5.235   6.079  15.851  0.00  0.00    +0.000 C 
ENDBRANCH  18  22
BRANCH  19  24
ATOM     24  O   UNL     1       4.021   3.274  18.859  0.00  0.00    +0.000 OA
ATOM     25  C   UNL     1       3.382   2.214  18.168  0.00  0.00    +0.000 C 
ENDBRANCH  19  24
ENDBRANCH  10  16
ENDBRANCH   1  12
BRANCH   9  26
ATOM     26  C   UNL     1      -2.547  13.213  20.119  0.00  0.00    +0.000 C 
BRANCH  26  27
ATOM     27  C   UNL     1      -3.834  12.947  20.843  0.00  0.00    +0.000 A 
ATOM     28  N   UNL     1      -4.945  12.436  20.339  0.00  0.00    +0.000 NA
ATOM     29  C   UNL     1      -5.799  12.400  21.407  0.00  0.00    +0.000 A 
ATOM     30  C   UNL     1      -7.135  11.998  21.497  0.00  0.00    +0.000 A 
ATOM     31  C   UNL     1      -7.775  12.094  22.737  0.00  0.00    +0.000 A 
ATOM     32  C   UNL     1      -7.090  12.562  23.866  0.00  0.00    +0.000 A 
ATOM     33  C   UNL     1      -5.745  12.952  23.798  0.00  0.00    +0.000 A 
ATOM     34  C   UNL     1      -5.153  12.862  22.543  0.00  0.00    +0.000 A 
ATOM     35  O   UNL     1      -3.878  13.208  22.191  0.00  0.00    +0.000 OA
ENDBRANCH  26  27
ENDBRANCH   9  26
TORSDOF 7
ENDMDL
MODEL 4
REMARK VINA RESULT:      -8.2      0.722      2.382
REMARK  Name = 
REMARK  10 active torsions:
REMARK  status: ('A' for Active; 'I' for Inactive)
REMARK    1  A    between atoms: C_1  and  O_2
REMARK    2  A    between atoms: O_2  and  C_3
REMARK    3  A    between atoms: C_5  and  C_6
REMARK    4  A    between atoms: N_8  and  C_9
REMARK    5  A    between atoms: N_17  and  C_18
REMARK    6  A    between atoms: C_18  and  C_19
REMARK    7  A    between atoms: C_29  and  O_30
REMARK    8  A    between atoms: O_30  and  C_31
REMARK    9  A    between atoms: C_32  and  O_33
REMARK   10  A    between atoms: O_33  and  C_34
REMARK                            x       y       z     vdW  Elec       q    Type
REMARK                         _______ _______ _______ _____ _____    ______ ____
ROOT
ATOM      1  C   UNL     1       0.871  10.351  19.411  0.00  0.00    +0.000 C 
ATOM      2  C   UNL     1      -0.456  10.415  18.652  0.00  0.00    +0.000 C 
ATOM      3  C   UNL     1      -1.152  11.787  18.768  0.00  0.00    +0.000 C 
ATOM      4  C   UNL     1      -0.394  12.900  18.014  0.00  0.00    +0.000 C 
ATOM      5  C   UNL     1       0.836  13.458  18.731  0.00  0.00    +0.000 C 
ATOM      6  C   UNL     1       0.743  13.448  20.257  0.00  0.00    +0.000 C 
ATOM      7  C   UNL     1      -0.059  12.279  20.852  0.00  0.00    +0.000 C 
ATOM      8  C   UNL     1       0.708  10.932  20.819  0.00  0.00    +0.000 C 
ATOM      9  N   UNL     1      -1.370  12.109  20.194  0.00  0.00    +0.000 NA
ENDROOT
BRANCH   1  12
ATOM     10  C   UNL     1       2.105   8.434  18.403  0.00  0.00    +0.000 C 
ATOM     11  O   UNL     1       2.356   9.032  17.366  0.00  0.00    +0.000 OA
ATOM     12  N   UNL     1       1.370   8.974  19.440  0.00  0.00    +0.000 N 
ATOM     13  H   UNL     1       1.390   8.510  20.338  0.00  0.00    +0.000 HD
BRANCH  10  16
ATOM     14  C   UNL     1       2.713   5.083  20.035  0.00  0.00    +0.000 A 
ATOM     15  C   UNL     1       2.355   6.427  19.833  0.00  0.00    +0.000 A 
ATOM     16  C   UNL     1       2.661   7.073  18.637  0.00  0.00    +0.000 A 
ATOM     17  C   UNL     1       3.435   6.411  17.688  0.00  0.00    +0.000 A 
ATOM     18  C   UNL     1       3.876   5.092  17.905  0.00  0.00    +0.000 A 
ATOM     19  C   UNL     1       3.515   4.408  19.088  0.00  0.00    +0.000 A 
BRANCH  14  21
ATOM     20  C   UNL     1       1.175   3.557  20.990  0.00  0.00    +0.000 C 
ATOM     21  O   UNL     1       2.293   4.431  21.167  0.00  0.00    +0.000 OA
ENDBRANCH  14  21
BRANCH  18  22
ATOM     22  O   UNL     1       4.625   4.643  16.844  0.00  0.00    +0.000 OA
ATOM     23  C   UNL     1       5.987   5.028  16.730  0.00  0.00    +0.000 C 
ENDBRANCH  18  22
BRANCH  19  24
ATOM     24  O   UNL     1       3.997   3.132  19.210  0.00  0.00    +0.000 OA
ATOM     25  C   UNL     1       3.367   2.040  18.561  0.00  0.00    +0.000 C 
ENDBRANCH  19  24
ENDBRANCH  10  16
ENDBRANCH   1  12
BRANCH   9  26
ATOM     26  C   UNL     1      -2.296  13.267  20.341  0.00  0.00    +0.000 C 
BRANCH  26  27
ATOM     27  C   UNL     1      -3.484  13.058  21.233  0.00  0.00    +0.000 A 
ATOM     28  N   UNL     1      -3.517  13.132  22.554  0.00  0.00    +0.000 NA
ATOM     29  C   UNL     1      -4.823  12.867  22.862  0.00  0.00    +0.000 A 
ATOM     30  C   UNL     1      -5.468  12.763  24.098  0.00  0.00    +0.000 A 
ATOM     31  C   UNL     1      -6.832  12.453  24.110  0.00  0.00    +0.000 A 
ATOM     32  C   UNL     1      -7.540  12.270  22.915  0.00  0.00    +0.000 A 
ATOM     33  C   UNL     1      -6.912  12.388  21.666  0.00  0.00    +0.000 A 
ATOM     34  C   UNL     1      -5.552  12.676  21.698  0.00  0.00    +0.000 A 
ATOM     35  O   UNL     1      -4.698  12.808  20.640  0.00  0.00    +0.000 OA
ENDBRANCH  26  27
ENDBRANCH   9  26
TORSDOF 7
ENDMDL
MODEL 5
REMARK VINA RESULT:      -7.9      1.613      1.967
REMARK  Name = 
REMARK  10 active torsions:
REMARK  status: ('A' for Active; 'I' for Inactive)
REMARK    1  A    between atoms: C_1  and  O_2
REMARK    2  A    between atoms: O_2  and  C_3
REMARK    3  A    between atoms: C_5  and  C_6
REMARK    4  A    between atoms: N_8  and  C_9
REMARK    5  A    between atoms: N_17  and  C_18
REMARK    6  A    between atoms: C_18  and  C_19
REMARK    7  A    between atoms: C_29  and  O_30
REMARK    8  A    between atoms: O_30  and  C_31
REMARK    9  A    between atoms: C_32  and  O_33
REMARK   10  A    between atoms: O_33  and  C_34
REMARK                            x       y       z     vdW  Elec       q    Type
REMARK                         _______ _______ _______ _____ _____    ______ ____
ROOT
ATOM      1  C   UNL     1       1.034  10.021  19.684  0.00  0.00    +0.000 C 
ATOM      2  C   UNL     1      -0.237  10.251  18.863  0.00  0.00    +0.000 C 
ATOM      3  C   UNL     1      -0.861  11.643  19.094  0.00  0.00    +0.000 C 
ATOM      4  C   UNL     1       0.004  12.781  18.514  0.00  0.00    +0.000 C 
ATOM      5  C   UNL     1       1.215  13.180  19.359  0.00  0.00    +0.000 C 
ATOM      6  C   UNL     1       1.025  13.008  20.866  0.00  0.00    +0.000 C 
ATOM      7  C   UNL     1       0.123  11.833  21.278  0.00  0.00    +0.000 C 
ATOM      8  C   UNL     1       0.814  10.453  21.137  0.00  0.00    +0.000 C 
ATOM      9  N   UNL     1      -1.151  11.819  20.532  0.00  0.00    +0.000 NA
ENDROOT
BRANCH   1  12
ATOM     10  C   UNL     1       2.175   8.141  18.511  0.00  0.00    +0.000 C 
ATOM     11  O   UNL     1       2.480   8.821  17.541  0.00  0.00    +0.000 OA
ATOM     12  N   UNL     1       1.452   8.621  19.585  0.00  0.00    +0.000 N 
ATOM     13  H   UNL     1       1.428   8.072  20.434  0.00  0.00    +0.000 HD
BRANCH  10  16
ATOM     14  C   UNL     1       4.055   4.961  17.729  0.00  0.00    +0.000 A 
ATOM     15  C   UNL     1       3.447   6.222  17.600  0.00  0.00    +0.000 A 
ATOM     16  C   UNL     1       2.647   6.734  18.619  0.00  0.00    +0.000 A 
ATOM     17  C   UNL     1       2.353   5.930  19.717  0.00  0.00    +0.000 A 
ATOM     18  C   UNL     1       2.882   4.631  19.827  0.00  0.00    +0.000 A 
ATOM     19  C   UNL     1       3.749   4.129  18.829  0.00  0.00    +0.000 A 
BRANCH  14  21
ATOM     20  C   UNL     1       6.315   4.814  17.037  0.00  0.00    +0.000 C 
ATOM     21  O   UNL     1       4.939   4.532  16.770  0.00  0.00    +0.000 OA
ENDBRANCH  14  21
BRANCH  18  22
ATOM     22  O   UNL     1       2.458   4.023  20.984  0.00  0.00    +0.000 OA
ATOM     23  C   UNL     1       1.259   3.261  20.979  0.00  0.00    +0.000 C 
ENDBRANCH  18  22
BRANCH  19  24
ATOM     24  O   UNL     1       4.208   2.854  19.023  0.00  0.00    +0.000 OA
ATOM     25  C   UNL     1       3.536   1.735  18.470  0.00  0.00    +0.000 C 
ENDBRANCH  19  24
ENDBRANCH  10  16
ENDBRANCH   1  12
BRANCH   9  26
ATOM     26  C   UNL     1      -2.018  13.009  20.757  0.00  0.00    +0.000 C 
BRANCH  26  27
ATOM     27  C   UNL     1      -3.417  12.924  20.220  0.00  0.00    +0.000 A 
ATOM     28  N   UNL     1      -4.448  13.684  20.549  0.00  0.00    +0.000 NA
ATOM     29  C   UNL     1      -5.469  13.198  19.778  0.00  0.00    +0.000 A 
ATOM     30  C   UNL     1      -6.816  13.566  19.706  0.00  0.00    +0.000 A 
ATOM     31  C   UNL     1      -7.649  12.865  18.828  0.00  0.00    +0.000 A 
ATOM     32  C   UNL     1      -7.143  11.834  18.025  0.00  0.00    +0.000 A 
ATOM     33  C   UNL     1      -5.791  11.464  18.071  0.00  0.00    +0.000 A 
ATOM     34  C   UNL     1      -5.003  12.170  18.973  0.00  0.00    +0.000 A 
ATOM     35  O   UNL     1      -3.675  11.993  19.243  0.00  0.00    +0.000 OA
ENDBRANCH  26  27
ENDBRANCH   9  26
TORSDOF 7
ENDMDL
MODEL 6
REMARK VINA RESULT:      -7.8      1.854      2.774
REMARK  Name = 
REMARK  10 active torsions:
REMARK  status: ('A' for Active; 'I' for Inactive)
REMARK    1  A    between atoms: C_1  and  O_2
REMARK    2  A    between atoms: O_2  and  C_3
REMARK    3  A    between atoms: C_5  and  C_6
REMARK    4  A    between atoms: N_8  and  C_9
REMARK    5  A    between atoms: N_17  and  C_18
REMARK    6  A    between atoms: C_18  and  C_19
REMARK    7  A    between atoms: C_29  and  O_30
REMARK    8  A    between atoms: O_30  and  C_31
REMARK    9  A    between atoms: C_32  and  O_33
REMARK   10  A    between atoms: O_33  and  C_34
REMARK                            x       y       z     vdW  Elec       q    Type
REMARK                         _______ _______ _______ _____ _____    ______ ____
ROOT
ATOM      1  C   UNL     1       1.377   9.716  19.571  0.00  0.00    +0.000 C 
ATOM      2  C   UNL     1       0.235  10.016  18.598  0.00  0.00    +0.000 C 
ATOM      3  C   UNL     1      -0.376  11.419  18.798  0.00  0.00    +0.000 C 
ATOM      4  C   UNL     1       0.591  12.548  18.385  0.00  0.00    +0.000 C 
ATOM      5  C   UNL     1       1.688  12.876  19.399  0.00  0.00    +0.000 C 
ATOM      6  C   UNL     1       1.292  12.658  20.859  0.00  0.00    +0.000 C 
ATOM      7  C   UNL     1       0.310  11.499  21.100  0.00  0.00    +0.000 C 
ATOM      8  C   UNL     1       0.975  10.103  20.998  0.00  0.00    +0.000 C 
ATOM      9  N   UNL     1      -0.852  11.553  20.190  0.00  0.00    +0.000 NA
ENDROOT
BRANCH   1  12
ATOM     10  C   UNL     1       2.466   7.808  18.394  0.00  0.00    +0.000 C 
ATOM     11  O   UNL     1       2.773   8.477  17.417  0.00  0.00    +0.000 OA
ATOM     12  N   UNL     1       1.766   8.307  19.474  0.00  0.00    +0.000 N 
ATOM     13  H   UNL     1       1.740   7.762  20.326  0.00  0.00    +0.000 HD
BRANCH  10  16
ATOM     14  C   UNL     1       2.409   4.042  18.123  0.00  0.00    +0.000 A 
ATOM     15  C   UNL     1       1.999   5.384  18.199  0.00  0.00    +0.000 A 
ATOM     16  C   UNL     1       2.911   6.392  18.503  0.00  0.00    +0.000 A 
ATOM     17  C   UNL     1       4.212   6.043  18.854  0.00  0.00    +0.000 A 
ATOM     18  C   UNL     1       4.624   4.698  18.867  0.00  0.00    +0.000 A 
ATOM     19  C   UNL     1       3.721   3.675  18.496  0.00  0.00    +0.000 A 
BRANCH  14  21
ATOM     20  C   UNL     1       0.779   2.438  18.736  0.00  0.00    +0.000 C 
ATOM     21  O   UNL     1       1.523   3.083  17.700  0.00  0.00    +0.000 OA
ENDBRANCH  14  21
BRANCH  18  22
ATOM     22  O   UNL     1       5.940   4.590  19.246  0.00  0.00    +0.000 OA
ATOM     23  C   UNL     1       6.860   5.613  18.895  0.00  0.00    +0.000 C 
ENDBRANCH  18  22
BRANCH  19  24
ATOM     24  O   UNL     1       4.214   2.398  18.546  0.00  0.00    +0.000 OA
ATOM     25  C   UNL     1       4.334   1.701  19.774  0.00  0.00    +0.000 C 
ENDBRANCH  19  24
ENDBRANCH  10  16
ENDBRANCH   1  12
BRANCH   9  26
ATOM     26  C   UNL     1      -1.708  12.763  20.344  0.00  0.00    +0.000 C 
BRANCH  26  27
ATOM     27  C   UNL     1      -3.168  12.587  20.041  0.00  0.00    +0.000 A 
ATOM     28  N   UNL     1      -4.191  12.981  20.780  0.00  0.00    +0.000 NA
ATOM     29  C   UNL     1      -5.284  12.586  20.058  0.00  0.00    +0.000 A 
ATOM     30  C   UNL     1      -6.650  12.686  20.338  0.00  0.00    +0.000 A 
ATOM     31  C   UNL     1      -7.558  12.164  19.410  0.00  0.00    +0.000 A 
ATOM     32  C   UNL     1      -7.111  11.573  18.221  0.00  0.00    +0.000 A 
ATOM     33  C   UNL     1      -5.745  11.480  17.917  0.00  0.00    +0.000 A 
ATOM     34  C   UNL     1      -4.877  11.991  18.874  0.00  0.00    +0.000 A 
ATOM     35  O   UNL     1      -3.510  11.997  18.849  0.00  0.00    +0.000 OA
ENDBRANCH  26  27
ENDBRANCH   9  26
TORSDOF 7
ENDMDL
MODEL 7
REMARK VINA RESULT:      -7.8      1.374      1.564
REMARK  Name = 
REMARK  10 active torsions:
REMARK  status: ('A' for Active; 'I' for Inactive)
REMARK    1  A    between atoms: C_1  and  O_2
REMARK    2  A    between atoms: O_2  and  C_3
REMARK    3  A    between atoms: C_5  and  C_6
REMARK    4  A    between atoms: N_8  and  C_9
REMARK    5  A    between atoms: N_17  and  C_18
REMARK    6  A    between atoms: C_18  and  C_19
REMARK    7  A    between atoms: C_29  and  O_30
REMARK    8  A    between atoms: O_30  and  C_31
REMARK    9  A    between atoms: C_32  and  O_33
REMARK   10  A    between atoms: O_33  and  C_34
REMARK                            x       y       z     vdW  Elec       q    Type
REMARK                         _______ _______ _______ _____ _____    ______ ____
ROOT
ATOM      1  C   UNL     1       1.087   9.931  19.502  0.00  0.00    +0.000 C 
ATOM      2  C   UNL     1      -0.303  10.095  18.883  0.00  0.00    +0.000 C 
ATOM      3  C   UNL     1      -0.948  11.460  19.201  0.00  0.00    +0.000 C 
ATOM      4  C   UNL     1      -0.234  12.630  18.492  0.00  0.00    +0.000 C 
ATOM      5  C   UNL     1       1.073  13.091  19.141  0.00  0.00    +0.000 C 
ATOM      6  C   UNL     1       1.122  12.928  20.660  0.00  0.00    +0.000 C 
ATOM      7  C   UNL     1       0.348  11.718  21.209  0.00  0.00    +0.000 C 
ATOM      8  C   UNL     1       1.071  10.368  20.970  0.00  0.00    +0.000 C 
ATOM      9  N   UNL     1      -1.023  11.639  20.666  0.00  0.00    +0.000 NA
ENDROOT
BRANCH   1  12
ATOM     10  C   UNL     1       2.229   8.122  18.223  0.00  0.00    +0.000 C 
ATOM     11  O   UNL     1       2.455   8.835  17.254  0.00  0.00    +0.000 OA
ATOM     12  N   UNL     1       1.549   8.550  19.346  0.00  0.00    +0.000 N 
ATOM     13  H   UNL     1       1.592   7.981  20.181  0.00  0.00    +0.000 HD
BRANCH  10  16
ATOM     14  C   UNL     1       4.582   5.241  18.870  0.00  0.00    +0.000 A 
ATOM     15  C   UNL     1       4.082   6.535  18.649  0.00  0.00    +0.000 A 
ATOM     16  C   UNL     1       2.756   6.731  18.270  0.00  0.00    +0.000 A 
ATOM     17  C   UNL     1       1.961   5.622  17.990  0.00  0.00    +0.000 A 
ATOM     18  C   UNL     1       2.467   4.316  18.123  0.00  0.00    +0.000 A 
ATOM     19  C   UNL     1       3.791   4.109  18.571  0.00  0.00    +0.000 A 
BRANCH  14  21
ATOM     20  C   UNL     1       6.896   5.105  18.387  0.00  0.00    +0.000 C 
ATOM     21  O   UNL     1       5.852   5.079  19.364  0.00  0.00    +0.000 OA
ENDBRANCH  14  21
BRANCH  18  22
ATOM     22  O   UNL     1       1.514   3.383  17.793  0.00  0.00    +0.000 OA
ATOM     23  C   UNL     1       0.801   2.709  18.820  0.00  0.00    +0.000 C 
ENDBRANCH  18  22
BRANCH  19  24
ATOM     24  O   UNL     1       4.192   2.803  18.663  0.00  0.00    +0.000 OA
ATOM     25  C   UNL     1       4.256   2.136  19.913  0.00  0.00    +0.000 C 
ENDBRANCH  19  24
ENDBRANCH  10  16
ENDBRANCH   1  12
BRANCH   9  26
ATOM     26  C   UNL     1      -1.900  12.792  21.016  0.00  0.00    +0.000 C 
BRANCH  26  27
ATOM     27  C   UNL     1      -3.366  12.617  20.749  0.00  0.00    +0.000 A 
ATOM     28  N   UNL     1      -3.950  12.436  19.576  0.00  0.00    +0.000 NA
ATOM     29  C   UNL     1      -5.278  12.331  19.887  0.00  0.00    +0.000 A 
ATOM     30  C   UNL     1      -6.399  12.169  19.068  0.00  0.00    +0.000 A 
ATOM     31  C   UNL     1      -7.660  12.115  19.671  0.00  0.00    +0.000 A 
ATOM     32  C   UNL     1      -7.796  12.201  21.063  0.00  0.00    +0.000 A 
ATOM     33  C   UNL     1      -6.680  12.345  21.901  0.00  0.00    +0.000 A 
ATOM     34  C   UNL     1      -5.449  12.417  21.260  0.00  0.00    +0.000 A 
ATOM     35  O   UNL     1      -4.217  12.591  21.827  0.00  0.00    +0.000 OA
ENDBRANCH  26  27
ENDBRANCH   9  26
TORSDOF 7
ENDMDL
MODEL 8
REMARK VINA RESULT:      -7.8      1.764      2.260
REMARK  Name = 
REMARK  10 active torsions:
REMARK  status: ('A' for Active; 'I' for Inactive)
REMARK    1  A    between atoms: C_1  and  O_2
REMARK    2  A    between atoms: O_2  and  C_3
REMARK    3  A    between atoms: C_5  and  C_6
REMARK    4  A    between atoms: N_8  and  C_9
REMARK    5  A    between atoms: N_17  and  C_18
REMARK    6  A    between atoms: C_18  and  C_19
REMARK    7  A    between atoms: C_29  and  O_30
REMARK    8  A    between atoms: O_30  and  C_31
REMARK    9  A    between atoms: C_32  and  O_33
REMARK   10  A    between atoms: O_33  and  C_34
REMARK                            x       y       z     vdW  Elec       q    Type
REMARK                         _______ _______ _______ _____ _____    ______ ____
ROOT
ATOM      1  C   UNL     1       1.460   9.514  19.630  0.00  0.00    +0.000 C 
ATOM      2  C   UNL     1       0.374   9.821  18.596  0.00  0.00    +0.000 C 
ATOM      3  C   UNL     1      -0.220  11.236  18.747  0.00  0.00    +0.000 C 
ATOM      4  C   UNL     1       0.786  12.343  18.369  0.00  0.00    +0.000 C 
ATOM      5  C   UNL     1       1.836  12.666  19.434  0.00  0.00    +0.000 C 
ATOM      6  C   UNL     1       1.363  12.475  20.874  0.00  0.00    +0.000 C 
ATOM      7  C   UNL     1       0.350  11.336  21.080  0.00  0.00    +0.000 C 
ATOM      8  C   UNL     1       0.994   9.927  21.029  0.00  0.00    +0.000 C 
ATOM      9  N   UNL     1      -0.764  11.398  20.112  0.00  0.00    +0.000 NA
ENDROOT
BRANCH   1  12
ATOM     10  C   UNL     1       2.647   7.589  18.582  0.00  0.00    +0.000 C 
ATOM     11  O   UNL     1       3.088   8.257  17.656  0.00  0.00    +0.000 OA
ATOM     12  N   UNL     1       1.828   8.097  19.570  0.00  0.00    +0.000 N 
ATOM     13  H   UNL     1       1.685   7.549  20.408  0.00  0.00    +0.000 HD
BRANCH  10  16
ATOM     14  C   UNL     1       4.838   4.521  18.787  0.00  0.00    +0.000 A 
ATOM     15  C   UNL     1       4.373   5.815  18.500  0.00  0.00    +0.000 A 
ATOM     16  C   UNL     1       3.044   6.163  18.733  0.00  0.00    +0.000 A 
ATOM     17  C   UNL     1       2.148   5.178  19.139  0.00  0.00    +0.000 A 
ATOM     18  C   UNL     1       2.574   3.854  19.352  0.00  0.00    +0.000 A 
ATOM     19  C   UNL     1       3.934   3.508  19.181  0.00  0.00    +0.000 A 
BRANCH  14  21
ATOM     20  C   UNL     1       6.793   4.697  17.464  0.00  0.00    +0.000 C 
ATOM     21  O   UNL     1       6.175   4.237  18.668  0.00  0.00    +0.000 OA
ENDBRANCH  14  21
BRANCH  18  22
ATOM     22  O   UNL     1       1.526   3.056  19.742  0.00  0.00    +0.000 OA
ATOM     23  C   UNL     1       0.751   2.382  18.761  0.00  0.00    +0.000 C 
ENDBRANCH  18  22
BRANCH  19  24
ATOM     24  O   UNL     1       4.249   2.195  19.406  0.00  0.00    +0.000 OA
ATOM     25  C   UNL     1       4.718   1.755  20.670  0.00  0.00    +0.000 C 
ENDBRANCH  19  24
ENDBRANCH  10  16
ENDBRANCH   1  12
BRANCH   9  26
ATOM     26  C   UNL     1      -1.605  12.624  20.207  0.00  0.00    +0.000 C 
BRANCH  26  27
ATOM     27  C   UNL     1      -3.071  12.447  19.941  0.00  0.00    +0.000 A 
ATOM     28  N   UNL     1      -4.075  12.790  20.731  0.00  0.00    +0.000 NA
ATOM     29  C   UNL     1      -5.186  12.419  20.023  0.00  0.00    +0.000 A 
ATOM     30  C   UNL     1      -6.544  12.489  20.350  0.00  0.00    +0.000 A 
ATOM     31  C   UNL     1      -7.475  12.004  19.425  0.00  0.00    +0.000 A 
ATOM     32  C   UNL     1      -7.060  11.481  18.194  0.00  0.00    +0.000 A 
ATOM     33  C   UNL     1      -5.703  11.420  17.842  0.00  0.00    +0.000 A 
ATOM     34  C   UNL     1      -4.810  11.891  18.798  0.00  0.00    +0.000 A 
ATOM     35  O   UNL     1      -3.445  11.914  18.731  0.00  0.00    +0.000 OA
ENDBRANCH  26  27
ENDBRANCH   9  26
TORSDOF 7
ENDMDL
MODEL 9
REMARK VINA RESULT:      -7.8      1.005      1.254
REMARK  Name = 
REMARK  10 active torsions:
REMARK  status: ('A' for Active; 'I' for Inactive)
REMARK    1  A    between atoms: C_1  and  O_2
REMARK    2  A    between atoms: O_2  and  C_3
REMARK    3  A    between atoms: C_5  and  C_6
REMARK    4  A    between atoms: N_8  and  C_9
REMARK    5  A    between atoms: N_17  and  C_18
REMARK    6  A    between atoms: C_18  and  C_19
REMARK    7  A    between atoms: C_29  and  O_30
REMARK    8  A    between atoms: O_30  and  C_31
REMARK    9  A    between atoms: C_32  and  O_33
REMARK   10  A    between atoms: O_33  and  C_34
REMARK                            x       y       z     vdW  Elec       q    Type
REMARK                         _______ _______ _______ _____ _____    ______ ____
ROOT
ATOM      1  C   UNL     1       0.661  10.528  19.496  0.00  0.00    +0.000 C 
ATOM      2  C   UNL     1      -0.805  10.441  19.926  0.00  0.00    +0.000 C 
ATOM      3  C   UNL     1      -1.451  11.824  20.154  0.00  0.00    +0.000 C 
ATOM      4  C   UNL     1      -1.635  12.613  18.841  0.00  0.00    +0.000 C 
ATOM      5  C   UNL     1      -0.374  13.287  18.298  0.00  0.00    +0.000 C 
ATOM      6  C   UNL     1       0.618  13.739  19.369  0.00  0.00    +0.000 C 
ATOM      7  C   UNL     1       0.672  12.850  20.623  0.00  0.00    +0.000 C 
ATOM      8  C   UNL     1       1.420  11.512  20.393  0.00  0.00    +0.000 C 
ATOM      9  N   UNL     1      -0.672  12.568  21.165  0.00  0.00    +0.000 NA
ENDROOT
BRANCH   1  12
ATOM     10  C   UNL     1       1.926   8.678  18.406  0.00  0.00    +0.000 C 
ATOM     11  O   UNL     1       2.010   9.257  17.331  0.00  0.00    +0.000 OA
ATOM     12  N   UNL     1       1.270   9.196  19.505  0.00  0.00    +0.000 N 
ATOM     13  H   UNL     1       1.428   8.768  20.407  0.00  0.00    +0.000 HD
BRANCH  10  16
ATOM     14  C   UNL     1       4.426   5.881  17.980  0.00  0.00    +0.000 A 
ATOM     15  C   UNL     1       3.636   7.017  17.736  0.00  0.00    +0.000 A 
ATOM     16  C   UNL     1       2.612   7.374  18.611  0.00  0.00    +0.000 A 
ATOM     17  C   UNL     1       2.297   6.522  19.666  0.00  0.00    +0.000 A 
ATOM     18  C   UNL     1       3.021   5.335  19.881  0.00  0.00    +0.000 A 
ATOM     19  C   UNL     1       4.103   5.000  19.035  0.00  0.00    +0.000 A 
BRANCH  14  21
ATOM     20  C   UNL     1       5.220   4.879  15.987  0.00  0.00    +0.000 C 
ATOM     21  O   UNL     1       5.507   5.620  17.175  0.00  0.00    +0.000 OA
ENDBRANCH  14  21
BRANCH  18  22
ATOM     22  O   UNL     1       2.535   4.653  20.970  0.00  0.00    +0.000 OA
ATOM     23  C   UNL     1       1.351   3.878  20.846  0.00  0.00    +0.000 C 
ENDBRANCH  18  22
BRANCH  19  24
ATOM     24  O   UNL     1       4.741   3.822  19.322  0.00  0.00    +0.000 OA
ATOM     25  C   UNL     1       4.213   2.576  18.902  0.00  0.00    +0.000 C 
ENDBRANCH  19  24
ENDBRANCH  10  16
ENDBRANCH   1  12
BRANCH   9  26
ATOM     26  C   UNL     1      -1.420  13.770  21.631  0.00  0.00    +0.000 C 
BRANCH  26  27
ATOM     27  C   UNL     1      -2.776  13.521  22.225  0.00  0.00    +0.000 A 
ATOM     28  N   UNL     1      -3.048  12.952  23.387  0.00  0.00    +0.000 NA
ATOM     29  C   UNL     1      -4.415  12.974  23.447  0.00  0.00    +0.000 A 
ATOM     30  C   UNL     1      -5.296  12.481  24.415  0.00  0.00    +0.000 A 
ATOM     31  C   UNL     1      -6.670  12.626  24.196  0.00  0.00    +0.000 A 
ATOM     32  C   UNL     1      -7.152  13.266  23.046  0.00  0.00    +0.000 A 
ATOM     33  C   UNL     1      -6.282  13.781  22.074  0.00  0.00    +0.000 A 
ATOM     34  C   UNL     1      -4.926  13.597  22.319  0.00  0.00    +0.000 A 
ATOM     35  O   UNL     1      -3.874  13.964  21.528  0.00  0.00    +0.000 OA
ENDBRANCH  26  27
ENDBRANCH   9  26
TORSDOF 7
ENDMDL
