MODEL 1
REMARK VINA RESULT:      -6.6      0.000      0.000
REMARK  Name = 
REMARK  6 active torsions:
REMARK  status: ('A' for Active; 'I' for Inactive)
REMARK    1  A    between atoms: C_1  and  C_2
REMARK    2  A    between atoms: C_2  and  C_3
REMARK    3  A    between atoms: C_10  and  O_11
REMARK    4  A    between atoms: N_17  and  C_18
REMARK    5  A    between atoms: C_18  and  C_19
REMARK    6  A    between atoms: C_26  and  C_27
REMARK                            x       y       z     vdW  Elec       q    Type
REMARK                         _______ _______ _______ _____ _____    ______ ____
ROOT
ATOM      1  C   UNL     1      -1.312  10.541  19.054  0.00  0.00    +0.000 C 
ATOM      2  C   UNL     1      -1.485  11.666  20.156  0.00  0.00    +0.000 C 
ATOM      3  C   UNL     1      -0.545  11.903  21.388  0.00  0.00    +0.000 C 
ATOM      4  C   UNL     1      -1.253  11.819  22.773  0.00  0.00    +0.000 C 
ATOM      5  C   UNL     1      -2.681  12.285  22.861  0.00  0.00    +0.000 A 
ATOM      6  C   UNL     1      -3.248  12.481  24.147  0.00  0.00    +0.000 A 
ATOM      7  C   UNL     1      -4.564  12.908  24.306  0.00  0.00    +0.000 A 
ATOM      8  C   UNL     1      -5.330  13.136  23.182  0.00  0.00    +0.000 A 
ATOM      9  C   UNL     1      -4.779  12.959  21.898  0.00  0.00    +0.000 A 
ATOM     10  C   UNL     1      -3.443  12.527  21.716  0.00  0.00    +0.000 A 
ATOM     11  C   UNL     1      -2.782  12.502  20.318  0.00  0.00    +0.000 C 
ATOM     12  C   UNL     1      -2.259  13.983  20.138  0.00  0.00    +0.000 C 
ATOM     13  C   UNL     1      -0.699  14.168  20.352  0.00  0.00    +0.000 C 
ATOM     14  N   UNL     1       0.052  13.282  21.328  0.00  0.00    +0.000 NA
ATOM     15  C   UNL     1      -3.852  12.021  19.319  0.00  0.00    +0.000 C 
ATOM     16  C   UNL     1      -3.412  11.597  17.946  0.00  0.00    +0.000 C 
ATOM     17  O   UNL     1      -4.221  11.697  17.016  0.00  0.00    +0.000 OA
ATOM     18  C   UNL     1      -2.008  11.050  17.728  0.00  0.00    +0.000 C 
ATOM     19  C   UNL     1      -2.046  10.042  16.569  0.00  0.00    +0.000 C 
ENDROOT
BRANCH   1  21
ATOM     20  C   UNL     1       1.021   9.276  19.515  0.00  0.00    +0.000 C 
ATOM     21  C   UNL     1       0.242  10.388  18.844  0.00  0.00    +0.000 C 
ENDBRANCH   1  21
BRANCH   8  22
ATOM     22  O   UNL     1      -6.623  13.554  23.280  0.00  0.00    +0.000 OA
ATOM     23  H   UNL     1      -7.157  12.852  23.665  0.00  0.00    +0.000 HD
ENDBRANCH   8  22
BRANCH  14  24
ATOM     24  C   UNL     1       1.496  13.307  20.930  0.00  0.00    +0.000 C 
BRANCH  24  25
ATOM     25  C   UNL     1       2.046  13.935  19.630  0.00  0.00    +0.000 C 
ATOM     26  C   UNL     1       3.240  14.916  19.465  0.00  0.00    +0.000 C 
ATOM     27  C   UNL     1       3.128  14.650  17.936  0.00  0.00    +0.000 C 
ATOM     28  C   UNL     1       2.570  13.249  18.320  0.00  0.00    +0.000 C 
ENDBRANCH  24  25
ENDBRANCH  14  24
TORSDOF 4
ENDMDL
MODEL 2
REMARK VINA RESULT:      -6.4      2.821      5.625
REMARK  Name = 
REMARK  6 active torsions:
REMARK  status: ('A' for Active; 'I' for Inactive)
REMARK    1  A    between atoms: C_1  and  C_2
REMARK    2  A    between atoms: C_2  and  C_3
REMARK    3  A    between atoms: C_10  and  O_11
REMARK    4  A    between atoms: N_17  and  C_18
REMARK    5  A    between atoms: C_18  and  C_19
REMARK    6  A    between atoms: C_26  and  C_27
REMARK                            x       y       z     vdW  Elec       q    Type
REMARK                         _______ _______ _______ _____ _____    ______ ____
ROOT
ATOM      1  C   UNL     1      -0.591  10.296  21.088  0.00  0.00    +0.000 C 
ATOM      2  C   UNL     1      -1.216  11.284  20.018  0.00  0.00    +0.000 C 
ATOM      3  C   UNL     1      -2.325  12.357  20.290  0.00  0.00    +0.000 C 
ATOM      4  C   UNL     1      -3.618  12.190  19.438  0.00  0.00    +0.000 C 
ATOM      5  C   UNL     1      -3.474  11.647  18.043  0.00  0.00    +0.000 A 
ATOM      6  C   UNL     1      -4.582  11.750  17.161  0.00  0.00    +0.000 A 
ATOM      7  C   UNL     1      -4.522  11.267  15.856  0.00  0.00    +0.000 A 
ATOM      8  C   UNL     1      -3.358  10.671  15.419  0.00  0.00    +0.000 A 
ATOM      9  C   UNL     1      -2.244  10.573  16.276  0.00  0.00    +0.000 A 
ATOM     10  C   UNL     1      -2.285  11.058  17.606  0.00  0.00    +0.000 A 
ATOM     11  C   UNL     1      -1.016  11.113  18.489  0.00  0.00    +0.000 C 
ATOM     12  C   UNL     1      -0.348  12.486  18.077  0.00  0.00    +0.000 C 
ATOM     13  C   UNL     1      -0.550  13.663  19.118  0.00  0.00    +0.000 C 
ATOM     14  N   UNL     1      -1.808  13.732  19.964  0.00  0.00    +0.000 NA
ATOM     15  C   UNL     1      -0.206   9.836  18.198  0.00  0.00    +0.000 C 
ATOM     16  C   UNL     1       0.908   9.464  19.136  0.00  0.00    +0.000 C 
ATOM     17  O   UNL     1       1.848   8.794  18.691  0.00  0.00    +0.000 OA
ATOM     18  C   UNL     1       0.858   9.900  20.593  0.00  0.00    +0.000 C 
ATOM     19  C   UNL     1       1.587   8.851  21.447  0.00  0.00    +0.000 C 
ENDROOT
BRANCH   1  21
ATOM     20  C   UNL     1      -1.652  11.094  23.431  0.00  0.00    +0.000 C 
ATOM     21  C   UNL     1      -0.517  11.118  22.430  0.00  0.00    +0.000 C 
ENDBRANCH   1  21
BRANCH   8  22
ATOM     22  O   UNL     1      -3.246  10.181  14.154  0.00  0.00    +0.000 OA
ATOM     23  H   UNL     1      -4.100  10.237  13.713  0.00  0.00    +0.000 HD
ENDBRANCH   8  22
BRANCH  14  24
ATOM     24  C   UNL     1      -1.490  14.568  21.166  0.00  0.00    +0.000 C 
BRANCH  24  25
ATOM     25  C   UNL     1      -2.136  14.397  22.560  0.00  0.00    +0.000 C 
ATOM     26  C   UNL     1      -1.670  14.993  23.917  0.00  0.00    +0.000 C 
ATOM     27  C   UNL     1      -3.042  14.531  24.486  0.00  0.00    +0.000 C 
ATOM     28  C   UNL     1      -3.593  14.719  23.043  0.00  0.00    +0.000 C 
ENDBRANCH  24  25
ENDBRANCH  14  24
TORSDOF 4
ENDMDL
MODEL 3
REMARK VINA RESULT:      -6.1      2.177      5.020
REMARK  Name = 
REMARK  6 active torsions:
REMARK  status: ('A' for Active; 'I' for Inactive)
REMARK    1  A    between atoms: C_1  and  C_2
REMARK    2  A    between atoms: C_2  and  C_3
REMARK    3  A    between atoms: C_10  and  O_11
REMARK    4  A    between atoms: N_17  and  C_18
REMARK    5  A    between atoms: C_18  and  C_19
REMARK    6  A    between atoms: C_26  and  C_27
REMARK                            x       y       z     vdW  Elec       q    Type
REMARK                         _______ _______ _______ _____ _____    ______ ____
ROOT
ATOM      1  C   UNL     1       0.999  14.055  19.838  0.00  0.00    +0.000 C 
ATOM      2  C   UNL     1      -0.019  12.841  19.774  0.00  0.00    +0.000 C 
ATOM      3  C   UNL     1      -0.175  11.830  18.587  0.00  0.00    +0.000 C 
ATOM      4  C   UNL     1      -1.599  11.777  17.960  0.00  0.00    +0.000 C 
ATOM      5  C   UNL     1      -2.776  12.001  18.870  0.00  0.00    +0.000 A 
ATOM      6  C   UNL     1      -4.072  11.681  18.387  0.00  0.00    +0.000 A 
ATOM      7  C   UNL     1      -5.208  11.864  19.172  0.00  0.00    +0.000 A 
ATOM      8  C   UNL     1      -5.062  12.376  20.445  0.00  0.00    +0.000 A 
ATOM      9  C   UNL     1      -3.782  12.685  20.945  0.00  0.00    +0.000 A 
ATOM     10  C   UNL     1      -2.616  12.505  20.163  0.00  0.00    +0.000 A 
ATOM     11  C   UNL     1      -1.201  12.675  20.765  0.00  0.00    +0.000 C 
ATOM     12  C   UNL     1      -0.909  11.260  21.409  0.00  0.00    +0.000 C 
ATOM     13  C   UNL     1       0.071  10.338  20.573  0.00  0.00    +0.000 C 
ATOM     14  N   UNL     1       0.107  10.429  19.059  0.00  0.00    +0.000 NA
ATOM     15  C   UNL     1      -1.260  13.874  21.729  0.00  0.00    +0.000 C 
ATOM     16  C   UNL     1       0.033  14.468  22.214  0.00  0.00    +0.000 C 
ATOM     17  O   UNL     1       0.037  15.044  23.308  0.00  0.00    +0.000 OA
ATOM     18  C   UNL     1       1.290  14.365  21.362  0.00  0.00    +0.000 C 
ATOM     19  C   UNL     1       2.172  15.592  21.633  0.00  0.00    +0.000 C 
ENDROOT
BRANCH   1  21
ATOM     20  C   UNL     1       3.078  14.451  18.172  0.00  0.00    +0.000 C 
ATOM     21  C   UNL     1       2.304  13.552  19.112  0.00  0.00    +0.000 C 
ENDBRANCH   1  21
BRANCH   8  22
ATOM     22  O   UNL     1      -6.139  12.576  21.254  0.00  0.00    +0.000 OA
ATOM     23  H   UNL     1      -6.849  11.980  20.996  0.00  0.00    +0.000 HD
ENDBRANCH   8  22
BRANCH  14  24
ATOM     24  C   UNL     1       1.430   9.887  18.611  0.00  0.00    +0.000 C 
BRANCH  24  25
ATOM     25  C   UNL     1       1.803   8.388  18.565  0.00  0.00    +0.000 C 
ATOM     26  C   UNL     1       2.943   7.705  17.760  0.00  0.00    +0.000 C 
ATOM     27  C   UNL     1       2.655   6.433  18.609  0.00  0.00    +0.000 C 
ATOM     28  C   UNL     1       2.183   7.407  19.728  0.00  0.00    +0.000 C 
ENDBRANCH  24  25
ENDBRANCH  14  24
TORSDOF 4
ENDMDL
MODEL 4
REMARK VINA RESULT:      -6.1      3.203      5.806
REMARK  Name = 
REMARK  6 active torsions:
REMARK  status: ('A' for Active; 'I' for Inactive)
REMARK    1  A    between atoms: C_1  and  C_2
REMARK    2  A    between atoms: C_2  and  C_3
REMARK    3  A    between atoms: C_10  and  O_11
REMARK    4  A    between atoms: N_17  and  C_18
REMARK    5  A    between atoms: C_18  and  C_19
REMARK    6  A    between atoms: C_26  and  C_27
REMARK                            x       y       z     vdW  Elec       q    Type
REMARK                         _______ _______ _______ _____ _____    ______ ____
ROOT
ATOM      1  C   UNL     1      -1.660  12.357  20.366  0.00  0.00    +0.000 C 
ATOM      2  C   UNL     1      -2.625  13.191  21.307  0.00  0.00    +0.000 C 
ATOM      3  C   UNL     1      -3.692  14.238  20.838  0.00  0.00    +0.000 C 
ATOM      4  C   UNL     1      -3.500  15.670  21.421  0.00  0.00    +0.000 C 
ATOM      5  C   UNL     1      -2.937  15.793  22.810  0.00  0.00    +0.000 A 
ATOM      6  C   UNL     1      -3.016  17.052  23.461  0.00  0.00    +0.000 A 
ATOM      7  C   UNL     1      -2.514  17.241  24.746  0.00  0.00    +0.000 A 
ATOM      8  C   UNL     1      -1.921  16.177  25.393  0.00  0.00    +0.000 A 
ATOM      9  C   UNL     1      -1.847  14.917  24.767  0.00  0.00    +0.000 A 
ATOM     10  C   UNL     1      -2.352  14.704  23.462  0.00  0.00    +0.000 A 
ATOM     11  C   UNL     1      -2.433  13.289  22.844  0.00  0.00    +0.000 C 
ATOM     12  C   UNL     1      -3.805  12.730  23.396  0.00  0.00    +0.000 C 
ATOM     13  C   UNL     1      -4.997  12.740  22.350  0.00  0.00    +0.000 C 
ATOM     14  N   UNL     1      -5.067  13.811  21.277  0.00  0.00    +0.000 NA
ATOM     15  C   UNL     1      -1.159  12.535  23.269  0.00  0.00    +0.000 C 
ATOM     16  C   UNL     1      -0.812  11.256  22.561  0.00  0.00    +0.000 C 
ATOM     17  O   UNL     1      -0.145  10.412  23.171  0.00  0.00    +0.000 OA
ATOM     18  C   UNL     1      -1.270  11.027  21.127  0.00  0.00    +0.000 C 
ATOM     19  C   UNL     1      -0.241  10.133  20.418  0.00  0.00    +0.000 C 
ENDROOT
BRANCH   1  21
ATOM     20  C   UNL     1      -1.837  11.837  17.729  0.00  0.00    +0.000 C 
ATOM     21  C   UNL     1      -2.503  12.034  19.075  0.00  0.00    +0.000 C 
ENDBRANCH   1  21
BRANCH   8  22
ATOM     22  O   UNL     1      -1.413  16.307  26.650  0.00  0.00    +0.000 OA
ATOM     23  H   UNL     1      -0.574  16.776  26.608  0.00  0.00    +0.000 HD
ENDBRANCH   8  22
BRANCH  14  24
ATOM     24  C   UNL     1      -5.923  13.276  20.171  0.00  0.00    +0.000 C 
BRANCH  24  25
ATOM     25  C   UNL     1      -6.193  11.778  19.905  0.00  0.00    +0.000 C 
ATOM     26  C   UNL     1      -7.465  10.953  20.247  0.00  0.00    +0.000 C 
ATOM     27  C   UNL     1      -6.865   9.830  19.354  0.00  0.00    +0.000 C 
ATOM     28  C   UNL     1      -6.164  10.970  18.560  0.00  0.00    +0.000 C 
ENDBRANCH  24  25
ENDBRANCH  14  24
TORSDOF 4
ENDMDL
MODEL 5
REMARK VINA RESULT:      -6.1      2.862      5.281
REMARK  Name = 
REMARK  6 active torsions:
REMARK  status: ('A' for Active; 'I' for Inactive)
REMARK    1  A    between atoms: C_1  and  C_2
REMARK    2  A    between atoms: C_2  and  C_3
REMARK    3  A    between atoms: C_10  and  O_11
REMARK    4  A    between atoms: N_17  and  C_18
REMARK    5  A    between atoms: C_18  and  C_19
REMARK    6  A    between atoms: C_26  and  C_27
REMARK                            x       y       z     vdW  Elec       q    Type
REMARK                         _______ _______ _______ _____ _____    ______ ____
ROOT
ATOM      1  C   UNL     1      -0.866  10.616  21.472  0.00  0.00    +0.000 C 
ATOM      2  C   UNL     1      -1.413  11.498  20.274  0.00  0.00    +0.000 C 
ATOM      3  C   UNL     1      -2.566  12.555  20.359  0.00  0.00    +0.000 C 
ATOM      4  C   UNL     1      -3.771  12.282  19.410  0.00  0.00    +0.000 C 
ATOM      5  C   UNL     1      -3.486  11.638  18.080  0.00  0.00    +0.000 A 
ATOM      6  C   UNL     1      -4.510  11.638  17.098  0.00  0.00    +0.000 A 
ATOM      7  C   UNL     1      -4.319  11.058  15.846  0.00  0.00    +0.000 A 
ATOM      8  C   UNL     1      -3.106  10.464  15.565  0.00  0.00    +0.000 A 
ATOM      9  C   UNL     1      -2.074  10.468  16.524  0.00  0.00    +0.000 A 
ATOM     10  C   UNL     1      -2.249  11.053  17.801  0.00  0.00    +0.000 A 
ATOM     11  C   UNL     1      -1.068  11.215  18.788  0.00  0.00    +0.000 C 
ATOM     12  C   UNL     1      -0.397  12.572  18.329  0.00  0.00    +0.000 C 
ATOM     13  C   UNL     1      -0.722  13.820  19.251  0.00  0.00    +0.000 C 
ATOM     14  N   UNL     1      -2.053  13.915  19.971  0.00  0.00    +0.000 NA
ATOM     15  C   UNL     1      -0.205   9.944  18.674  0.00  0.00    +0.000 C 
ATOM     16  C   UNL     1       0.826   9.681  19.736  0.00  0.00    +0.000 C 
ATOM     17  O   UNL     1       1.818   9.008  19.433  0.00  0.00    +0.000 OA
ATOM     18  C   UNL     1       0.632  10.227  21.143  0.00  0.00    +0.000 C 
ATOM     19  C   UNL     1       1.303   9.270  22.140  0.00  0.00    +0.000 C 
ENDROOT
BRANCH   1  21
ATOM     20  C   UNL     1      -2.239  11.776  23.477  0.00  0.00    +0.000 C 
ATOM     21  C   UNL     1      -0.935  11.541  22.745  0.00  0.00    +0.000 C 
ENDBRANCH   1  21
BRANCH   8  22
ATOM     22  O   UNL     1      -2.866   9.882  14.358  0.00  0.00    +0.000 OA
ATOM     23  H   UNL     1      -2.541  10.546  13.741  0.00  0.00    +0.000 HD
ENDBRANCH   8  22
BRANCH  14  24
ATOM     24  C   UNL     1      -1.868  14.851  21.126  0.00  0.00    +0.000 C 
BRANCH  24  25
ATOM     25  C   UNL     1      -0.502  15.273  21.714  0.00  0.00    +0.000 C 
ATOM     26  C   UNL     1       0.317  16.560  21.416  0.00  0.00    +0.000 C 
ATOM     27  C   UNL     1       1.206  16.165  22.630  0.00  0.00    +0.000 C 
ATOM     28  C   UNL     1      -0.062  15.470  23.206  0.00  0.00    +0.000 C 
ENDBRANCH  24  25
ENDBRANCH  14  24
TORSDOF 4
ENDMDL
MODEL 6
REMARK VINA RESULT:      -6.1      1.469      2.091
REMARK  Name = 
REMARK  6 active torsions:
REMARK  status: ('A' for Active; 'I' for Inactive)
REMARK    1  A    between atoms: C_1  and  C_2
REMARK    2  A    between atoms: C_2  and  C_3
REMARK    3  A    between atoms: C_10  and  O_11
REMARK    4  A    between atoms: N_17  and  C_18
REMARK    5  A    between atoms: C_18  and  C_19
REMARK    6  A    between atoms: C_26  and  C_27
REMARK                            x       y       z     vdW  Elec       q    Type
REMARK                         _______ _______ _______ _____ _____    ______ ____
ROOT
ATOM      1  C   UNL     1      -3.210  11.513  18.762  0.00  0.00    +0.000 C 
ATOM      2  C   UNL     1      -3.309  12.454  20.034  0.00  0.00    +0.000 C 
ATOM      3  C   UNL     1      -2.156  12.749  21.054  0.00  0.00    +0.000 C 
ATOM      4  C   UNL     1      -2.481  12.372  22.530  0.00  0.00    +0.000 C 
ATOM      5  C   UNL     1      -3.904  12.516  22.995  0.00  0.00    +0.000 A 
ATOM      6  C   UNL     1      -4.168  12.452  24.389  0.00  0.00    +0.000 A 
ATOM      7  C   UNL     1      -5.461  12.575  24.892  0.00  0.00    +0.000 A 
ATOM      8  C   UNL     1      -6.505  12.757  24.009  0.00  0.00    +0.000 A 
ATOM      9  C   UNL     1      -6.259  12.837  22.624  0.00  0.00    +0.000 A 
ATOM     10  C   UNL     1      -4.952  12.715  22.093  0.00  0.00    +0.000 A 
ATOM     11  C   UNL     1      -4.656  12.978  20.598  0.00  0.00    +0.000 C 
ATOM     12  C   UNL     1      -4.464  14.546  20.537  0.00  0.00    +0.000 C 
ATOM     13  C   UNL     1      -2.958  15.029  20.433  0.00  0.00    +0.000 C 
ATOM     14  N   UNL     1      -1.847  14.221  21.077  0.00  0.00    +0.000 NA
ATOM     15  C   UNL     1      -5.832  12.393  19.794  0.00  0.00    +0.000 C 
ATOM     16  C   UNL     1      -5.670  12.219  18.310  0.00  0.00    +0.000 C 
ATOM     17  O   UNL     1      -6.684  12.246  17.603  0.00  0.00    +0.000 OA
ATOM     18  C   UNL     1      -4.286  12.004  17.712  0.00  0.00    +0.000 C 
ATOM     19  C   UNL     1      -4.424  11.140  16.449  0.00  0.00    +0.000 C 
ENDROOT
BRANCH   1  21
ATOM     20  C   UNL     1      -0.826  10.535  17.982  0.00  0.00    +0.000 C 
ATOM     21  C   UNL     1      -1.752  11.712  18.200  0.00  0.00    +0.000 C 
ENDBRANCH   1  21
BRANCH   8  22
ATOM     22  O   UNL     1      -7.788  12.882  24.447  0.00  0.00    +0.000 OA
ATOM     23  H   UNL     1      -8.337  12.216  24.021  0.00  0.00    +0.000 HD
ENDBRANCH   8  22
BRANCH  14  24
ATOM     24  C   UNL     1      -0.571  14.589  20.384  0.00  0.00    +0.000 C 
BRANCH  24  25
ATOM     25  C   UNL     1       0.441  13.580  19.796  0.00  0.00    +0.000 C 
ATOM     26  C   UNL     1       1.430  13.786  18.615  0.00  0.00    +0.000 C 
ATOM     27  C   UNL     1       2.090  12.448  19.055  0.00  0.00    +0.000 C 
ATOM     28  C   UNL     1       1.607  12.796  20.493  0.00  0.00    +0.000 C 
ENDBRANCH  24  25
ENDBRANCH  14  24
TORSDOF 4
ENDMDL
MODEL 7
REMARK VINA RESULT:      -6.0      2.765      6.762
REMARK  Name = 
REMARK  6 active torsions:
REMARK  status: ('A' for Active; 'I' for Inactive)
REMARK    1  A    between atoms: C_1  and  C_2
REMARK    2  A    between atoms: C_2  and  C_3
REMARK    3  A    between atoms: C_10  and  O_11
REMARK    4  A    between atoms: N_17  and  C_18
REMARK    5  A    between atoms: C_18  and  C_19
REMARK    6  A    between atoms: C_26  and  C_27
REMARK                            x       y       z     vdW  Elec       q    Type
REMARK                         _______ _______ _______ _____ _____    ______ ____
ROOT
ATOM      1  C   UNL     1      -1.215  15.292  22.787  0.00  0.00    +0.000 C 
ATOM      2  C   UNL     1      -1.672  13.859  22.289  0.00  0.00    +0.000 C 
ATOM      3  C   UNL     1      -2.096  12.658  23.202  0.00  0.00    +0.000 C 
ATOM      4  C   UNL     1      -1.246  11.366  23.016  0.00  0.00    +0.000 C 
ATOM      5  C   UNL     1      -0.712  11.068  21.642  0.00  0.00    +0.000 A 
ATOM      6  C   UNL     1      -0.184   9.775  21.390  0.00  0.00    +0.000 A 
ATOM      7  C   UNL     1       0.330   9.428  20.143  0.00  0.00    +0.000 A 
ATOM      8  C   UNL     1       0.328  10.371  19.136  0.00  0.00    +0.000 A 
ATOM      9  C   UNL     1      -0.205  11.654  19.365  0.00  0.00    +0.000 A 
ATOM     10  C   UNL     1      -0.733  12.025  20.625  0.00  0.00    +0.000 A 
ATOM     11  C   UNL     1      -1.476  13.366  20.831  0.00  0.00    +0.000 C 
ATOM     12  C   UNL     1      -2.956  13.032  20.382  0.00  0.00    +0.000 C 
ATOM     13  C   UNL     1      -3.981  12.824  21.573  0.00  0.00    +0.000 C 
ATOM     14  N   UNL     1      -3.512  12.250  22.897  0.00  0.00    +0.000 NA
ATOM     15  C   UNL     1      -0.728  14.430  20.006  0.00  0.00    +0.000 C 
ATOM     16  C   UNL     1      -1.031  15.880  20.262  0.00  0.00    +0.000 C 
ATOM     17  O   UNL     1      -0.860  16.685  19.339  0.00  0.00    +0.000 OA
ATOM     18  C   UNL     1      -1.523  16.328  21.632  0.00  0.00    +0.000 C 
ATOM     19  C   UNL     1      -1.042  17.765  21.882  0.00  0.00    +0.000 C 
ENDROOT
BRANCH   1  21
ATOM     20  C   UNL     1      -1.481  15.643  25.444  0.00  0.00    +0.000 C 
ATOM     21  C   UNL     1      -2.091  15.598  24.059  0.00  0.00    +0.000 C 
ENDBRANCH   1  21
BRANCH   8  22
ATOM     22  O   UNL     1       0.820  10.085  17.898  0.00  0.00    +0.000 OA
ATOM     23  H   UNL     1       1.014  10.906  17.434  0.00  0.00    +0.000 HD
ENDBRANCH   8  22
BRANCH  14  24
ATOM     24  C   UNL     1      -4.506  12.666  23.938  0.00  0.00    +0.000 C 
BRANCH  24  25
ATOM     25  C   UNL     1      -5.770  13.514  23.668  0.00  0.00    +0.000 C 
ATOM     26  C   UNL     1      -7.204  13.311  24.232  0.00  0.00    +0.000 C 
ATOM     27  C   UNL     1      -7.527  14.723  23.664  0.00  0.00    +0.000 C 
ATOM     28  C   UNL     1      -6.020  15.048  23.881  0.00  0.00    +0.000 C 
ENDBRANCH  24  25
ENDBRANCH  14  24
TORSDOF 4
ENDMDL
MODEL 8
REMARK VINA RESULT:      -6.0      2.883      5.316
REMARK  Name = 
REMARK  6 active torsions:
REMARK  status: ('A' for Active; 'I' for Inactive)
REMARK    1  A    between atoms: C_1  and  C_2
REMARK    2  A    between atoms: C_2  and  C_3
REMARK    3  A    between atoms: C_10  and  O_11
REMARK    4  A    between atoms: N_17  and  C_18
REMARK    5  A    between atoms: C_18  and  C_19
REMARK    6  A    between atoms: C_26  and  C_27
REMARK                            x       y       z     vdW  Elec       q    Type
REMARK                         _______ _______ _______ _____ _____    ______ ____
ROOT
ATOM      1  C   UNL     1      -0.753  10.488  21.398  0.00  0.00    +0.000 C 
ATOM      2  C   UNL     1      -1.308  11.409  20.234  0.00  0.00    +0.000 C 
ATOM      3  C   UNL     1      -2.440  12.484  20.369  0.00  0.00    +0.000 C 
ATOM      4  C   UNL     1      -3.669  12.257  19.439  0.00  0.00    +0.000 C 
ATOM      5  C   UNL     1      -3.424  11.639  18.089  0.00  0.00    +0.000 A 
ATOM      6  C   UNL     1      -4.468  11.682  17.129  0.00  0.00    +0.000 A 
ATOM      7  C   UNL     1      -4.314  11.129  15.860  0.00  0.00    +0.000 A 
ATOM      8  C   UNL     1      -3.118  10.522  15.539  0.00  0.00    +0.000 A 
ATOM      9  C   UNL     1      -2.067  10.483  16.475  0.00  0.00    +0.000 A 
ATOM     10  C   UNL     1      -2.204  11.040  17.770  0.00  0.00    +0.000 A 
ATOM     11  C   UNL     1      -1.000  11.156  18.734  0.00  0.00    +0.000 C 
ATOM     12  C   UNL     1      -0.313  12.511  18.294  0.00  0.00    +0.000 C 
ATOM     13  C   UNL     1      -0.596  13.742  19.252  0.00  0.00    +0.000 C 
ATOM     14  N   UNL     1      -1.910  13.844  20.003  0.00  0.00    +0.000 NA
ATOM     15  C   UNL     1      -0.163   9.873  18.572  0.00  0.00    +0.000 C 
ATOM     16  C   UNL     1       0.885   9.566  19.604  0.00  0.00    +0.000 C 
ATOM     17  O   UNL     1       1.858   8.882  19.264  0.00  0.00    +0.000 OA
ATOM     18  C   UNL     1       0.730  10.080  21.028  0.00  0.00    +0.000 C 
ATOM     19  C   UNL     1       1.404   9.087  21.987  0.00  0.00    +0.000 C 
ENDROOT
BRANCH   1  21
ATOM     20  C   UNL     1      -2.066  11.640  23.448  0.00  0.00    +0.000 C 
ATOM     21  C   UNL     1      -0.778  11.383  22.694  0.00  0.00    +0.000 C 
ENDBRANCH   1  21
BRANCH   8  22
ATOM     22  O   UNL     1      -2.915   9.964  14.313  0.00  0.00    +0.000 OA
ATOM     23  H   UNL     1      -2.317  10.521  13.804  0.00  0.00    +0.000 HD
ENDBRANCH   8  22
BRANCH  14  24
ATOM     24  C   UNL     1      -1.683  14.748  21.177  0.00  0.00    +0.000 C 
BRANCH  24  25
ATOM     25  C   UNL     1      -1.321  16.247  21.083  0.00  0.00    +0.000 C 
ATOM     26  C   UNL     1       0.088  16.902  21.127  0.00  0.00    +0.000 C 
ATOM     27  C   UNL     1      -0.609  18.214  20.667  0.00  0.00    +0.000 C 
ATOM     28  C   UNL     1      -1.654  17.298  19.967  0.00  0.00    +0.000 C 
ENDBRANCH  24  25
ENDBRANCH  14  24
TORSDOF 4
ENDMDL
MODEL 9
REMARK VINA RESULT:      -6.0      2.156      4.939
REMARK  Name = 
REMARK  6 active torsions:
REMARK  status: ('A' for Active; 'I' for Inactive)
REMARK    1  A    between atoms: C_1  and  C_2
REMARK    2  A    between atoms: C_2  and  C_3
REMARK    3  A    between atoms: C_10  and  O_11
REMARK    4  A    between atoms: N_17  and  C_18
REMARK    5  A    between atoms: C_18  and  C_19
REMARK    6  A    between atoms: C_26  and  C_27
REMARK                            x       y       z     vdW  Elec       q    Type
REMARK                         _______ _______ _______ _____ _____    ______ ____
ROOT
ATOM      1  C   UNL     1       0.688  13.728  19.195  0.00  0.00    +0.000 C 
ATOM      2  C   UNL     1      -0.306  12.513  19.406  0.00  0.00    +0.000 C 
ATOM      3  C   UNL     1      -0.224  11.120  18.694  0.00  0.00    +0.000 C 
ATOM      4  C   UNL     1      -1.488  10.733  17.870  0.00  0.00    +0.000 C 
ATOM      5  C   UNL     1      -2.826  11.201  18.375  0.00  0.00    +0.000 A 
ATOM      6  C   UNL     1      -3.997  10.632  17.810  0.00  0.00    +0.000 A 
ATOM      7  C   UNL     1      -5.268  11.019  18.225  0.00  0.00    +0.000 A 
ATOM      8  C   UNL     1      -5.384  11.983  19.205  0.00  0.00    +0.000 A 
ATOM      9  C   UNL     1      -4.232  12.548  19.787  0.00  0.00    +0.000 A 
ATOM     10  C   UNL     1      -2.931  12.167  19.378  0.00  0.00    +0.000 A 
ATOM     11  C   UNL     1      -1.670  12.651  20.133  0.00  0.00    +0.000 C 
ATOM     12  C   UNL     1      -1.534  11.610  21.315  0.00  0.00    +0.000 C 
ATOM     13  C   UNL     1      -0.411  10.511  21.107  0.00  0.00    +0.000 C 
ATOM     14  N   UNL     1      -0.061  10.025  19.713  0.00  0.00    +0.000 NA
ATOM     15  C   UNL     1      -1.915  14.119  20.530  0.00  0.00    +0.000 C 
ATOM     16  C   UNL     1      -0.745  14.942  20.991  0.00  0.00    +0.000 C 
ATOM     17  O   UNL     1      -0.961  15.888  21.757  0.00  0.00    +0.000 OA
ATOM     18  C   UNL     1       0.660  14.612  20.507  0.00  0.00    +0.000 C 
ATOM     19  C   UNL     1       1.480  15.909  20.452  0.00  0.00    +0.000 C 
ENDROOT
BRANCH   1  21
ATOM     20  C   UNL     1       3.179  13.774  18.171  0.00  0.00    +0.000 C 
ATOM     21  C   UNL     1       2.110  13.081  18.989  0.00  0.00    +0.000 C 
ENDBRANCH   1  21
BRANCH   8  22
ATOM     22  O   UNL     1      -6.603  12.399  19.648  0.00  0.00    +0.000 OA
ATOM     23  H   UNL     1      -7.211  12.456  18.904  0.00  0.00    +0.000 HD
ENDBRANCH   8  22
BRANCH  14  24
ATOM     24  C   UNL     1       1.320   9.448  19.776  0.00  0.00    +0.000 C 
BRANCH  24  25
ATOM     25  C   UNL     1       1.782   8.172  19.036  0.00  0.00    +0.000 C 
ATOM     26  C   UNL     1       2.807   8.051  17.874  0.00  0.00    +0.000 C 
ATOM     27  C   UNL     1       2.761   6.515  18.116  0.00  0.00    +0.000 C 
ATOM     28  C   UNL     1       2.427   6.858  19.598  0.00  0.00    +0.000 C 
ENDBRANCH  24  25
ENDBRANCH  14  24
TORSDOF 4
ENDMDL
