MODEL 1
REMARK VINA RESULT:      -6.3      0.000      0.000
REMARK  Name = 
REMARK  8 active torsions:
REMARK  status: ('A' for Active; 'I' for Inactive)
REMARK    1  A    between atoms: C_1  and  C_2
REMARK    2  A    between atoms: C_2  and  C_3
REMARK    3  A    between atoms: C_3  and  S_4
REMARK    4  A    between atoms: S_4  and  C_5
REMARK    5  A    between atoms: C_8  and  C_9
REMARK    6  A    between atoms: C_11  and  C_12
REMARK    7  A    between atoms: C_12  and  C_13
REMARK    8  A    between atoms: N_15  and  C_16
REMARK                            x       y       z     vdW  Elec       q    Type
REMARK                         _______ _______ _______ _____ _____    ______ ____
ROOT
ATOM      1  C   UNL     1       3.534   5.021  19.537  0.00  0.00    +0.000 A 
ATOM      2  N   UNL     1       4.280   4.000  19.909  0.00  0.00    +0.000 NA
ATOM      3  N   UNL     1       5.238   3.843  18.935  0.00  0.00    +0.000 NA
ATOM      4  C   UNL     1       5.022   4.774  18.025  0.00  0.00    +0.000 A 
ATOM      5  O   UNL     1       3.960   5.575  18.361  0.00  0.00    +0.000 OA
ENDROOT
BRANCH   4   6
ATOM      6  C   UNL     1       5.776   4.923  16.824  0.00  0.00    +0.000 A 
ATOM      7  C   UNL     1       5.651   4.254  15.622  0.00  0.00    +0.000 A 
ATOM      8  C   UNL     1       6.662   4.783  14.791  0.00  0.00    +0.000 A 
ATOM      9  N   UNL     1       7.375   5.722  15.423  0.00  0.00    +0.000 NA
ATOM     10  N   UNL     1       6.828   5.783  16.655  0.00  0.00    +0.000 N 
ATOM     11  C   UNL     1       7.395   6.694  17.625  0.00  0.00    +0.000 C 
BRANCH   8  12
ATOM     12  C   UNL     1       6.996   4.402  13.386  0.00  0.00    +0.000 C 
ATOM     13  C   UNL     1       5.932   3.529  12.742  0.00  0.00    +0.000 C 
ENDBRANCH   8  12
ENDBRANCH   4   6
BRANCH   1  14
ATOM     14  S   UNL     1       2.146   5.605  20.395  0.00  0.00    +0.000 S 
BRANCH  14  15
ATOM     15  C   UNL     1       1.061   4.151  20.285  0.00  0.00    +0.000 C 
BRANCH  15  17
ATOM     16  C   UNL     1       0.718   2.125  18.831  0.00  0.00    +0.000 C 
ATOM     17  C   UNL     1       1.105   3.595  18.864  0.00  0.00    +0.000 C 
ENDBRANCH  15  17
ENDBRANCH  14  15
ENDBRANCH   1  14
TORSDOF 5
ENDMDL
MODEL 2
REMARK VINA RESULT:      -6.3      1.309      1.538
REMARK  Name = 
REMARK  8 active torsions:
REMARK  status: ('A' for Active; 'I' for Inactive)
REMARK    1  A    between atoms: C_1  and  C_2
REMARK    2  A    between atoms: C_2  and  C_3
REMARK    3  A    between atoms: C_3  and  S_4
REMARK    4  A    between atoms: S_4  and  C_5
REMARK    5  A    between atoms: C_8  and  C_9
REMARK    6  A    between atoms: C_11  and  C_12
REMARK    7  A    between atoms: C_12  and  C_13
REMARK    8  A    between atoms: N_15  and  C_16
REMARK                            x       y       z     vdW  Elec       q    Type
REMARK                         _______ _______ _______ _____ _____    ______ ____
ROOT
ATOM      1  C   UNL     1       4.519   3.394  19.399  0.00  0.00    +0.000 A 
ATOM      2  N   UNL     1       5.519   4.062  19.937  0.00  0.00    +0.000 NA
ATOM      3  N   UNL     1       6.256   4.567  18.892  0.00  0.00    +0.000 NA
ATOM      4  C   UNL     1       5.666   4.178  17.778  0.00  0.00    +0.000 A 
ATOM      5  O   UNL     1       4.536   3.442  18.032  0.00  0.00    +0.000 OA
ENDROOT
BRANCH   4   6
ATOM      6  C   UNL     1       6.148   4.459  16.465  0.00  0.00    +0.000 A 
ATOM      7  C   UNL     1       6.001   3.728  15.303  0.00  0.00    +0.000 A 
ATOM      8  C   UNL     1       6.692   4.458  14.311  0.00  0.00    +0.000 A 
ATOM      9  N   UNL     1       7.234   5.573  14.812  0.00  0.00    +0.000 NA
ATOM     10  N   UNL     1       6.901   5.549  16.119  0.00  0.00    +0.000 N 
ATOM     11  C   UNL     1       7.369   6.615  16.978  0.00  0.00    +0.000 C 
BRANCH   8  12
ATOM     12  C   UNL     1       6.875   4.113  12.870  0.00  0.00    +0.000 C 
ATOM     13  C   UNL     1       5.718   3.307  12.303  0.00  0.00    +0.000 C 
ENDBRANCH   8  12
ENDBRANCH   4   6
BRANCH   1  14
ATOM     14  S   UNL     1       3.317   2.514  20.287  0.00  0.00    +0.000 S 
BRANCH  14  15
ATOM     15  C   UNL     1       2.026   2.357  19.018  0.00  0.00    +0.000 C 
BRANCH  15  17
ATOM     16  C   UNL     1       0.964   4.149  20.431  0.00  0.00    +0.000 C 
ATOM     17  C   UNL     1       0.718   2.930  19.556  0.00  0.00    +0.000 C 
ENDBRANCH  15  17
ENDBRANCH  14  15
ENDBRANCH   1  14
TORSDOF 5
ENDMDL
MODEL 3
REMARK VINA RESULT:      -6.3      1.932      2.209
REMARK  Name = 
REMARK  8 active torsions:
REMARK  status: ('A' for Active; 'I' for Inactive)
REMARK    1  A    between atoms: C_1  and  C_2
REMARK    2  A    between atoms: C_2  and  C_3
REMARK    3  A    between atoms: C_3  and  S_4
REMARK    4  A    between atoms: S_4  and  C_5
REMARK    5  A    between atoms: C_8  and  C_9
REMARK    6  A    between atoms: C_11  and  C_12
REMARK    7  A    between atoms: C_12  and  C_13
REMARK    8  A    between atoms: N_15  and  C_16
REMARK                            x       y       z     vdW  Elec       q    Type
REMARK                         _______ _______ _______ _____ _____    ______ ____
ROOT
ATOM      1  C   UNL     1       3.163   3.227  18.098  0.00  0.00    +0.000 A 
ATOM      2  N   UNL     1       2.879   4.513  18.155  0.00  0.00    +0.000 NA
ATOM      3  N   UNL     1       3.750   5.142  17.297  0.00  0.00    +0.000 NA
ATOM      4  C   UNL     1       4.515   4.207  16.767  0.00  0.00    +0.000 A 
ATOM      5  O   UNL     1       4.177   2.957  17.221  0.00  0.00    +0.000 OA
ENDROOT
BRANCH   4   6
ATOM      6  C   UNL     1       5.582   4.454  15.854  0.00  0.00    +0.000 A 
ATOM      7  C   UNL     1       5.565   4.489  14.474  0.00  0.00    +0.000 A 
ATOM      8  C   UNL     1       6.897   4.756  14.088  0.00  0.00    +0.000 A 
ATOM      9  N   UNL     1       7.698   4.885  15.151  0.00  0.00    +0.000 NA
ATOM     10  N   UNL     1       6.884   4.689  16.209  0.00  0.00    +0.000 N 
ATOM     11  C   UNL     1       7.449   4.726  17.540  0.00  0.00    +0.000 C 
BRANCH   8  12
ATOM     12  C   UNL     1       7.451   4.878  12.707  0.00  0.00    +0.000 C 
ATOM     13  C   UNL     1       8.551   5.921  12.601  0.00  0.00    +0.000 C 
ENDBRANCH   8  12
ENDBRANCH   4   6
BRANCH   1  14
ATOM     14  S   UNL     1       2.384   1.994  19.035  0.00  0.00    +0.000 S 
BRANCH  14  15
ATOM     15  C   UNL     1       0.895   2.886  19.573  0.00  0.00    +0.000 C 
BRANCH  15  17
ATOM     16  C   UNL     1       2.312   2.754  21.649  0.00  0.00    +0.000 C 
ATOM     17  C   UNL     1       1.102   3.402  20.994  0.00  0.00    +0.000 C 
ENDBRANCH  15  17
ENDBRANCH  14  15
ENDBRANCH   1  14
TORSDOF 5
ENDMDL
MODEL 4
REMARK VINA RESULT:      -6.3      0.817      1.110
REMARK  Name = 
REMARK  8 active torsions:
REMARK  status: ('A' for Active; 'I' for Inactive)
REMARK    1  A    between atoms: C_1  and  C_2
REMARK    2  A    between atoms: C_2  and  C_3
REMARK    3  A    between atoms: C_3  and  S_4
REMARK    4  A    between atoms: S_4  and  C_5
REMARK    5  A    between atoms: C_8  and  C_9
REMARK    6  A    between atoms: C_11  and  C_12
REMARK    7  A    between atoms: C_12  and  C_13
REMARK    8  A    between atoms: N_15  and  C_16
REMARK                            x       y       z     vdW  Elec       q    Type
REMARK                         _______ _______ _______ _____ _____    ______ ____
ROOT
ATOM      1  C   UNL     1       3.808   4.664  19.516  0.00  0.00    +0.000 A 
ATOM      2  N   UNL     1       4.711   3.775  19.878  0.00  0.00    +0.000 NA
ATOM      3  N   UNL     1       5.622   3.705  18.851  0.00  0.00    +0.000 NA
ATOM      4  C   UNL     1       5.224   4.554  17.921  0.00  0.00    +0.000 A 
ATOM      5  O   UNL     1       4.081   5.215  18.295  0.00  0.00    +0.000 OA
ENDROOT
BRANCH   4   6
ATOM      6  C   UNL     1       5.877   4.748  16.669  0.00  0.00    +0.000 A 
ATOM      7  C   UNL     1       5.730   4.050  15.486  0.00  0.00    +0.000 A 
ATOM      8  C   UNL     1       6.630   4.653  14.581  0.00  0.00    +0.000 A 
ATOM      9  N   UNL     1       7.296   5.663  15.151  0.00  0.00    +0.000 NA
ATOM     10  N   UNL     1       6.832   5.696  16.416  0.00  0.00    +0.000 N 
ATOM     11  C   UNL     1       7.380   6.671  17.335  0.00  0.00    +0.000 C 
BRANCH   8  12
ATOM     12  C   UNL     1       6.900   4.279  13.160  0.00  0.00    +0.000 C 
ATOM     13  C   UNL     1       7.829   5.255  12.458  0.00  0.00    +0.000 C 
ENDBRANCH   8  12
ENDBRANCH   4   6
BRANCH   1  14
ATOM     14  S   UNL     1       2.405   5.091  20.441  0.00  0.00    +0.000 S 
BRANCH  14  15
ATOM     15  C   UNL     1       1.159   4.032  19.647  0.00  0.00    +0.000 C 
BRANCH  15  17
ATOM     16  C   UNL     1       1.627   2.651  21.699  0.00  0.00    +0.000 C 
ATOM     17  C   UNL     1       1.253   2.623  20.225  0.00  0.00    +0.000 C 
ENDBRANCH  15  17
ENDBRANCH  14  15
ENDBRANCH   1  14
TORSDOF 5
ENDMDL
MODEL 5
REMARK VINA RESULT:      -6.3      1.893      2.065
REMARK  Name = 
REMARK  8 active torsions:
REMARK  status: ('A' for Active; 'I' for Inactive)
REMARK    1  A    between atoms: C_1  and  C_2
REMARK    2  A    between atoms: C_2  and  C_3
REMARK    3  A    between atoms: C_3  and  S_4
REMARK    4  A    between atoms: S_4  and  C_5
REMARK    5  A    between atoms: C_8  and  C_9
REMARK    6  A    between atoms: C_11  and  C_12
REMARK    7  A    between atoms: C_12  and  C_13
REMARK    8  A    between atoms: N_15  and  C_16
REMARK                            x       y       z     vdW  Elec       q    Type
REMARK                         _______ _______ _______ _____ _____    ______ ____
ROOT
ATOM      1  C   UNL     1       3.266   3.448  18.074  0.00  0.00    +0.000 A 
ATOM      2  N   UNL     1       2.960   4.729  18.131  0.00  0.00    +0.000 NA
ATOM      3  N   UNL     1       3.807   5.370  17.258  0.00  0.00    +0.000 NA
ATOM      4  C   UNL     1       4.581   4.447  16.719  0.00  0.00    +0.000 A 
ATOM      5  O   UNL     1       4.271   3.193  17.182  0.00  0.00    +0.000 OA
ENDROOT
BRANCH   4   6
ATOM      6  C   UNL     1       5.629   4.710  15.790  0.00  0.00    +0.000 A 
ATOM      7  C   UNL     1       5.688   4.444  14.435  0.00  0.00    +0.000 A 
ATOM      8  C   UNL     1       6.959   4.895  14.020  0.00  0.00    +0.000 A 
ATOM      9  N   UNL     1       7.653   5.413  15.039  0.00  0.00    +0.000 NA
ATOM     10  N   UNL     1       6.834   5.282  16.101  0.00  0.00    +0.000 N 
ATOM     11  C   UNL     1       7.299   5.721  17.399  0.00  0.00    +0.000 C 
BRANCH   8  12
ATOM     12  C   UNL     1       7.560   4.830  12.653  0.00  0.00    +0.000 C 
ATOM     13  C   UNL     1       6.989   3.703  11.809  0.00  0.00    +0.000 C 
ENDBRANCH   8  12
ENDBRANCH   4   6
BRANCH   1  14
ATOM     14  S   UNL     1       2.525   2.204  19.026  0.00  0.00    +0.000 S 
BRANCH  14  15
ATOM     15  C   UNL     1       3.393   2.443  20.605  0.00  0.00    +0.000 C 
BRANCH  15  17
ATOM     16  C   UNL     1       1.023   3.140  21.087  0.00  0.00    +0.000 C 
ATOM     17  C   UNL     1       2.455   3.125  21.597  0.00  0.00    +0.000 C 
ENDBRANCH  15  17
ENDBRANCH  14  15
ENDBRANCH   1  14
TORSDOF 5
ENDMDL
MODEL 6
REMARK VINA RESULT:      -6.3      2.625      6.171
REMARK  Name = 
REMARK  8 active torsions:
REMARK  status: ('A' for Active; 'I' for Inactive)
REMARK    1  A    between atoms: C_1  and  C_2
REMARK    2  A    between atoms: C_2  and  C_3
REMARK    3  A    between atoms: C_3  and  S_4
REMARK    4  A    between atoms: S_4  and  C_5
REMARK    5  A    between atoms: C_8  and  C_9
REMARK    6  A    between atoms: C_11  and  C_12
REMARK    7  A    between atoms: C_12  and  C_13
REMARK    8  A    between atoms: N_15  and  C_16
REMARK                            x       y       z     vdW  Elec       q    Type
REMARK                         _______ _______ _______ _____ _____    ______ ____
ROOT
ATOM      1  C   UNL     1       6.706   4.702  15.995  0.00  0.00    +0.000 A 
ATOM      2  N   UNL     1       7.534   4.566  17.011  0.00  0.00    +0.000 NA
ATOM      3  N   UNL     1       6.763   4.598  18.148  0.00  0.00    +0.000 NA
ATOM      4  C   UNL     1       5.510   4.753  17.763  0.00  0.00    +0.000 A 
ATOM      5  O   UNL     1       5.402   4.805  16.396  0.00  0.00    +0.000 OA
ENDROOT
BRANCH   4   6
ATOM      6  C   UNL     1       4.400   4.879  18.649  0.00  0.00    +0.000 A 
ATOM      7  C   UNL     1       3.940   4.000  19.610  0.00  0.00    +0.000 A 
ATOM      8  C   UNL     1       2.804   4.620  20.174  0.00  0.00    +0.000 A 
ATOM      9  N   UNL     1       2.565   5.809  19.611  0.00  0.00    +0.000 NA
ATOM     10  N   UNL     1       3.536   5.941  18.684  0.00  0.00    +0.000 N 
ATOM     11  C   UNL     1       3.551   7.126  17.853  0.00  0.00    +0.000 C 
BRANCH   8  12
ATOM     12  C   UNL     1       1.903   4.098  21.244  0.00  0.00    +0.000 C 
ATOM     13  C   UNL     1       2.242   2.675  21.660  0.00  0.00    +0.000 C 
ENDBRANCH   8  12
ENDBRANCH   4   6
BRANCH   1  14
ATOM     14  S   UNL     1       7.179   4.780  14.329  0.00  0.00    +0.000 S 
BRANCH  14  15
ATOM     15  C   UNL     1       5.788   3.902  13.555  0.00  0.00    +0.000 C 
BRANCH  15  17
ATOM     16  C   UNL     1       5.075   2.684  11.471  0.00  0.00    +0.000 C 
ATOM     17  C   UNL     1       6.231   3.344  12.206  0.00  0.00    +0.000 C 
ENDBRANCH  15  17
ENDBRANCH  14  15
ENDBRANCH   1  14
TORSDOF 5
ENDMDL
MODEL 7
REMARK VINA RESULT:      -6.3      1.506      1.587
REMARK  Name = 
REMARK  8 active torsions:
REMARK  status: ('A' for Active; 'I' for Inactive)
REMARK    1  A    between atoms: C_1  and  C_2
REMARK    2  A    between atoms: C_2  and  C_3
REMARK    3  A    between atoms: C_3  and  S_4
REMARK    4  A    between atoms: S_4  and  C_5
REMARK    5  A    between atoms: C_8  and  C_9
REMARK    6  A    between atoms: C_11  and  C_12
REMARK    7  A    between atoms: C_12  and  C_13
REMARK    8  A    between atoms: N_15  and  C_16
REMARK                            x       y       z     vdW  Elec       q    Type
REMARK                         _______ _______ _______ _____ _____    ______ ____
ROOT
ATOM      1  C   UNL     1       2.907   5.964  19.109  0.00  0.00    +0.000 A 
ATOM      2  N   UNL     1       2.881   7.172  18.581  0.00  0.00    +0.000 NA
ATOM      3  N   UNL     1       3.795   7.166  17.554  0.00  0.00    +0.000 NA
ATOM      4  C   UNL     1       4.326   5.959  17.513  0.00  0.00    +0.000 A 
ATOM      5  O   UNL     1       3.786   5.135  18.468  0.00  0.00    +0.000 OA
ENDROOT
BRANCH   4   6
ATOM      6  C   UNL     1       5.354   5.556  16.611  0.00  0.00    +0.000 A 
ATOM      7  C   UNL     1       5.270   5.248  15.267  0.00  0.00    +0.000 A 
ATOM      8  C   UNL     1       6.582   4.897  14.881  0.00  0.00    +0.000 A 
ATOM      9  N   UNL     1       7.434   4.980  15.907  0.00  0.00    +0.000 NA
ATOM     10  N   UNL     1       6.669   5.371  16.946  0.00  0.00    +0.000 N 
ATOM     11  C   UNL     1       7.285   5.527  18.246  0.00  0.00    +0.000 C 
BRANCH   8  12
ATOM     12  C   UNL     1       7.060   4.454  13.537  0.00  0.00    +0.000 C 
ATOM     13  C   UNL     1       6.056   3.572  12.812  0.00  0.00    +0.000 C 
ENDBRANCH   8  12
ENDBRANCH   4   6
BRANCH   1  14
ATOM     14  S   UNL     1       1.973   5.457  20.479  0.00  0.00    +0.000 S 
BRANCH  14  15
ATOM     15  C   UNL     1       2.442   3.703  20.560  0.00  0.00    +0.000 C 
BRANCH  15  17
ATOM     16  C   UNL     1       0.907   2.574  18.916  0.00  0.00    +0.000 C 
ATOM     17  C   UNL     1       1.196   2.839  20.385  0.00  0.00    +0.000 C 
ENDBRANCH  15  17
ENDBRANCH  14  15
ENDBRANCH   1  14
TORSDOF 5
ENDMDL
MODEL 8
REMARK VINA RESULT:      -6.2      1.842      3.365
REMARK  Name = 
REMARK  8 active torsions:
REMARK  status: ('A' for Active; 'I' for Inactive)
REMARK    1  A    between atoms: C_1  and  C_2
REMARK    2  A    between atoms: C_2  and  C_3
REMARK    3  A    between atoms: C_3  and  S_4
REMARK    4  A    between atoms: S_4  and  C_5
REMARK    5  A    between atoms: C_8  and  C_9
REMARK    6  A    between atoms: C_11  and  C_12
REMARK    7  A    between atoms: C_12  and  C_13
REMARK    8  A    between atoms: N_15  and  C_16
REMARK                            x       y       z     vdW  Elec       q    Type
REMARK                         _______ _______ _______ _____ _____    ______ ____
ROOT
ATOM      1  C   UNL     1       3.208   2.598  18.943  0.00  0.00    +0.000 A 
ATOM      2  N   UNL     1       4.067   2.056  19.784  0.00  0.00    +0.000 NA
ATOM      3  N   UNL     1       5.223   2.794  19.689  0.00  0.00    +0.000 NA
ATOM      4  C   UNL     1       5.006   3.742  18.796  0.00  0.00    +0.000 A 
ATOM      5  O   UNL     1       3.728   3.685  18.297  0.00  0.00    +0.000 OA
ENDROOT
BRANCH   4   6
ATOM      6  C   UNL     1       5.977   4.696  18.374  0.00  0.00    +0.000 A 
ATOM      7  C   UNL     1       6.583   5.708  19.095  0.00  0.00    +0.000 A 
ATOM      8  C   UNL     1       7.443   6.355  18.181  0.00  0.00    +0.000 A 
ATOM      9  N   UNL     1       7.387   5.790  16.970  0.00  0.00    +0.000 NA
ATOM     10  N   UNL     1       6.487   4.795  17.107  0.00  0.00    +0.000 N 
ATOM     11  C   UNL     1       6.157   3.989  15.952  0.00  0.00    +0.000 C 
BRANCH   8  12
ATOM     12  C   UNL     1       8.325   7.536  18.422  0.00  0.00    +0.000 C 
ATOM     13  C   UNL     1       7.863   8.780  17.682  0.00  0.00    +0.000 C 
ENDBRANCH   8  12
ENDBRANCH   4   6
BRANCH   1  14
ATOM     14  S   UNL     1       1.607   2.009  18.640  0.00  0.00    +0.000 S 
BRANCH  14  15
ATOM     15  C   UNL     1       0.624   3.395  19.285  0.00  0.00    +0.000 C 
BRANCH  15  17
ATOM     16  C   UNL     1       1.632   5.182  20.743  0.00  0.00    +0.000 C 
ATOM     17  C   UNL     1       1.115   3.753  20.685  0.00  0.00    +0.000 C 
ENDBRANCH  15  17
ENDBRANCH  14  15
ENDBRANCH   1  14
TORSDOF 5
ENDMDL
MODEL 9
REMARK VINA RESULT:      -6.2      1.505      1.684
REMARK  Name = 
REMARK  8 active torsions:
REMARK  status: ('A' for Active; 'I' for Inactive)
REMARK    1  A    between atoms: C_1  and  C_2
REMARK    2  A    between atoms: C_2  and  C_3
REMARK    3  A    between atoms: C_3  and  S_4
REMARK    4  A    between atoms: S_4  and  C_5
REMARK    5  A    between atoms: C_8  and  C_9
REMARK    6  A    between atoms: C_11  and  C_12
REMARK    7  A    between atoms: C_12  and  C_13
REMARK    8  A    between atoms: N_15  and  C_16
REMARK                            x       y       z     vdW  Elec       q    Type
REMARK                         _______ _______ _______ _____ _____    ______ ____
ROOT
ATOM      1  C   UNL     1       3.622   3.142  18.481  0.00  0.00    +0.000 A 
ATOM      2  N   UNL     1       4.091   4.138  19.206  0.00  0.00    +0.000 NA
ATOM      3  N   UNL     1       4.985   4.812  18.409  0.00  0.00    +0.000 NA
ATOM      4  C   UNL     1       5.013   4.190  17.245  0.00  0.00    +0.000 A 
ATOM      5  O   UNL     1       4.148   3.125  17.219  0.00  0.00    +0.000 OA
ENDROOT
BRANCH   4   6
ATOM      6  C   UNL     1       5.854   4.553  16.152  0.00  0.00    +0.000 A 
ATOM      7  C   UNL     1       5.807   4.139  14.835  0.00  0.00    +0.000 A 
ATOM      8  C   UNL     1       6.883   4.795  14.198  0.00  0.00    +0.000 A 
ATOM      9  N   UNL     1       7.560   5.570  15.052  0.00  0.00    +0.000 NA
ATOM     10  N   UNL     1       6.926   5.401  16.231  0.00  0.00    +0.000 N 
ATOM     11  C   UNL     1       7.433   6.085  17.400  0.00  0.00    +0.000 C 
BRANCH   8  12
ATOM     12  C   UNL     1       7.313   4.691  12.771  0.00  0.00    +0.000 C 
ATOM     13  C   UNL     1       6.658   3.530  12.040  0.00  0.00    +0.000 C 
ENDBRANCH   8  12
ENDBRANCH   4   6
BRANCH   1  14
ATOM     14  S   UNL     1       2.494   1.950  19.039  0.00  0.00    +0.000 S 
BRANCH  14  15
ATOM     15  C   UNL     1       0.975   2.946  19.105  0.00  0.00    +0.000 C 
BRANCH  15  17
ATOM     16  C   UNL     1       1.487   2.809  21.565  0.00  0.00    +0.000 C 
ATOM     17  C   UNL     1       0.898   3.660  20.451  0.00  0.00    +0.000 C 
ENDBRANCH  15  17
ENDBRANCH  14  15
ENDBRANCH   1  14
TORSDOF 5
ENDMDL
