MODEL 1
REMARK VINA RESULT:      -7.7      0.000      0.000
REMARK  Name = 
REMARK  8 active torsions:
REMARK  status: ('A' for Active; 'I' for Inactive)
REMARK    1  A    between atoms: C_2  and  C_3
REMARK    2  A    between atoms: C_8  and  C_9
REMARK    3  A    between atoms: N_14  and  C_15
REMARK    4  A    between atoms: N_14  and  C_19
REMARK    5  A    between atoms: C_15  and  C_16
REMARK    6  A    between atoms: C_16  and  C_17
REMARK    7  A    between atoms: C_17  and  O_18
REMARK    8  A    between atoms: C_19  and  C_20
REMARK                            x       y       z     vdW  Elec       q    Type
REMARK                         _______ _______ _______ _____ _____    ______ ____
ROOT
ATOM      1  O   UNL     1       2.520   4.435  17.085  0.00  0.00    +0.000 OA
ATOM      2  C   UNL     1       3.211   4.973  17.950  0.00  0.00    +0.000 C 
ATOM      3  N   UNL     1       4.495   4.467  18.245  0.00  0.00    +0.000 N 
ENDROOT
BRANCH   2   4
ATOM      4  C   UNL     1       2.574   6.093  18.719  0.00  0.00    +0.000 A 
ATOM      5  C   UNL     1       2.460   7.361  18.122  0.00  0.00    +0.000 A 
ATOM      6  C   UNL     1       2.038   8.478  18.847  0.00  0.00    +0.000 A 
ATOM      7  C   UNL     1       1.620   8.327  20.159  0.00  0.00    +0.000 A 
ATOM      8  C   UNL     1       1.578   7.052  20.720  0.00  0.00    +0.000 A 
ATOM      9  C   UNL     1       2.036   5.909  20.020  0.00  0.00    +0.000 A 
BRANCH   9  10
ATOM     10  C   UNL     1       1.842   4.634  20.727  0.00  0.00    +0.000 A 
ATOM     11  N   UNL     1       2.604   4.159  21.697  0.00  0.00    +0.000 NA
ATOM     12  N   UNL     1       2.071   2.953  22.075  0.00  0.00    +0.000 NA
ATOM     13  N   UNL     1       1.014   2.655  21.337  0.00  0.00    +0.000 NA
ATOM     14  N   UNL     1       0.863   3.701  20.513  0.00  0.00    +0.000 N 
ATOM     15  H   UNL     1       0.064   3.745  19.896  0.00  0.00    +0.000 HD
ENDBRANCH   9  10
ENDBRANCH   2   4
BRANCH   3  16
ATOM     16  C   UNL     1       5.480   4.978  19.212  0.00  0.00    +0.000 C 
BRANCH  16  17
ATOM     17  C   UNL     1       6.346   6.147  18.746  0.00  0.00    +0.000 C 
BRANCH  17  18
ATOM     18  C   UNL     1       7.803   6.014  19.157  0.00  0.00    +0.000 C 
BRANCH  18  19
ATOM     19  O   UNL     1       7.875   5.441  20.457  0.00  0.00    +0.000 OA
ATOM     20  H   UNL     1       7.541   4.529  20.408  0.00  0.00    +0.000 HD
ENDBRANCH  18  19
ENDBRANCH  17  18
ENDBRANCH  16  17
ENDBRANCH   3  16
BRANCH   3  21
ATOM     21  C   UNL     1       4.960   3.354  17.401  0.00  0.00    +0.000 C 
BRANCH  21  22
ATOM     22  C   UNL     1       5.679   3.790  16.142  0.00  0.00    +0.000 A 
ATOM     23  C   UNL     1       5.093   3.632  14.876  0.00  0.00    +0.000 A 
ATOM     24  C   UNL     1       5.739   4.108  13.727  0.00  0.00    +0.000 A 
ATOM     25  C   UNL     1       6.973   4.741  13.837  0.00  0.00    +0.000 A 
ATOM     26 CL   UNL     1       7.744   5.368  12.431  0.00  0.00    +0.000 Cl
ATOM     27  C   UNL     1       7.582   4.885  15.079  0.00  0.00    +0.000 A 
ATOM     28  C   UNL     1       6.940   4.406  16.224  0.00  0.00    +0.000 A 
ENDBRANCH  21  22
ENDBRANCH   3  21
TORSDOF 8
ENDMDL
MODEL 2
REMARK VINA RESULT:      -7.5      0.674      1.166
REMARK  Name = 
REMARK  8 active torsions:
REMARK  status: ('A' for Active; 'I' for Inactive)
REMARK    1  A    between atoms: C_2  and  C_3
REMARK    2  A    between atoms: C_8  and  C_9
REMARK    3  A    between atoms: N_14  and  C_15
REMARK    4  A    between atoms: N_14  and  C_19
REMARK    5  A    between atoms: C_15  and  C_16
REMARK    6  A    between atoms: C_16  and  C_17
REMARK    7  A    between atoms: C_17  and  O_18
REMARK    8  A    between atoms: C_19  and  C_20
REMARK                            x       y       z     vdW  Elec       q    Type
REMARK                         _______ _______ _______ _____ _____    ______ ____
ROOT
ATOM      1  O   UNL     1       2.493   4.124  17.514  0.00  0.00    +0.000 OA
ATOM      2  C   UNL     1       3.220   5.019  17.944  0.00  0.00    +0.000 C 
ATOM      3  N   UNL     1       4.620   4.921  17.803  0.00  0.00    +0.000 N 
ENDROOT
BRANCH   2   4
ATOM      4  C   UNL     1       2.546   6.127  18.700  0.00  0.00    +0.000 A 
ATOM      5  C   UNL     1       2.389   7.383  18.087  0.00  0.00    +0.000 A 
ATOM      6  C   UNL     1       1.931   8.494  18.799  0.00  0.00    +0.000 A 
ATOM      7  C   UNL     1       1.520   8.345  20.113  0.00  0.00    +0.000 A 
ATOM      8  C   UNL     1       1.522   7.077  20.690  0.00  0.00    +0.000 A 
ATOM      9  C   UNL     1       2.017   5.942  20.004  0.00  0.00    +0.000 A 
BRANCH   9  10
ATOM     10  C   UNL     1       1.867   4.670  20.728  0.00  0.00    +0.000 A 
ATOM     11  N   UNL     1       2.774   4.107  21.508  0.00  0.00    +0.000 NA
ATOM     12  N   UNL     1       2.229   2.941  21.984  0.00  0.00    +0.000 NA
ATOM     13  N   UNL     1       1.017   2.753  21.489  0.00  0.00    +0.000 NA
ATOM     14  N   UNL     1       0.786   3.829  20.724  0.00  0.00    +0.000 N 
ATOM     15  H   UNL     1      -0.119   3.957  20.293  0.00  0.00    +0.000 HD
ENDBRANCH   9  10
ENDBRANCH   2   4
BRANCH   3  16
ATOM     16  C   UNL     1       5.651   5.887  18.218  0.00  0.00    +0.000 C 
BRANCH  16  17
ATOM     17  C   UNL     1       6.548   5.465  19.381  0.00  0.00    +0.000 C 
BRANCH  17  18
ATOM     18  C   UNL     1       8.030   5.622  19.082  0.00  0.00    +0.000 C 
BRANCH  18  19
ATOM     19  O   UNL     1       8.336   7.003  18.932  0.00  0.00    +0.000 OA
ATOM     20  H   UNL     1       9.299   7.112  19.003  0.00  0.00    +0.000 HD
ENDBRANCH  18  19
ENDBRANCH  17  18
ENDBRANCH  16  17
ENDBRANCH   3  16
BRANCH   3  21
ATOM     21  C   UNL     1       5.113   3.760  17.045  0.00  0.00    +0.000 C 
BRANCH  21  22
ATOM     22  C   UNL     1       5.709   4.109  15.697  0.00  0.00    +0.000 A 
ATOM     23  C   UNL     1       6.950   4.758  15.596  0.00  0.00    +0.000 A 
ATOM     24  C   UNL     1       7.523   5.007  14.341  0.00  0.00    +0.000 A 
ATOM     25  C   UNL     1       6.859   4.612  13.183  0.00  0.00    +0.000 A 
ATOM     26 CL   UNL     1       7.586   4.875  11.645  0.00  0.00    +0.000 Cl
ATOM     27  C   UNL     1       5.617   3.990  13.263  0.00  0.00    +0.000 A 
ATOM     28  C   UNL     1       5.044   3.746  14.514  0.00  0.00    +0.000 A 
ENDBRANCH  21  22
ENDBRANCH   3  21
TORSDOF 8
ENDMDL
MODEL 3
REMARK VINA RESULT:      -7.4      1.326      2.528
REMARK  Name = 
REMARK  8 active torsions:
REMARK  status: ('A' for Active; 'I' for Inactive)
REMARK    1  A    between atoms: C_2  and  C_3
REMARK    2  A    between atoms: C_8  and  C_9
REMARK    3  A    between atoms: N_14  and  C_15
REMARK    4  A    between atoms: N_14  and  C_19
REMARK    5  A    between atoms: C_15  and  C_16
REMARK    6  A    between atoms: C_16  and  C_17
REMARK    7  A    between atoms: C_17  and  O_18
REMARK    8  A    between atoms: C_19  and  C_20
REMARK                            x       y       z     vdW  Elec       q    Type
REMARK                         _______ _______ _______ _____ _____    ______ ____
ROOT
ATOM      1  O   UNL     1       5.257   5.548  19.555  0.00  0.00    +0.000 OA
ATOM      2  C   UNL     1       4.197   5.410  18.943  0.00  0.00    +0.000 C 
ATOM      3  N   UNL     1       4.126   4.529  17.843  0.00  0.00    +0.000 N 
ENDROOT
BRANCH   2   4
ATOM      4  C   UNL     1       3.060   6.295  19.362  0.00  0.00    +0.000 A 
ATOM      5  C   UNL     1       2.885   7.538  18.728  0.00  0.00    +0.000 A 
ATOM      6  C   UNL     1       1.956   8.473  19.192  0.00  0.00    +0.000 A 
ATOM      7  C   UNL     1       1.109   8.139  20.235  0.00  0.00    +0.000 A 
ATOM      8  C   UNL     1       1.161   6.856  20.774  0.00  0.00    +0.000 A 
ATOM      9  C   UNL     1       2.118   5.903  20.349  0.00  0.00    +0.000 A 
BRANCH   9  10
ATOM     10  C   UNL     1       1.979   4.573  20.963  0.00  0.00    +0.000 A 
ATOM     11  N   UNL     1       2.905   3.936  21.659  0.00  0.00    +0.000 NA
ATOM     12  N   UNL     1       2.364   2.737  22.048  0.00  0.00    +0.000 NA
ATOM     13  N   UNL     1       1.134   2.603  21.580  0.00  0.00    +0.000 NA
ATOM     14  N   UNL     1       0.890   3.744  20.921  0.00  0.00    +0.000 N 
ATOM     15  H   UNL     1      -0.028   3.916  20.535  0.00  0.00    +0.000 HD
ENDBRANCH   9  10
ENDBRANCH   2   4
BRANCH   3  16
ATOM     16  C   UNL     1       2.959   4.204  17.006  0.00  0.00    +0.000 C 
BRANCH  16  17
ATOM     17  C   UNL     1       1.911   3.283  17.630  0.00  0.00    +0.000 C 
BRANCH  17  18
ATOM     18  C   UNL     1       2.490   1.972  18.134  0.00  0.00    +0.000 C 
BRANCH  18  19
ATOM     19  O   UNL     1       1.598   1.397  19.082  0.00  0.00    +0.000 OA
ATOM     20  H   UNL     1       1.936   0.519  19.326  0.00  0.00    +0.000 HD
ENDBRANCH  18  19
ENDBRANCH  17  18
ENDBRANCH  16  17
ENDBRANCH   3  16
BRANCH   3  21
ATOM     21  C   UNL     1       5.341   3.748  17.562  0.00  0.00    +0.000 C 
BRANCH  21  22
ATOM     22  C   UNL     1       6.008   4.092  16.247  0.00  0.00    +0.000 A 
ATOM     23  C   UNL     1       5.629   3.462  15.051  0.00  0.00    +0.000 A 
ATOM     24  C   UNL     1       6.203   3.845  13.831  0.00  0.00    +0.000 A 
ATOM     25  C   UNL     1       7.159   4.856  13.800  0.00  0.00    +0.000 A 
ATOM     26 CL   UNL     1       7.828   5.358  12.296  0.00  0.00    +0.000 Cl
ATOM     27  C   UNL     1       7.566   5.475  14.977  0.00  0.00    +0.000 A 
ATOM     28  C   UNL     1       6.996   5.090  16.194  0.00  0.00    +0.000 A 
ENDBRANCH  21  22
ENDBRANCH   3  21
TORSDOF 8
ENDMDL
MODEL 4
REMARK VINA RESULT:      -7.4      1.428      2.550
REMARK  Name = 
REMARK  8 active torsions:
REMARK  status: ('A' for Active; 'I' for Inactive)
REMARK    1  A    between atoms: C_2  and  C_3
REMARK    2  A    between atoms: C_8  and  C_9
REMARK    3  A    between atoms: N_14  and  C_15
REMARK    4  A    between atoms: N_14  and  C_19
REMARK    5  A    between atoms: C_15  and  C_16
REMARK    6  A    between atoms: C_16  and  C_17
REMARK    7  A    between atoms: C_17  and  O_18
REMARK    8  A    between atoms: C_19  and  C_20
REMARK                            x       y       z     vdW  Elec       q    Type
REMARK                         _______ _______ _______ _____ _____    ______ ____
ROOT
ATOM      1  O   UNL     1       5.299   6.064  18.582  0.00  0.00    +0.000 OA
ATOM      2  C   UNL     1       4.134   5.743  18.346  0.00  0.00    +0.000 C 
ATOM      3  N   UNL     1       3.857   4.531  17.679  0.00  0.00    +0.000 N 
ENDROOT
BRANCH   2   4
ATOM      4  C   UNL     1       3.075   6.744  18.704  0.00  0.00    +0.000 A 
ATOM      5  C   UNL     1       2.947   7.915  17.936  0.00  0.00    +0.000 A 
ATOM      6  C   UNL     1       2.101   8.957  18.325  0.00  0.00    +0.000 A 
ATOM      7  C   UNL     1       1.287   8.803  19.435  0.00  0.00    +0.000 A 
ATOM      8  C   UNL     1       1.286   7.590  20.118  0.00  0.00    +0.000 A 
ATOM      9  C   UNL     1       2.160   6.532  19.769  0.00  0.00    +0.000 A 
BRANCH   9  10
ATOM     10  C   UNL     1       1.970   5.294  20.541  0.00  0.00    +0.000 A 
ATOM     11  N   UNL     1       0.925   4.487  20.472  0.00  0.00    +0.000 NA
ATOM     12  N   UNL     1       1.153   3.457  21.349  0.00  0.00    +0.000 NA
ATOM     13  N   UNL     1       2.301   3.625  21.984  0.00  0.00    +0.000 NA
ATOM     14  N   UNL     1       2.814   4.754  21.474  0.00  0.00    +0.000 N 
ATOM     15  H   UNL     1       3.739   5.056  21.747  0.00  0.00    +0.000 HD
ENDBRANCH   9  10
ENDBRANCH   2   4
BRANCH   3  16
ATOM     16  C   UNL     1       2.546   3.957  17.333  0.00  0.00    +0.000 C 
BRANCH  16  17
ATOM     17  C   UNL     1       2.461   2.432  17.296  0.00  0.00    +0.000 C 
BRANCH  17  18
ATOM     18  C   UNL     1       1.905   1.831  18.576  0.00  0.00    +0.000 C 
BRANCH  18  19
ATOM     19  O   UNL     1       2.839   2.024  19.631  0.00  0.00    +0.000 OA
ATOM     20  H   UNL     1       3.604   1.445  19.472  0.00  0.00    +0.000 HD
ENDBRANCH  18  19
ENDBRANCH  17  18
ENDBRANCH  16  17
ENDBRANCH   3  16
BRANCH   3  21
ATOM     21  C   UNL     1       5.017   3.673  17.389  0.00  0.00    +0.000 C 
BRANCH  21  22
ATOM     22  C   UNL     1       5.734   4.016  16.100  0.00  0.00    +0.000 A 
ATOM     23  C   UNL     1       5.175   3.703  14.851  0.00  0.00    +0.000 A 
ATOM     24  C   UNL     1       5.815   4.093  13.666  0.00  0.00    +0.000 A 
ATOM     25  C   UNL     1       7.015   4.795  13.724  0.00  0.00    +0.000 A 
ATOM     26 CL   UNL     1       7.776   5.315  12.270  0.00  0.00    +0.000 Cl
ATOM     27  C   UNL     1       7.598   5.091  14.952  0.00  0.00    +0.000 A 
ATOM     28  C   UNL     1       6.962   4.699  16.133  0.00  0.00    +0.000 A 
ENDBRANCH  21  22
ENDBRANCH   3  21
TORSDOF 8
ENDMDL
MODEL 5
REMARK VINA RESULT:      -7.4      5.360      7.425
REMARK  Name = 
REMARK  8 active torsions:
REMARK  status: ('A' for Active; 'I' for Inactive)
REMARK    1  A    between atoms: C_2  and  C_3
REMARK    2  A    between atoms: C_8  and  C_9
REMARK    3  A    between atoms: N_14  and  C_15
REMARK    4  A    between atoms: N_14  and  C_19
REMARK    5  A    between atoms: C_15  and  C_16
REMARK    6  A    between atoms: C_16  and  C_17
REMARK    7  A    between atoms: C_17  and  O_18
REMARK    8  A    between atoms: C_19  and  C_20
REMARK                            x       y       z     vdW  Elec       q    Type
REMARK                         _______ _______ _______ _____ _____    ______ ____
ROOT
ATOM      1  O   UNL     1       1.785   9.550  17.938  0.00  0.00    +0.000 OA
ATOM      2  C   UNL     1       1.020   9.531  18.903  0.00  0.00    +0.000 C 
ATOM      3  N   UNL     1       1.223   8.604  19.947  0.00  0.00    +0.000 N 
ENDROOT
BRANCH   2   4
ATOM      4  C   UNL     1      -0.164  10.451  18.840  0.00  0.00    +0.000 A 
ATOM      5  C   UNL     1      -1.409   9.944  18.426  0.00  0.00    +0.000 A 
ATOM      6  C   UNL     1      -2.498  10.785  18.183  0.00  0.00    +0.000 A 
ATOM      7  C   UNL     1      -2.393  12.139  18.451  0.00  0.00    +0.000 A 
ATOM      8  C   UNL     1      -1.218  12.636  19.009  0.00  0.00    +0.000 A 
ATOM      9  C   UNL     1      -0.086  11.814  19.230  0.00  0.00    +0.000 A 
BRANCH   9  10
ATOM     10  C   UNL     1       1.040  12.481  19.901  0.00  0.00    +0.000 A 
ATOM     11  N   UNL     1       1.158  12.689  21.201  0.00  0.00    +0.000 NA
ATOM     12  N   UNL     1       2.352  13.335  21.399  0.00  0.00    +0.000 NA
ATOM     13  N   UNL     1       2.961  13.561  20.247  0.00  0.00    +0.000 NA
ATOM     14  N   UNL     1       2.157  13.020  19.321  0.00  0.00    +0.000 N 
ATOM     15  H   UNL     1       2.448  12.995  18.353  0.00  0.00    +0.000 HD
ENDBRANCH   9  10
ENDBRANCH   2   4
BRANCH   3  16
ATOM     16  C   UNL     1       0.448   8.440  21.188  0.00  0.00    +0.000 C 
BRANCH  16  17
ATOM     17  C   UNL     1       0.795   9.388  22.335  0.00  0.00    +0.000 C 
BRANCH  17  18
ATOM     18  C   UNL     1      -0.419   9.830  23.135  0.00  0.00    +0.000 C 
BRANCH  18  19
ATOM     19  O   UNL     1      -0.494  11.251  23.132  0.00  0.00    +0.000 OA
ATOM     20  H   UNL     1      -0.733  11.542  22.236  0.00  0.00    +0.000 HD
ENDBRANCH  18  19
ENDBRANCH  17  18
ENDBRANCH  16  17
ENDBRANCH   3  16
BRANCH   3  21
ATOM     21  C   UNL     1       2.428   7.766  19.842  0.00  0.00    +0.000 C 
BRANCH  21  22
ATOM     22  C   UNL     1       2.144   6.304  19.568  0.00  0.00    +0.000 A 
ATOM     23  C   UNL     1       1.762   5.432  20.599  0.00  0.00    +0.000 A 
ATOM     24  C   UNL     1       1.430   4.099  20.318  0.00  0.00    +0.000 A 
ATOM     25  C   UNL     1       1.481   3.632  19.008  0.00  0.00    +0.000 A 
ATOM     26 CL   UNL     1       1.027   2.009  18.657  0.00  0.00    +0.000 Cl
ATOM     27  C   UNL     1       1.883   4.474  17.976  0.00  0.00    +0.000 A 
ATOM     28  C   UNL     1       2.217   5.802  18.258  0.00  0.00    +0.000 A 
ENDBRANCH  21  22
ENDBRANCH   3  21
TORSDOF 8
ENDMDL
MODEL 6
REMARK VINA RESULT:      -7.4      3.864      6.613
REMARK  Name = 
REMARK  8 active torsions:
REMARK  status: ('A' for Active; 'I' for Inactive)
REMARK    1  A    between atoms: C_2  and  C_3
REMARK    2  A    between atoms: C_8  and  C_9
REMARK    3  A    between atoms: N_14  and  C_15
REMARK    4  A    between atoms: N_14  and  C_19
REMARK    5  A    between atoms: C_15  and  C_16
REMARK    6  A    between atoms: C_16  and  C_17
REMARK    7  A    between atoms: C_17  and  O_18
REMARK    8  A    between atoms: C_19  and  C_20
REMARK                            x       y       z     vdW  Elec       q    Type
REMARK                         _______ _______ _______ _____ _____    ______ ____
ROOT
ATOM      1  O   UNL     1       2.082   5.783  21.022  0.00  0.00    +0.000 OA
ATOM      2  C   UNL     1       2.361   5.677  19.828  0.00  0.00    +0.000 C 
ATOM      3  N   UNL     1       2.539   6.833  19.039  0.00  0.00    +0.000 N 
ENDROOT
BRANCH   2   4
ATOM      4  C   UNL     1       2.389   4.286  19.265  0.00  0.00    +0.000 A 
ATOM      5  C   UNL     1       1.176   3.647  18.951  0.00  0.00    +0.000 A 
ATOM      6  C   UNL     1       1.131   2.297  18.590  0.00  0.00    +0.000 A 
ATOM      7  C   UNL     1       2.311   1.589  18.434  0.00  0.00    +0.000 A 
ATOM      8  C   UNL     1       3.529   2.247  18.589  0.00  0.00    +0.000 A 
ATOM      9  C   UNL     1       3.602   3.603  18.991  0.00  0.00    +0.000 A 
BRANCH   9  10
ATOM     10  C   UNL     1       4.962   4.163  19.026  0.00  0.00    +0.000 A 
ATOM     11  N   UNL     1       5.393   5.112  19.839  0.00  0.00    +0.000 NA
ATOM     12  N   UNL     1       6.714   5.331  19.540  0.00  0.00    +0.000 NA
ATOM     13  N   UNL     1       7.101   4.563  18.536  0.00  0.00    +0.000 NA
ATOM     14  N   UNL     1       6.023   3.830  18.226  0.00  0.00    +0.000 N 
ATOM     15  H   UNL     1       6.092   3.100  17.530  0.00  0.00    +0.000 HD
ENDBRANCH   9  10
ENDBRANCH   2   4
BRANCH   3  16
ATOM     16  C   UNL     1       2.901   6.922  17.615  0.00  0.00    +0.000 C 
BRANCH  16  17
ATOM     17  C   UNL     1       4.319   7.398  17.303  0.00  0.00    +0.000 C 
BRANCH  17  18
ATOM     18  C   UNL     1       5.009   6.566  16.236  0.00  0.00    +0.000 C 
BRANCH  18  19
ATOM     19  O   UNL     1       6.400   6.488  16.525  0.00  0.00    +0.000 OA
ATOM     20  H   UNL     1       6.604   7.137  17.220  0.00  0.00    +0.000 HD
ENDBRANCH  18  19
ENDBRANCH  17  18
ENDBRANCH  16  17
ENDBRANCH   3  16
BRANCH   3  21
ATOM     21  C   UNL     1       2.464   8.119  19.751  0.00  0.00    +0.000 C 
BRANCH  21  22
ATOM     22  C   UNL     1       1.204   8.910  19.470  0.00  0.00    +0.000 A 
ATOM     23  C   UNL     1       0.358   9.326  20.510  0.00  0.00    +0.000 A 
ATOM     24  C   UNL     1      -0.765  10.121  20.241  0.00  0.00    +0.000 A 
ATOM     25  C   UNL     1      -1.048  10.502  18.933  0.00  0.00    +0.000 A 
ATOM     26 CL   UNL     1      -2.399  11.518  18.608  0.00  0.00    +0.000 Cl
ATOM     27  C   UNL     1      -0.236  10.079  17.886  0.00  0.00    +0.000 A 
ATOM     28  C   UNL     1       0.881   9.283  18.154  0.00  0.00    +0.000 A 
ENDBRANCH  21  22
ENDBRANCH   3  21
TORSDOF 8
ENDMDL
MODEL 7
REMARK VINA RESULT:      -7.3      3.945      6.792
REMARK  Name = 
REMARK  8 active torsions:
REMARK  status: ('A' for Active; 'I' for Inactive)
REMARK    1  A    between atoms: C_2  and  C_3
REMARK    2  A    between atoms: C_8  and  C_9
REMARK    3  A    between atoms: N_14  and  C_15
REMARK    4  A    between atoms: N_14  and  C_19
REMARK    5  A    between atoms: C_15  and  C_16
REMARK    6  A    between atoms: C_16  and  C_17
REMARK    7  A    between atoms: C_17  and  O_18
REMARK    8  A    between atoms: C_19  and  C_20
REMARK                            x       y       z     vdW  Elec       q    Type
REMARK                         _______ _______ _______ _____ _____    ______ ____
ROOT
ATOM      1  O   UNL     1       3.762   6.909  17.482  0.00  0.00    +0.000 OA
ATOM      2  C   UNL     1       3.114   6.236  18.283  0.00  0.00    +0.000 C 
ATOM      3  N   UNL     1       2.500   6.857  19.392  0.00  0.00    +0.000 N 
ENDROOT
BRANCH   2   4
ATOM      4  C   UNL     1       3.115   4.751  18.071  0.00  0.00    +0.000 A 
ATOM      5  C   UNL     1       1.975   4.132  17.525  0.00  0.00    +0.000 A 
ATOM      6  C   UNL     1       1.853   2.742  17.467  0.00  0.00    +0.000 A 
ATOM      7  C   UNL     1       2.914   1.942  17.858  0.00  0.00    +0.000 A 
ATOM      8  C   UNL     1       4.109   2.539  18.254  0.00  0.00    +0.000 A 
ATOM      9  C   UNL     1       4.247   3.944  18.359  0.00  0.00    +0.000 A 
BRANCH   9  10
ATOM     10  C   UNL     1       5.598   4.407  18.711  0.00  0.00    +0.000 A 
ATOM     11  N   UNL     1       5.929   5.093  19.791  0.00  0.00    +0.000 NA
ATOM     12  N   UNL     1       7.282   5.314  19.731  0.00  0.00    +0.000 NA
ATOM     13  N   UNL     1       7.791   4.808  18.620  0.00  0.00    +0.000 NA
ATOM     14  N   UNL     1       6.753   4.234  17.995  0.00  0.00    +0.000 N 
ATOM     15  H   UNL     1       6.905   3.704  17.148  0.00  0.00    +0.000 HD
ENDBRANCH   9  10
ENDBRANCH   2   4
BRANCH   3  16
ATOM     16  C   UNL     1       1.666   6.242  20.439  0.00  0.00    +0.000 C 
BRANCH  16  17
ATOM     17  C   UNL     1       2.272   5.050  21.177  0.00  0.00    +0.000 C 
BRANCH  17  18
ATOM     18  C   UNL     1       1.434   3.788  21.066  0.00  0.00    +0.000 C 
BRANCH  18  19
ATOM     19  O   UNL     1       2.223   2.665  21.443  0.00  0.00    +0.000 OA
ATOM     20  H   UNL     1       1.794   1.862  21.101  0.00  0.00    +0.000 HD
ENDBRANCH  18  19
ENDBRANCH  17  18
ENDBRANCH  16  17
ENDBRANCH   3  16
BRANCH   3  21
ATOM     21  C   UNL     1       2.609   8.323  19.454  0.00  0.00    +0.000 C 
BRANCH  21  22
ATOM     22  C   UNL     1       1.313   9.053  19.175  0.00  0.00    +0.000 A 
ATOM     23  C   UNL     1       0.823   9.195  17.867  0.00  0.00    +0.000 A 
ATOM     24  C   UNL     1      -0.415   9.808  17.633  0.00  0.00    +0.000 A 
ATOM     25  C   UNL     1      -1.168  10.284  18.701  0.00  0.00    +0.000 A 
ATOM     26 CL   UNL     1      -2.711  10.994  18.416  0.00  0.00    +0.000 Cl
ATOM     27  C   UNL     1      -0.689  10.176  20.003  0.00  0.00    +0.000 A 
ATOM     28  C   UNL     1       0.548   9.568  20.236  0.00  0.00    +0.000 A 
ENDBRANCH  21  22
ENDBRANCH   3  21
TORSDOF 8
ENDMDL
MODEL 8
REMARK VINA RESULT:      -7.3      4.182      7.280
REMARK  Name = 
REMARK  8 active torsions:
REMARK  status: ('A' for Active; 'I' for Inactive)
REMARK    1  A    between atoms: C_2  and  C_3
REMARK    2  A    between atoms: C_8  and  C_9
REMARK    3  A    between atoms: N_14  and  C_15
REMARK    4  A    between atoms: N_14  and  C_19
REMARK    5  A    between atoms: C_15  and  C_16
REMARK    6  A    between atoms: C_16  and  C_17
REMARK    7  A    between atoms: C_17  and  O_18
REMARK    8  A    between atoms: C_19  and  C_20
REMARK                            x       y       z     vdW  Elec       q    Type
REMARK                         _______ _______ _______ _____ _____    ______ ____
ROOT
ATOM      1  O   UNL     1       3.569   6.815  17.323  0.00  0.00    +0.000 OA
ATOM      2  C   UNL     1       3.001   6.129  18.172  0.00  0.00    +0.000 C 
ATOM      3  N   UNL     1       2.289   6.748  19.221  0.00  0.00    +0.000 N 
ENDROOT
BRANCH   2   4
ATOM      4  C   UNL     1       3.204   4.644  18.083  0.00  0.00    +0.000 A 
ATOM      5  C   UNL     1       2.164   3.836  17.588  0.00  0.00    +0.000 A 
ATOM      6  C   UNL     1       2.231   2.441  17.645  0.00  0.00    +0.000 A 
ATOM      7  C   UNL     1       3.385   1.827  18.101  0.00  0.00    +0.000 A 
ATOM      8  C   UNL     1       4.484   2.609  18.449  0.00  0.00    +0.000 A 
ATOM      9  C   UNL     1       4.431   4.024  18.437  0.00  0.00    +0.000 A 
BRANCH   9  10
ATOM     10  C   UNL     1       5.703   4.691  18.752  0.00  0.00    +0.000 A 
ATOM     11  N   UNL     1       6.279   4.749  19.940  0.00  0.00    +0.000 NA
ATOM     12  N   UNL     1       7.444   5.458  19.790  0.00  0.00    +0.000 NA
ATOM     13  N   UNL     1       7.585   5.870  18.542  0.00  0.00    +0.000 NA
ATOM     14  N   UNL     1       6.517   5.384  17.895  0.00  0.00    +0.000 N 
ATOM     15  H   UNL     1       6.437   5.500  16.894  0.00  0.00    +0.000 HD
ENDBRANCH   9  10
ENDBRANCH   2   4
BRANCH   3  16
ATOM     16  C   UNL     1       1.525   6.113  20.308  0.00  0.00    +0.000 C 
BRANCH  16  17
ATOM     17  C   UNL     1       2.275   5.088  21.157  0.00  0.00    +0.000 C 
BRANCH  17  18
ATOM     18  C   UNL     1       1.592   3.732  21.200  0.00  0.00    +0.000 C 
BRANCH  18  19
ATOM     19  O   UNL     1       2.400   2.821  21.937  0.00  0.00    +0.000 OA
ATOM     20  H   UNL     1       3.333   3.018  21.747  0.00  0.00    +0.000 HD
ENDBRANCH  18  19
ENDBRANCH  17  18
ENDBRANCH  16  17
ENDBRANCH   3  16
BRANCH   3  21
ATOM     21  C   UNL     1       2.201   8.216  19.163  0.00  0.00    +0.000 C 
BRANCH  21  22
ATOM     22  C   UNL     1       1.270   8.822  20.192  0.00  0.00    +0.000 A 
ATOM     23  C   UNL     1       1.485   8.638  21.567  0.00  0.00    +0.000 A 
ATOM     24  C   UNL     1       0.657   9.266  22.508  0.00  0.00    +0.000 A 
ATOM     25  C   UNL     1      -0.388  10.078  22.081  0.00  0.00    +0.000 A 
ATOM     26 CL   UNL     1      -1.374  10.888  23.236  0.00  0.00    +0.000 Cl
ATOM     27  C   UNL     1      -0.633  10.253  20.722  0.00  0.00    +0.000 A 
ATOM     28  C   UNL     1       0.189   9.623  19.784  0.00  0.00    +0.000 A 
ENDBRANCH  21  22
ENDBRANCH   3  21
TORSDOF 8
ENDMDL
MODEL 9
REMARK VINA RESULT:      -7.3      2.916      4.951
REMARK  Name = 
REMARK  8 active torsions:
REMARK  status: ('A' for Active; 'I' for Inactive)
REMARK    1  A    between atoms: C_2  and  C_3
REMARK    2  A    between atoms: C_8  and  C_9
REMARK    3  A    between atoms: N_14  and  C_15
REMARK    4  A    between atoms: N_14  and  C_19
REMARK    5  A    between atoms: C_15  and  C_16
REMARK    6  A    between atoms: C_16  and  C_17
REMARK    7  A    between atoms: C_17  and  O_18
REMARK    8  A    between atoms: C_19  and  C_20
REMARK                            x       y       z     vdW  Elec       q    Type
REMARK                         _______ _______ _______ _____ _____    ______ ____
ROOT
ATOM      1  O   UNL     1       5.587   4.056  19.765  0.00  0.00    +0.000 OA
ATOM      2  C   UNL     1       5.034   3.873  18.680  0.00  0.00    +0.000 C 
ATOM      3  N   UNL     1       5.741   4.099  17.480  0.00  0.00    +0.000 N 
ENDROOT
BRANCH   2   4
ATOM      4  C   UNL     1       3.578   3.514  18.720  0.00  0.00    +0.000 A 
ATOM      5  C   UNL     1       3.202   2.192  19.021  0.00  0.00    +0.000 A 
ATOM      6  C   UNL     1       1.879   1.761  18.901  0.00  0.00    +0.000 A 
ATOM      7  C   UNL     1       0.886   2.672  18.580  0.00  0.00    +0.000 A 
ATOM      8  C   UNL     1       1.216   4.017  18.431  0.00  0.00    +0.000 A 
ATOM      9  C   UNL     1       2.554   4.474  18.509  0.00  0.00    +0.000 A 
BRANCH   9  10
ATOM     10  C   UNL     1       2.714   5.933  18.411  0.00  0.00    +0.000 A 
ATOM     11  N   UNL     1       2.271   6.825  19.280  0.00  0.00    +0.000 NA
ATOM     12  N   UNL     1       2.636   8.062  18.811  0.00  0.00    +0.000 NA
ATOM     13  N   UNL     1       3.267   7.957  17.653  0.00  0.00    +0.000 NA
ATOM     14  N   UNL     1       3.329   6.640  17.412  0.00  0.00    +0.000 N 
ATOM     15  H   UNL     1       3.842   6.298  16.611  0.00  0.00    +0.000 HD
ENDBRANCH   9  10
ENDBRANCH   2   4
BRANCH   3  16
ATOM     16  C   UNL     1       5.276   3.912  16.096  0.00  0.00    +0.000 C 
BRANCH  16  17
ATOM     17  C   UNL     1       6.360   3.792  15.026  0.00  0.00    +0.000 C 
BRANCH  17  18
ATOM     18  C   UNL     1       5.830   3.973  13.613  0.00  0.00    +0.000 C 
BRANCH  18  19
ATOM     19  O   UNL     1       6.275   2.892  12.802  0.00  0.00    +0.000 OA
ATOM     20  H   UNL     1       7.007   3.209  12.246  0.00  0.00    +0.000 HD
ENDBRANCH  18  19
ENDBRANCH  17  18
ENDBRANCH  16  17
ENDBRANCH   3  16
BRANCH   3  21
ATOM     21  C   UNL     1       7.161   4.459  17.625  0.00  0.00    +0.000 C 
BRANCH  21  22
ATOM     22  C   UNL     1       7.407   5.942  17.810  0.00  0.00    +0.000 A 
ATOM     23  C   UNL     1       8.238   6.420  18.834  0.00  0.00    +0.000 A 
ATOM     24  C   UNL     1       8.516   7.789  18.947  0.00  0.00    +0.000 A 
ATOM     25  C   UNL     1       7.963   8.687  18.038  0.00  0.00    +0.000 A 
ATOM     26 CL   UNL     1       8.342  10.362  18.148  0.00  0.00    +0.000 Cl
ATOM     27  C   UNL     1       7.115   8.235  17.031  0.00  0.00    +0.000 A 
ATOM     28  C   UNL     1       6.836   6.870  16.922  0.00  0.00    +0.000 A 
ENDBRANCH  21  22
ENDBRANCH   3  21
TORSDOF 8
ENDMDL
