MODEL 1
REMARK VINA RESULT:      -7.6      0.000      0.000
REMARK  Name = 
REMARK  7 active torsions:
REMARK  status: ('A' for Active; 'I' for Inactive)
REMARK    1  A    between atoms: C_1  and  O_2
REMARK    2  A    between atoms: O_2  and  C_3
REMARK    3  A    between atoms: C_9  and  C_10
REMARK    4  A    between atoms: C_13  and  C_14
REMARK    5  A    between atoms: N_18  and  C_19
REMARK    6  A    between atoms: C_30  and  O_31
REMARK    7  A    between atoms: O_31  and  C_32
REMARK                            x       y       z     vdW  Elec       q    Type
REMARK                         _______ _______ _______ _____ _____    ______ ____
ROOT
ATOM      1  C   UNL     1       0.863  16.771  18.508  0.00  0.00    +0.000 A 
ATOM      2  C   UNL     1       1.863  15.799  18.475  0.00  0.00    +0.000 A 
ATOM      3  C   UNL     1       1.590  14.456  18.637  0.00  0.00    +0.000 A 
ATOM      4  N   UNL     1       2.608  13.630  18.411  0.00  0.00    +0.000 NA
ATOM      5  C   UNL     1       2.414  12.304  18.493  0.00  0.00    +0.000 A 
ATOM      6  C   UNL     1       1.177  11.775  18.858  0.00  0.00    +0.000 A 
ATOM      7  C   UNL     1       0.714  10.456  19.112  0.00  0.00    +0.000 A 
ATOM      8  N   UNL     1      -0.579  10.470  19.450  0.00  0.00    +0.000 NA
ATOM      9  N   UNL     1      -0.989  11.764  19.281  0.00  0.00    +0.000 N 
ATOM     10  C   UNL     1       0.085  12.628  19.049  0.00  0.00    +0.000 A 
ATOM     11  C   UNL     1       0.285  14.052  18.981  0.00  0.00    +0.000 A 
ATOM     12  C   UNL     1      -0.677  15.059  19.223  0.00  0.00    +0.000 A 
ATOM     13  C   UNL     1      -0.416  16.409  18.935  0.00  0.00    +0.000 A 
ENDROOT
BRANCH   9  14
ATOM     14  C   UNL     1      -2.385  12.019  19.383  0.00  0.00    +0.000 A 
ATOM     15  C   UNL     1      -3.220  11.678  18.305  0.00  0.00    +0.000 A 
ATOM     16  C   UNL     1      -4.603  11.860  18.402  0.00  0.00    +0.000 A 
ATOM     17  C   UNL     1      -5.147  12.395  19.565  0.00  0.00    +0.000 A 
ATOM     18  F   UNL     1      -6.473  12.544  19.665  0.00  0.00    +0.000 F 
ATOM     19  C   UNL     1      -4.330  12.796  20.612  0.00  0.00    +0.000 A 
ATOM     20  C   UNL     1      -2.951  12.635  20.500  0.00  0.00    +0.000 A 
ATOM     21  F   UNL     1      -2.183  13.148  21.471  0.00  0.00    +0.000 F 
ENDBRANCH   9  14
BRANCH   7  22
ATOM     22  C   UNL     1       1.507   9.225  19.018  0.00  0.00    +0.000 A 
ATOM     23  C   UNL     1       2.093   8.858  17.798  0.00  0.00    +0.000 A 
ATOM     24  C   UNL     1       2.647   7.592  17.617  0.00  0.00    +0.000 A 
ATOM     25  C   UNL     1       2.673   6.679  18.672  0.00  0.00    +0.000 A 
ATOM     26  C   UNL     1       3.212   5.295  18.463  0.00  0.00    +0.000 C 
ATOM     27  C   UNL     1       2.183   7.076  19.924  0.00  0.00    +0.000 A 
ATOM     28  C   UNL     1       1.599   8.338  20.097  0.00  0.00    +0.000 A 
ENDBRANCH   7  22
BRANCH   1  30
ATOM     29  C   UNL     1       1.123  18.329  16.746  0.00  0.00    +0.000 C 
ATOM     30  O   UNL     1       1.138  18.065  18.154  0.00  0.00    +0.000 OA
ENDBRANCH   1  30
BRANCH  13  31
ATOM     31  O   UNL     1      -1.534  17.183  19.082  0.00  0.00    +0.000 OA
ATOM     32  C   UNL     1      -1.819  17.751  20.351  0.00  0.00    +0.000 C 
ENDBRANCH  13  31
TORSDOF 4
ENDMDL
MODEL 2
REMARK VINA RESULT:      -7.5      1.051      1.511
REMARK  Name = 
REMARK  7 active torsions:
REMARK  status: ('A' for Active; 'I' for Inactive)
REMARK    1  A    between atoms: C_1  and  O_2
REMARK    2  A    between atoms: O_2  and  C_3
REMARK    3  A    between atoms: C_9  and  C_10
REMARK    4  A    between atoms: C_13  and  C_14
REMARK    5  A    between atoms: N_18  and  C_19
REMARK    6  A    between atoms: C_30  and  O_31
REMARK    7  A    between atoms: O_31  and  C_32
REMARK                            x       y       z     vdW  Elec       q    Type
REMARK                         _______ _______ _______ _____ _____    ______ ____
ROOT
ATOM      1  C   UNL     1       1.420  16.707  18.717  0.00  0.00    +0.000 A 
ATOM      2  C   UNL     1       2.245  15.643  18.353  0.00  0.00    +0.000 A 
ATOM      3  C   UNL     1       1.916  14.331  18.624  0.00  0.00    +0.000 A 
ATOM      4  N   UNL     1       2.703  13.413  18.070  0.00  0.00    +0.000 NA
ATOM      5  C   UNL     1       2.421  12.111  18.238  0.00  0.00    +0.000 A 
ATOM      6  C   UNL     1       1.345  11.699  19.023  0.00  0.00    +0.000 A 
ATOM      7  C   UNL     1       0.873  10.428  19.446  0.00  0.00    +0.000 A 
ATOM      8  N   UNL     1      -0.211  10.562  20.215  0.00  0.00    +0.000 NA
ATOM      9  N   UNL     1      -0.525  11.893  20.178  0.00  0.00    +0.000 N 
ATOM     10  C   UNL     1       0.478  12.652  19.569  0.00  0.00    +0.000 A 
ATOM     11  C   UNL     1       0.781  14.050  19.410  0.00  0.00    +0.000 A 
ATOM     12  C   UNL     1       0.068  15.143  19.956  0.00  0.00    +0.000 A 
ATOM     13  C   UNL     1       0.344  16.465  19.572  0.00  0.00    +0.000 A 
ENDROOT
BRANCH   9  14
ATOM     14  C   UNL     1      -1.764  12.282  20.758  0.00  0.00    +0.000 A 
ATOM     15  C   UNL     1      -2.855  12.559  19.914  0.00  0.00    +0.000 A 
ATOM     16  C   UNL     1      -4.101  12.882  20.459  0.00  0.00    +0.000 A 
ATOM     17  C   UNL     1      -4.253  12.945  21.840  0.00  0.00    +0.000 A 
ATOM     18  F   UNL     1      -5.453  13.230  22.360  0.00  0.00    +0.000 F 
ATOM     19  C   UNL     1      -3.172  12.738  22.685  0.00  0.00    +0.000 A 
ATOM     20  C   UNL     1      -1.927  12.441  22.135  0.00  0.00    +0.000 A 
ATOM     21  F   UNL     1      -0.879  12.374  22.967  0.00  0.00    +0.000 F 
ENDBRANCH   9  14
BRANCH   7  22
ATOM     22  C   UNL     1       1.458   9.127  19.102  0.00  0.00    +0.000 A 
ATOM     23  C   UNL     1       1.581   8.131  20.082  0.00  0.00    +0.000 A 
ATOM     24  C   UNL     1       2.337   6.983  19.850  0.00  0.00    +0.000 A 
ATOM     25  C   UNL     1       2.948   6.781  18.612  0.00  0.00    +0.000 A 
ATOM     26  C   UNL     1       3.813   5.578  18.381  0.00  0.00    +0.000 C 
ATOM     27  C   UNL     1       2.743   7.722  17.594  0.00  0.00    +0.000 A 
ATOM     28  C   UNL     1       2.007   8.891  17.837  0.00  0.00    +0.000 A 
ENDBRANCH   7  22
BRANCH   1  30
ATOM     29  C   UNL     1       1.040  18.327  17.034  0.00  0.00    +0.000 C 
ATOM     30  O   UNL     1       1.679  17.975  18.266  0.00  0.00    +0.000 OA
ENDBRANCH   1  30
BRANCH  13  31
ATOM     31  O   UNL     1      -0.571  17.343  20.088  0.00  0.00    +0.000 OA
ATOM     32  C   UNL     1      -1.916  17.279  19.643  0.00  0.00    +0.000 C 
ENDBRANCH  13  31
TORSDOF 4
ENDMDL
MODEL 3
REMARK VINA RESULT:      -7.4      1.107      1.743
REMARK  Name = 
REMARK  7 active torsions:
REMARK  status: ('A' for Active; 'I' for Inactive)
REMARK    1  A    between atoms: C_1  and  O_2
REMARK    2  A    between atoms: O_2  and  C_3
REMARK    3  A    between atoms: C_9  and  C_10
REMARK    4  A    between atoms: C_13  and  C_14
REMARK    5  A    between atoms: N_18  and  C_19
REMARK    6  A    between atoms: C_30  and  O_31
REMARK    7  A    between atoms: O_31  and  C_32
REMARK                            x       y       z     vdW  Elec       q    Type
REMARK                         _______ _______ _______ _____ _____    ______ ____
ROOT
ATOM      1  C   UNL     1       1.326  16.777  18.696  0.00  0.00    +0.000 A 
ATOM      2  C   UNL     1       2.164  15.718  18.349  0.00  0.00    +0.000 A 
ATOM      3  C   UNL     1       1.839  14.404  18.614  0.00  0.00    +0.000 A 
ATOM      4  N   UNL     1       2.643  13.491  18.077  0.00  0.00    +0.000 NA
ATOM      5  C   UNL     1       2.366  12.187  18.239  0.00  0.00    +0.000 A 
ATOM      6  C   UNL     1       1.277  11.769  19.002  0.00  0.00    +0.000 A 
ATOM      7  C   UNL     1       0.805  10.495  19.416  0.00  0.00    +0.000 A 
ATOM      8  N   UNL     1      -0.296  10.622  20.162  0.00  0.00    +0.000 NA
ATOM      9  N   UNL     1      -0.618  11.951  20.119  0.00  0.00    +0.000 N 
ATOM     10  C   UNL     1       0.393  12.716  19.530  0.00  0.00    +0.000 A 
ATOM     11  C   UNL     1       0.689  14.116  19.377  0.00  0.00    +0.000 A 
ATOM     12  C   UNL     1      -0.041  15.204  19.908  0.00  0.00    +0.000 A 
ATOM     13  C   UNL     1       0.233  16.528  19.528  0.00  0.00    +0.000 A 
ENDROOT
BRANCH   9  14
ATOM     14  C   UNL     1      -1.871  12.332  20.673  0.00  0.00    +0.000 A 
ATOM     15  C   UNL     1      -1.967  12.544  22.060  0.00  0.00    +0.000 A 
ATOM     16  C   UNL     1      -3.170  12.979  22.623  0.00  0.00    +0.000 A 
ATOM     17  C   UNL     1      -4.277  13.186  21.807  0.00  0.00    +0.000 A 
ATOM     18  F   UNL     1      -5.421  13.627  22.345  0.00  0.00    +0.000 F 
ATOM     19  C   UNL     1      -4.217  12.920  20.446  0.00  0.00    +0.000 A 
ATOM     20  C   UNL     1      -3.022  12.462  19.895  0.00  0.00    +0.000 A 
ATOM     21  F   UNL     1      -3.032  12.093  18.607  0.00  0.00    +0.000 F 
ENDBRANCH   9  14
BRANCH   7  22
ATOM     22  C   UNL     1       1.405   9.197  19.084  0.00  0.00    +0.000 A 
ATOM     23  C   UNL     1       1.547   8.215  20.076  0.00  0.00    +0.000 A 
ATOM     24  C   UNL     1       2.317   7.074  19.854  0.00  0.00    +0.000 A 
ATOM     25  C   UNL     1       2.923   6.865  18.614  0.00  0.00    +0.000 A 
ATOM     26  C   UNL     1       3.803   5.671  18.393  0.00  0.00    +0.000 C 
ATOM     27  C   UNL     1       2.700   7.791  17.586  0.00  0.00    +0.000 A 
ATOM     28  C   UNL     1       1.950   8.952  17.819  0.00  0.00    +0.000 A 
ENDBRANCH   7  22
BRANCH   1  30
ATOM     29  C   UNL     1       1.191  18.311  16.899  0.00  0.00    +0.000 C 
ATOM     30  O   UNL     1       1.586  18.046  18.250  0.00  0.00    +0.000 OA
ENDBRANCH   1  30
BRANCH  13  31
ATOM     31  O   UNL     1      -0.697  17.400  20.025  0.00  0.00    +0.000 OA
ATOM     32  C   UNL     1      -1.966  17.488  19.396  0.00  0.00    +0.000 C 
ENDBRANCH  13  31
TORSDOF 4
ENDMDL
MODEL 4
REMARK VINA RESULT:      -7.4      5.040      8.331
REMARK  Name = 
REMARK  7 active torsions:
REMARK  status: ('A' for Active; 'I' for Inactive)
REMARK    1  A    between atoms: C_1  and  O_2
REMARK    2  A    between atoms: O_2  and  C_3
REMARK    3  A    between atoms: C_9  and  C_10
REMARK    4  A    between atoms: C_13  and  C_14
REMARK    5  A    between atoms: N_18  and  C_19
REMARK    6  A    between atoms: C_30  and  O_31
REMARK    7  A    between atoms: O_31  and  C_32
REMARK                            x       y       z     vdW  Elec       q    Type
REMARK                         _______ _______ _______ _____ _____    ______ ____
ROOT
ATOM      1  C   UNL     1       0.944   9.750  19.701  0.00  0.00    +0.000 A 
ATOM      2  C   UNL     1       1.837   9.756  18.631  0.00  0.00    +0.000 A 
ATOM      3  C   UNL     1       2.501   8.619  18.219  0.00  0.00    +0.000 A 
ATOM      4  N   UNL     1       3.185   8.730  17.084  0.00  0.00    +0.000 NA
ATOM      5  C   UNL     1       3.815   7.655  16.583  0.00  0.00    +0.000 A 
ATOM      6  C   UNL     1       3.805   6.434  17.254  0.00  0.00    +0.000 A 
ATOM      7  C   UNL     1       4.442   5.185  17.021  0.00  0.00    +0.000 A 
ATOM      8  N   UNL     1       4.120   4.309  17.977  0.00  0.00    +0.000 NA
ATOM      9  N   UNL     1       3.176   4.934  18.745  0.00  0.00    +0.000 N 
ATOM     10  C   UNL     1       3.048   6.287  18.421  0.00  0.00    +0.000 A 
ATOM     11  C   UNL     1       2.384   7.437  18.977  0.00  0.00    +0.000 A 
ATOM     12  C   UNL     1       1.646   7.494  20.181  0.00  0.00    +0.000 A 
ATOM     13  C   UNL     1       0.880   8.622  20.520  0.00  0.00    +0.000 A 
ENDROOT
BRANCH   9  14
ATOM     14  C   UNL     1       2.513   4.144  19.726  0.00  0.00    +0.000 A 
ATOM     15  C   UNL     1       3.122   3.961  20.980  0.00  0.00    +0.000 A 
ATOM     16  C   UNL     1       2.465   3.242  21.982  0.00  0.00    +0.000 A 
ATOM     17  C   UNL     1       1.212   2.695  21.728  0.00  0.00    +0.000 A 
ATOM     18  F   UNL     1       0.573   2.029  22.698  0.00  0.00    +0.000 F 
ATOM     19  C   UNL     1       0.625   2.813  20.476  0.00  0.00    +0.000 A 
ATOM     20  C   UNL     1       1.296   3.509  19.473  0.00  0.00    +0.000 A 
ATOM     21  F   UNL     1       0.765   3.495  18.244  0.00  0.00    +0.000 F 
ENDBRANCH   9  14
BRANCH   7  22
ATOM     22  C   UNL     1       5.326   4.858  15.897  0.00  0.00    +0.000 A 
ATOM     23  C   UNL     1       6.627   5.382  15.852  0.00  0.00    +0.000 A 
ATOM     24  C   UNL     1       7.402   5.284  14.697  0.00  0.00    +0.000 A 
ATOM     25  C   UNL     1       6.912   4.615  13.575  0.00  0.00    +0.000 A 
ATOM     26  C   UNL     1       7.718   4.562  12.311  0.00  0.00    +0.000 C 
ATOM     27  C   UNL     1       5.654   3.999  13.649  0.00  0.00    +0.000 A 
ATOM     28  C   UNL     1       4.864   4.124  14.800  0.00  0.00    +0.000 A 
ENDBRANCH   7  22
BRANCH   1  30
ATOM     29  C   UNL     1      -1.093  10.875  19.271  0.00  0.00    +0.000 C 
ATOM     30  O   UNL     1       0.161  10.844  19.962  0.00  0.00    +0.000 OA
ENDBRANCH   1  30
BRANCH  13  31
ATOM     31  O   UNL     1       0.117   8.398  21.635  0.00  0.00    +0.000 OA
ATOM     32  C   UNL     1       0.203   9.305  22.723  0.00  0.00    +0.000 C 
ENDBRANCH  13  31
TORSDOF 4
ENDMDL
MODEL 5
REMARK VINA RESULT:      -7.4      3.239      5.003
REMARK  Name = 
REMARK  7 active torsions:
REMARK  status: ('A' for Active; 'I' for Inactive)
REMARK    1  A    between atoms: C_1  and  O_2
REMARK    2  A    between atoms: O_2  and  C_3
REMARK    3  A    between atoms: C_9  and  C_10
REMARK    4  A    between atoms: C_13  and  C_14
REMARK    5  A    between atoms: N_18  and  C_19
REMARK    6  A    between atoms: C_30  and  O_31
REMARK    7  A    between atoms: O_31  and  C_32
REMARK                            x       y       z     vdW  Elec       q    Type
REMARK                         _______ _______ _______ _____ _____    ______ ____
ROOT
ATOM      1  C   UNL     1      -5.868  12.692  18.672  0.00  0.00    +0.000 A 
ATOM      2  C   UNL     1      -5.061  11.763  18.017  0.00  0.00    +0.000 A 
ATOM      3  C   UNL     1      -3.788  11.457  18.451  0.00  0.00    +0.000 A 
ATOM      4  N   UNL     1      -3.200  10.433  17.839  0.00  0.00    +0.000 NA
ATOM      5  C   UNL     1      -1.982  10.034  18.238  0.00  0.00    +0.000 A 
ATOM      6  C   UNL     1      -1.298  10.703  19.251  0.00  0.00    +0.000 A 
ATOM      7  C   UNL     1       0.004  10.572  19.804  0.00  0.00    +0.000 A 
ATOM      8  N   UNL     1       0.198  11.476  20.769  0.00  0.00    +0.000 NA
ATOM      9  N   UNL     1      -1.010  12.095  20.939  0.00  0.00    +0.000 N 
ATOM     10  C   UNL     1      -1.923  11.749  19.939  0.00  0.00    +0.000 A 
ATOM     11  C   UNL     1      -3.222  12.196  19.509  0.00  0.00    +0.000 A 
ATOM     12  C   UNL     1      -3.964  13.281  20.029  0.00  0.00    +0.000 A 
ATOM     13  C   UNL     1      -5.301  13.499  19.660  0.00  0.00    +0.000 A 
ENDROOT
BRANCH   9  14
ATOM     14  C   UNL     1      -1.137  12.973  22.052  0.00  0.00    +0.000 A 
ATOM     15  C   UNL     1      -0.303  14.103  22.127  0.00  0.00    +0.000 A 
ATOM     16  C   UNL     1      -0.448  15.015  23.176  0.00  0.00    +0.000 A 
ATOM     17  C   UNL     1      -1.410  14.791  24.155  0.00  0.00    +0.000 A 
ATOM     18  F   UNL     1      -1.564  15.679  25.145  0.00  0.00    +0.000 F 
ATOM     19  C   UNL     1      -2.196  13.649  24.130  0.00  0.00    +0.000 A 
ATOM     20  C   UNL     1      -2.031  12.731  23.096  0.00  0.00    +0.000 A 
ATOM     21  F   UNL     1      -2.712  11.579  23.169  0.00  0.00    +0.000 F 
ENDBRANCH   9  14
BRANCH   7  22
ATOM     22  C   UNL     1       1.020   9.590  19.409  0.00  0.00    +0.000 A 
ATOM     23  C   UNL     1       1.596   9.651  18.131  0.00  0.00    +0.000 A 
ATOM     24  C   UNL     1       2.381   8.606  17.645  0.00  0.00    +0.000 A 
ATOM     25  C   UNL     1       2.650   7.496  18.446  0.00  0.00    +0.000 A 
ATOM     26  C   UNL     1       3.441   6.344  17.904  0.00  0.00    +0.000 C 
ATOM     27  C   UNL     1       2.163   7.476  19.761  0.00  0.00    +0.000 A 
ATOM     28  C   UNL     1       1.349   8.513  20.239  0.00  0.00    +0.000 A 
ENDBRANCH   7  22
BRANCH   1  30
ATOM     29  C   UNL     1      -7.447  13.716  17.237  0.00  0.00    +0.000 C 
ATOM     30  O   UNL     1      -7.188  12.830  18.333  0.00  0.00    +0.000 OA
ENDBRANCH   1  30
BRANCH  13  31
ATOM     31  O   UNL     1      -5.877  14.492  20.406  0.00  0.00    +0.000 OA
ATOM     32  C   UNL     1      -6.361  14.187  21.704  0.00  0.00    +0.000 C 
ENDBRANCH  13  31
TORSDOF 4
ENDMDL
MODEL 6
REMARK VINA RESULT:      -7.2      0.915      1.251
REMARK  Name = 
REMARK  7 active torsions:
REMARK  status: ('A' for Active; 'I' for Inactive)
REMARK    1  A    between atoms: C_1  and  O_2
REMARK    2  A    between atoms: O_2  and  C_3
REMARK    3  A    between atoms: C_9  and  C_10
REMARK    4  A    between atoms: C_13  and  C_14
REMARK    5  A    between atoms: N_18  and  C_19
REMARK    6  A    between atoms: C_30  and  O_31
REMARK    7  A    between atoms: O_31  and  C_32
REMARK                            x       y       z     vdW  Elec       q    Type
REMARK                         _______ _______ _______ _____ _____    ______ ____
ROOT
ATOM      1  C   UNL     1       0.618  16.906  18.894  0.00  0.00    +0.000 A 
ATOM      2  C   UNL     1       1.637  15.955  18.854  0.00  0.00    +0.000 A 
ATOM      3  C   UNL     1       1.384  14.601  18.935  0.00  0.00    +0.000 A 
ATOM      4  N   UNL     1       2.425  13.806  18.710  0.00  0.00    +0.000 NA
ATOM      5  C   UNL     1       2.254  12.474  18.715  0.00  0.00    +0.000 A 
ATOM      6  C   UNL     1       1.014  11.905  19.000  0.00  0.00    +0.000 A 
ATOM      7  C   UNL     1       0.567  10.568  19.166  0.00  0.00    +0.000 A 
ATOM      8  N   UNL     1      -0.739  10.541  19.449  0.00  0.00    +0.000 NA
ATOM      9  N   UNL     1      -1.167  11.835  19.330  0.00  0.00    +0.000 N 
ATOM     10  C   UNL     1      -0.101  12.729  19.188  0.00  0.00    +0.000 A 
ATOM     11  C   UNL     1       0.074  14.157  19.202  0.00  0.00    +0.000 A 
ATOM     12  C   UNL     1      -0.917  15.134  19.454  0.00  0.00    +0.000 A 
ATOM     13  C   UNL     1      -0.670  16.500  19.248  0.00  0.00    +0.000 A 
ENDROOT
BRANCH   9  14
ATOM     14  C   UNL     1      -2.570  12.060  19.386  0.00  0.00    +0.000 A 
ATOM     15  C   UNL     1      -3.123  12.637  20.544  0.00  0.00    +0.000 A 
ATOM     16  C   UNL     1      -4.488  12.927  20.602  0.00  0.00    +0.000 A 
ATOM     17  C   UNL     1      -5.303  12.627  19.514  0.00  0.00    +0.000 A 
ATOM     18  F   UNL     1      -6.606  12.929  19.562  0.00  0.00    +0.000 F 
ATOM     19  C   UNL     1      -4.785  12.000  18.390  0.00  0.00    +0.000 A 
ATOM     20  C   UNL     1      -3.427  11.691  18.348  0.00  0.00    +0.000 A 
ATOM     21  F   UNL     1      -2.984  10.973  17.308  0.00  0.00    +0.000 F 
ENDBRANCH   9  14
BRANCH   7  22
ATOM     22  C   UNL     1       1.386   9.357  19.042  0.00  0.00    +0.000 A 
ATOM     23  C   UNL     1       1.929   9.000  17.799  0.00  0.00    +0.000 A 
ATOM     24  C   UNL     1       2.508   7.747  17.599  0.00  0.00    +0.000 A 
ATOM     25  C   UNL     1       2.603   6.840  18.655  0.00  0.00    +0.000 A 
ATOM     26  C   UNL     1       3.168   5.469  18.428  0.00  0.00    +0.000 C 
ATOM     27  C   UNL     1       2.156   7.229  19.926  0.00  0.00    +0.000 A 
ATOM     28  C   UNL     1       1.547   8.477  20.119  0.00  0.00    +0.000 A 
ENDBRANCH   7  22
BRANCH   1  30
ATOM     29  C   UNL     1       0.609  18.631  17.274  0.00  0.00    +0.000 C 
ATOM     30  O   UNL     1       0.882  18.222  18.619  0.00  0.00    +0.000 OA
ENDBRANCH   1  30
BRANCH  13  31
ATOM     31  O   UNL     1      -1.809  17.247  19.387  0.00  0.00    +0.000 OA
ATOM     32  C   UNL     1      -2.497  17.231  20.628  0.00  0.00    +0.000 C 
ENDBRANCH  13  31
TORSDOF 4
ENDMDL
MODEL 7
REMARK VINA RESULT:      -7.2      3.325      5.026
REMARK  Name = 
REMARK  7 active torsions:
REMARK  status: ('A' for Active; 'I' for Inactive)
REMARK    1  A    between atoms: C_1  and  O_2
REMARK    2  A    between atoms: O_2  and  C_3
REMARK    3  A    between atoms: C_9  and  C_10
REMARK    4  A    between atoms: C_13  and  C_14
REMARK    5  A    between atoms: N_18  and  C_19
REMARK    6  A    between atoms: C_30  and  O_31
REMARK    7  A    between atoms: O_31  and  C_32
REMARK                            x       y       z     vdW  Elec       q    Type
REMARK                         _______ _______ _______ _____ _____    ______ ____
ROOT
ATOM      1  C   UNL     1      -5.811  12.266  18.358  0.00  0.00    +0.000 A 
ATOM      2  C   UNL     1      -4.972  11.343  17.734  0.00  0.00    +0.000 A 
ATOM      3  C   UNL     1      -3.694  11.086  18.186  0.00  0.00    +0.000 A 
ATOM      4  N   UNL     1      -3.072  10.064  17.606  0.00  0.00    +0.000 NA
ATOM      5  C   UNL     1      -1.846   9.711  18.026  0.00  0.00    +0.000 A 
ATOM      6  C   UNL     1      -1.191  10.425  19.027  0.00  0.00    +0.000 A 
ATOM      7  C   UNL     1       0.109  10.346  19.595  0.00  0.00    +0.000 A 
ATOM      8  N   UNL     1       0.267  11.280  20.537  0.00  0.00    +0.000 NA
ATOM      9  N   UNL     1      -0.959  11.868  20.681  0.00  0.00    +0.000 N 
ATOM     10  C   UNL     1      -1.853  11.469  19.683  0.00  0.00    +0.000 A 
ATOM     11  C   UNL     1      -3.159  11.868  19.229  0.00  0.00    +0.000 A 
ATOM     12  C   UNL     1      -3.938  12.944  19.715  0.00  0.00    +0.000 A 
ATOM     13  C   UNL     1      -5.277  13.114  19.329  0.00  0.00    +0.000 A 
ENDROOT
BRANCH   9  14
ATOM     14  C   UNL     1      -1.121  12.770  21.769  0.00  0.00    +0.000 A 
ATOM     15  C   UNL     1      -2.021  12.441  22.799  0.00  0.00    +0.000 A 
ATOM     16  C   UNL     1      -2.153  13.278  23.911  0.00  0.00    +0.000 A 
ATOM     17  C   UNL     1      -1.402  14.447  23.986  0.00  0.00    +0.000 A 
ATOM     18  F   UNL     1      -1.512  15.234  25.063  0.00  0.00    +0.000 F 
ATOM     19  C   UNL     1      -0.558  14.817  22.949  0.00  0.00    +0.000 A 
ATOM     20  C   UNL     1      -0.449  13.992  21.832  0.00  0.00    +0.000 A 
ATOM     21  F   UNL     1       0.272  14.438  20.796  0.00  0.00    +0.000 F 
ENDBRANCH   9  14
BRANCH   7  22
ATOM     22  C   UNL     1       1.156   9.384  19.233  0.00  0.00    +0.000 A 
ATOM     23  C   UNL     1       1.791   9.472  17.986  0.00  0.00    +0.000 A 
ATOM     24  C   UNL     1       2.613   8.446  17.522  0.00  0.00    +0.000 A 
ATOM     25  C   UNL     1       2.859   7.328  18.319  0.00  0.00    +0.000 A 
ATOM     26  C   UNL     1       3.692   6.194  17.797  0.00  0.00    +0.000 C 
ATOM     27  C   UNL     1       2.311   7.281  19.608  0.00  0.00    +0.000 A 
ATOM     28  C   UNL     1       1.461   8.299  20.062  0.00  0.00    +0.000 A 
ENDBRANCH   7  22
BRANCH   1  30
ATOM     29  C   UNL     1      -7.452  13.433  17.115  0.00  0.00    +0.000 C 
ATOM     30  O   UNL     1      -7.131  12.357  18.004  0.00  0.00    +0.000 OA
ENDBRANCH   1  30
BRANCH  13  31
ATOM     31  O   UNL     1      -5.887  14.108  20.045  0.00  0.00    +0.000 OA
ATOM     32  C   UNL     1      -6.758  13.758  21.108  0.00  0.00    +0.000 C 
ENDBRANCH  13  31
TORSDOF 4
ENDMDL
MODEL 8
REMARK VINA RESULT:      -7.1      1.301      1.735
REMARK  Name = 
REMARK  7 active torsions:
REMARK  status: ('A' for Active; 'I' for Inactive)
REMARK    1  A    between atoms: C_1  and  O_2
REMARK    2  A    between atoms: O_2  and  C_3
REMARK    3  A    between atoms: C_9  and  C_10
REMARK    4  A    between atoms: C_13  and  C_14
REMARK    5  A    between atoms: N_18  and  C_19
REMARK    6  A    between atoms: C_30  and  O_31
REMARK    7  A    between atoms: O_31  and  C_32
REMARK                            x       y       z     vdW  Elec       q    Type
REMARK                         _______ _______ _______ _____ _____    ______ ____
ROOT
ATOM      1  C   UNL     1       1.090  16.448  18.653  0.00  0.00    +0.000 A 
ATOM      2  C   UNL     1       1.949  15.417  18.273  0.00  0.00    +0.000 A 
ATOM      3  C   UNL     1       1.723  14.103  18.626  0.00  0.00    +0.000 A 
ATOM      4  N   UNL     1       2.522  13.207  18.054  0.00  0.00    +0.000 NA
ATOM      5  C   UNL     1       2.334  11.900  18.300  0.00  0.00    +0.000 A 
ATOM      6  C   UNL     1       1.347  11.464  19.182  0.00  0.00    +0.000 A 
ATOM      7  C   UNL     1       0.987  10.190  19.695  0.00  0.00    +0.000 A 
ATOM      8  N   UNL     1      -0.043  10.297  20.539  0.00  0.00    +0.000 NA
ATOM      9  N   UNL     1      -0.440  11.605  20.469  0.00  0.00    +0.000 N 
ATOM     10  C   UNL     1       0.466  12.390  19.751  0.00  0.00    +0.000 A 
ATOM     11  C   UNL     1       0.669  13.795  19.509  0.00  0.00    +0.000 A 
ATOM     12  C   UNL     1      -0.068  14.868  20.060  0.00  0.00    +0.000 A 
ATOM     13  C   UNL     1       0.096  16.184  19.597  0.00  0.00    +0.000 A 
ENDROOT
BRANCH   9  14
ATOM     14  C   UNL     1      -1.655  11.948  21.125  0.00  0.00    +0.000 A 
ATOM     15  C   UNL     1      -1.734  11.822  22.524  0.00  0.00    +0.000 A 
ATOM     16  C   UNL     1      -2.893  12.211  23.200  0.00  0.00    +0.000 A 
ATOM     17  C   UNL     1      -3.975  12.709  22.482  0.00  0.00    +0.000 A 
ATOM     18  F   UNL     1      -5.075  13.105  23.135  0.00  0.00    +0.000 F 
ATOM     19  C   UNL     1      -3.937  12.780  21.097  0.00  0.00    +0.000 A 
ATOM     20  C   UNL     1      -2.788  12.367  20.426  0.00  0.00    +0.000 A 
ATOM     21  F   UNL     1      -2.829  12.326  19.088  0.00  0.00    +0.000 F 
ENDBRANCH   9  14
BRANCH   7  22
ATOM     22  C   UNL     1       1.624   8.910  19.365  0.00  0.00    +0.000 A 
ATOM     23  C   UNL     1       1.994   8.631  18.041  0.00  0.00    +0.000 A 
ATOM     24  C   UNL     1       2.381   7.348  17.656  0.00  0.00    +0.000 A 
ATOM     25  C   UNL     1       2.454   6.323  18.601  0.00  0.00    +0.000 A 
ATOM     26  C   UNL     1       2.809   4.928  18.179  0.00  0.00    +0.000 C 
ATOM     27  C   UNL     1       2.186   6.620  19.945  0.00  0.00    +0.000 A 
ATOM     28  C   UNL     1       1.769   7.903  20.325  0.00  0.00    +0.000 A 
ENDBRANCH   7  22
BRANCH   1  30
ATOM     29  C   UNL     1       1.960  17.771  16.895  0.00  0.00    +0.000 C 
ATOM     30  O   UNL     1       1.235  17.705  18.129  0.00  0.00    +0.000 OA
ENDBRANCH   1  30
BRANCH  13  31
ATOM     31  O   UNL     1      -0.830  17.031  20.144  0.00  0.00    +0.000 OA
ATOM     32  C   UNL     1      -0.522  17.701  21.356  0.00  0.00    +0.000 C 
ENDBRANCH  13  31
TORSDOF 4
ENDMDL
MODEL 9
REMARK VINA RESULT:      -7.0      5.289      8.603
REMARK  Name = 
REMARK  7 active torsions:
REMARK  status: ('A' for Active; 'I' for Inactive)
REMARK    1  A    between atoms: C_1  and  O_2
REMARK    2  A    between atoms: O_2  and  C_3
REMARK    3  A    between atoms: C_9  and  C_10
REMARK    4  A    between atoms: C_13  and  C_14
REMARK    5  A    between atoms: N_18  and  C_19
REMARK    6  A    between atoms: C_30  and  O_31
REMARK    7  A    between atoms: O_31  and  C_32
REMARK                            x       y       z     vdW  Elec       q    Type
REMARK                         _______ _______ _______ _____ _____    ______ ____
ROOT
ATOM      1  C   UNL     1       1.128   9.611  19.591  0.00  0.00    +0.000 A 
ATOM      2  C   UNL     1       1.956   9.600  18.469  0.00  0.00    +0.000 A 
ATOM      3  C   UNL     1       2.621   8.464  18.056  0.00  0.00    +0.000 A 
ATOM      4  N   UNL     1       3.234   8.551  16.879  0.00  0.00    +0.000 NA
ATOM      5  C   UNL     1       3.859   7.474  16.377  0.00  0.00    +0.000 A 
ATOM      6  C   UNL     1       3.921   6.277  17.088  0.00  0.00    +0.000 A 
ATOM      7  C   UNL     1       4.573   5.036  16.860  0.00  0.00    +0.000 A 
ATOM      8  N   UNL     1       4.331   4.187  17.863  0.00  0.00    +0.000 NA
ATOM      9  N   UNL     1       3.419   4.817  18.665  0.00  0.00    +0.000 N 
ATOM     10  C   UNL     1       3.238   6.154  18.304  0.00  0.00    +0.000 A 
ATOM     11  C   UNL     1       2.579   7.308  18.859  0.00  0.00    +0.000 A 
ATOM     12  C   UNL     1       1.914   7.390  20.104  0.00  0.00    +0.000 A 
ATOM     13  C   UNL     1       1.142   8.511  20.450  0.00  0.00    +0.000 A 
ENDROOT
BRANCH   9  14
ATOM     14  C   UNL     1       2.836   4.047  19.710  0.00  0.00    +0.000 A 
ATOM     15  C   UNL     1       1.469   4.216  20.000  0.00  0.00    +0.000 A 
ATOM     16  C   UNL     1       0.856   3.429  20.978  0.00  0.00    +0.000 A 
ATOM     17  C   UNL     1       1.607   2.488  21.676  0.00  0.00    +0.000 A 
ATOM     18  F   UNL     1       1.012   1.717  22.594  0.00  0.00    +0.000 F 
ATOM     19  C   UNL     1       2.969   2.354  21.447  0.00  0.00    +0.000 A 
ATOM     20  C   UNL     1       3.580   3.159  20.488  0.00  0.00    +0.000 A 
ATOM     21  F   UNL     1       4.914   3.097  20.380  0.00  0.00    +0.000 F 
ENDBRANCH   9  14
BRANCH   7  22
ATOM     22  C   UNL     1       5.397   4.690  15.696  0.00  0.00    +0.000 A 
ATOM     23  C   UNL     1       6.672   5.254  15.546  0.00  0.00    +0.000 A 
ATOM     24  C   UNL     1       7.377   5.132  14.349  0.00  0.00    +0.000 A 
ATOM     25  C   UNL     1       6.841   4.398  13.290  0.00  0.00    +0.000 A 
ATOM     26  C   UNL     1       7.568   4.318  11.980  0.00  0.00    +0.000 C 
ATOM     27  C   UNL     1       5.614   3.746  13.469  0.00  0.00    +0.000 A 
ATOM     28  C   UNL     1       4.893   3.893  14.662  0.00  0.00    +0.000 A 
ENDBRANCH   7  22
BRANCH   1  30
ATOM     29  C   UNL     1      -0.954  10.679  19.237  0.00  0.00    +0.000 C 
ATOM     30  O   UNL     1       0.335  10.695  19.862  0.00  0.00    +0.000 OA
ENDBRANCH   1  30
BRANCH  13  31
ATOM     31  O   UNL     1       0.453   8.310  21.616  0.00  0.00    +0.000 OA
ATOM     32  C   UNL     1       0.646   9.210  22.696  0.00  0.00    +0.000 C 
ENDBRANCH  13  31
TORSDOF 4
ENDMDL
