MODEL 1
REMARK VINA RESULT:      -7.5      0.000      0.000
REMARK  Name = 
REMARK  12 active torsions:
REMARK  status: ('A' for Active; 'I' for Inactive)
REMARK    1  A    between atoms: C_1  and  C_2
REMARK    2  A    between atoms: C_3  and  C_4
REMARK    3  A    between atoms: C_4  and  O_6
REMARK    4  A    between atoms: O_6  and  C_7
REMARK    5  A    between atoms: C_7  and  C_8
REMARK    6  A    between atoms: C_7  and  C_9
REMARK    7  A    between atoms: C_9  and  C_10
REMARK    8  A    between atoms: C_9  and  C_11
REMARK    9  A    between atoms: C_9  and  C_12
REMARK   10  A    between atoms: C_15  and  C_16
REMARK   11  A    between atoms: C_16  and  O_18
REMARK   12  A    between atoms: O_18  and  C_19
REMARK                            x       y       z     vdW  Elec       q    Type
REMARK                         _______ _______ _______ _____ _____    ______ ____
ROOT
ATOM      1  C   UNL     1       5.701   5.138  19.400  0.00  0.00    +0.000 C 
ATOM      2  C   UNL     1       5.079   5.952  18.311  0.00  0.00    +0.000 A 
ATOM      3  C   UNL     1       3.708   6.413  18.237  0.00  0.00    +0.000 A 
ATOM      4  C   UNL     1       3.613   7.127  17.055  0.00  0.00    +0.000 A 
ATOM      5  N   UNL     1       4.821   7.120  16.429  0.00  0.00    +0.000 N 
ATOM      6  C   UNL     1       5.740   6.418  17.174  0.00  0.00    +0.000 A 
ATOM      7  H   UNL     1       5.032   7.564  15.542  0.00  0.00    +0.000 HD
ENDROOT
BRANCH   3   8
ATOM      8  C   UNL     1       2.588   6.264  19.187  0.00  0.00    +0.000 C 
ATOM      9  O   UNL     1       2.280   7.101  20.017  0.00  0.00    +0.000 OA
BRANCH   8  10
ATOM     10  O   UNL     1       1.881   5.111  18.946  0.00  0.00    +0.000 OA
BRANCH  10  11
ATOM     11  C   UNL     1       2.258   3.921  19.679  0.00  0.00    +0.000 C 
ATOM     12  C   UNL     1       1.163   3.702  20.734  0.00  0.00    +0.000 C 
BRANCH  11  13
ATOM     13  C   UNL     1       2.399   2.712  18.689  0.00  0.00    +0.000 C 
ATOM     14  C   UNL     1       3.666   1.894  19.020  0.00  0.00    +0.000 C 
ATOM     15  C   UNL     1       1.185   1.767  18.800  0.00  0.00    +0.000 C 
ATOM     16  C   UNL     1       2.506   3.182  17.223  0.00  0.00    +0.000 C 
ENDBRANCH  11  13
ENDBRANCH  10  11
ENDBRANCH   8  10
ENDBRANCH   3   8
BRANCH   6  17
ATOM     17  C   UNL     1       7.102   6.277  16.680  0.00  0.00    +0.000 C 
ATOM     18  O   UNL     1       7.905   7.200  16.648  0.00  0.00    +0.000 OA
BRANCH  17  19
ATOM     19  O   UNL     1       7.330   4.986  16.214  0.00  0.00    +0.000 OA
BRANCH  19  20
ATOM     20  C   UNL     1       6.967   4.699  14.892  0.00  0.00    +0.000 A 
ATOM     21  C   UNL     1       5.880   3.888  14.579  0.00  0.00    +0.000 A 
ATOM     22  C   UNL     1       5.633   3.575  13.246  0.00  0.00    +0.000 A 
ATOM     23  C   UNL     1       6.499   4.064  12.283  0.00  0.00    +0.000 A 
ATOM     24  N   UNL     1       7.579   4.830  12.559  0.00  0.00    +0.000 NA
ATOM     25  C   UNL     1       7.793   5.129  13.863  0.00  0.00    +0.000 A 
ENDBRANCH  19  20
ENDBRANCH  17  19
ENDBRANCH   6  17
TORSDOF 7
ENDMDL
MODEL 2
REMARK VINA RESULT:      -7.5      0.706      1.211
REMARK  Name = 
REMARK  12 active torsions:
REMARK  status: ('A' for Active; 'I' for Inactive)
REMARK    1  A    between atoms: C_1  and  C_2
REMARK    2  A    between atoms: C_3  and  C_4
REMARK    3  A    between atoms: C_4  and  O_6
REMARK    4  A    between atoms: O_6  and  C_7
REMARK    5  A    between atoms: C_7  and  C_8
REMARK    6  A    between atoms: C_7  and  C_9
REMARK    7  A    between atoms: C_9  and  C_10
REMARK    8  A    between atoms: C_9  and  C_11
REMARK    9  A    between atoms: C_9  and  C_12
REMARK   10  A    between atoms: C_15  and  C_16
REMARK   11  A    between atoms: C_16  and  O_18
REMARK   12  A    between atoms: O_18  and  C_19
REMARK                            x       y       z     vdW  Elec       q    Type
REMARK                         _______ _______ _______ _____ _____    ______ ____
ROOT
ATOM      1  C   UNL     1       5.478   4.392  19.232  0.00  0.00    +0.000 C 
ATOM      2  C   UNL     1       5.102   5.418  18.213  0.00  0.00    +0.000 A 
ATOM      3  C   UNL     1       3.903   6.232  18.189  0.00  0.00    +0.000 A 
ATOM      4  C   UNL     1       4.011   7.029  17.062  0.00  0.00    +0.000 A 
ATOM      5  N   UNL     1       5.177   6.746  16.422  0.00  0.00    +0.000 N 
ATOM      6  C   UNL     1       5.871   5.772  17.103  0.00  0.00    +0.000 A 
ATOM      7  H   UNL     1       5.504   7.180  15.567  0.00  0.00    +0.000 HD
ENDROOT
BRANCH   3   8
ATOM      8  C   UNL     1       2.778   6.318  19.140  0.00  0.00    +0.000 C 
ATOM      9  O   UNL     1       2.593   7.255  19.898  0.00  0.00    +0.000 OA
BRANCH   8  10
ATOM     10  O   UNL     1       1.917   5.259  18.989  0.00  0.00    +0.000 OA
BRANCH  10  11
ATOM     11  C   UNL     1       2.257   4.012  19.641  0.00  0.00    +0.000 C 
ATOM     12  C   UNL     1       1.337   3.903  20.865  0.00  0.00    +0.000 C 
BRANCH  11  13
ATOM     13  C   UNL     1       2.074   2.822  18.634  0.00  0.00    +0.000 C 
ATOM     14  C   UNL     1       0.652   2.232  18.755  0.00  0.00    +0.000 C 
ATOM     15  C   UNL     1       2.265   3.298  17.180  0.00  0.00    +0.000 C 
ATOM     16  C   UNL     1       3.084   1.687  18.902  0.00  0.00    +0.000 C 
ENDBRANCH  11  13
ENDBRANCH  10  11
ENDBRANCH   8  10
ENDBRANCH   3   8
BRANCH   6  17
ATOM     17  C   UNL     1       7.149   5.310  16.583  0.00  0.00    +0.000 C 
ATOM     18  O   UNL     1       7.906   4.580  17.210  0.00  0.00    +0.000 OA
BRANCH  17  19
ATOM     19  O   UNL     1       7.399   5.850  15.326  0.00  0.00    +0.000 OA
BRANCH  19  20
ATOM     20  C   UNL     1       7.025   5.094  14.208  0.00  0.00    +0.000 A 
ATOM     21  C   UNL     1       6.015   4.137  14.261  0.00  0.00    +0.000 A 
ATOM     22  C   UNL     1       5.758   3.362  13.134  0.00  0.00    +0.000 A 
ATOM     23  C   UNL     1       6.541   3.557  12.009  0.00  0.00    +0.000 A 
ATOM     24  N   UNL     1       7.548   4.458  11.937  0.00  0.00    +0.000 NA
ATOM     25  C   UNL     1       7.772   5.207  13.044  0.00  0.00    +0.000 A 
ENDBRANCH  19  20
ENDBRANCH  17  19
ENDBRANCH   6  17
TORSDOF 7
ENDMDL
MODEL 3
REMARK VINA RESULT:      -7.5      1.281      1.842
REMARK  Name = 
REMARK  12 active torsions:
REMARK  status: ('A' for Active; 'I' for Inactive)
REMARK    1  A    between atoms: C_1  and  C_2
REMARK    2  A    between atoms: C_3  and  C_4
REMARK    3  A    between atoms: C_4  and  O_6
REMARK    4  A    between atoms: O_6  and  C_7
REMARK    5  A    between atoms: C_7  and  C_8
REMARK    6  A    between atoms: C_7  and  C_9
REMARK    7  A    between atoms: C_9  and  C_10
REMARK    8  A    between atoms: C_9  and  C_11
REMARK    9  A    between atoms: C_9  and  C_12
REMARK   10  A    between atoms: C_15  and  C_16
REMARK   11  A    between atoms: C_16  and  O_18
REMARK   12  A    between atoms: O_18  and  C_19
REMARK                            x       y       z     vdW  Elec       q    Type
REMARK                         _______ _______ _______ _____ _____    ______ ____
ROOT
ATOM      1  C   UNL     1       4.268   3.821  16.767  0.00  0.00    +0.000 C 
ATOM      2  C   UNL     1       4.755   5.194  17.100  0.00  0.00    +0.000 A 
ATOM      3  C   UNL     1       3.985   6.282  17.669  0.00  0.00    +0.000 A 
ATOM      4  C   UNL     1       4.867   7.341  17.800  0.00  0.00    +0.000 A 
ATOM      5  N   UNL     1       6.094   6.960  17.351  0.00  0.00    +0.000 N 
ATOM      6  C   UNL     1       6.061   5.652  16.925  0.00  0.00    +0.000 A 
ATOM      7  H   UNL     1       6.924   7.542  17.328  0.00  0.00    +0.000 HD
ENDROOT
BRANCH   3   8
ATOM      8  C   UNL     1       2.577   6.341  18.108  0.00  0.00    +0.000 C 
ATOM      9  O   UNL     1       1.858   7.315  17.971  0.00  0.00    +0.000 OA
BRANCH   8  10
ATOM     10  O   UNL     1       2.157   5.127  18.595  0.00  0.00    +0.000 OA
BRANCH  10  11
ATOM     11  C   UNL     1       2.518   4.782  19.954  0.00  0.00    +0.000 C 
ATOM     12  C   UNL     1       1.605   5.616  20.865  0.00  0.00    +0.000 C 
BRANCH  11  13
ATOM     13  C   UNL     1       2.347   3.237  20.171  0.00  0.00    +0.000 C 
ATOM     14  C   UNL     1       1.496   2.629  19.036  0.00  0.00    +0.000 C 
ATOM     15  C   UNL     1       3.716   2.528  20.165  0.00  0.00    +0.000 C 
ATOM     16  C   UNL     1       1.651   2.921  21.510  0.00  0.00    +0.000 C 
ENDBRANCH  11  13
ENDBRANCH  10  11
ENDBRANCH   8  10
ENDBRANCH   3   8
BRANCH   6  17
ATOM     17  C   UNL     1       7.271   5.043  16.394  0.00  0.00    +0.000 C 
ATOM     18  O   UNL     1       7.917   4.194  16.996  0.00  0.00    +0.000 OA
BRANCH  17  19
ATOM     19  O   UNL     1       7.604   5.593  15.160  0.00  0.00    +0.000 OA
BRANCH  19  20
ATOM     20  C   UNL     1       7.158   4.928  14.011  0.00  0.00    +0.000 A 
ATOM     21  C   UNL     1       6.160   3.958  14.053  0.00  0.00    +0.000 A 
ATOM     22  C   UNL     1       5.829   3.277  12.886  0.00  0.00    +0.000 A 
ATOM     23  C   UNL     1       6.529   3.575  11.729  0.00  0.00    +0.000 A 
ATOM     24  N   UNL     1       7.523   4.491  11.664  0.00  0.00    +0.000 NA
ATOM     25  C   UNL     1       7.819   5.148  12.811  0.00  0.00    +0.000 A 
ENDBRANCH  19  20
ENDBRANCH  17  19
ENDBRANCH   6  17
TORSDOF 7
ENDMDL
MODEL 4
REMARK VINA RESULT:      -7.3      0.813      1.319
REMARK  Name = 
REMARK  12 active torsions:
REMARK  status: ('A' for Active; 'I' for Inactive)
REMARK    1  A    between atoms: C_1  and  C_2
REMARK    2  A    between atoms: C_3  and  C_4
REMARK    3  A    between atoms: C_4  and  O_6
REMARK    4  A    between atoms: O_6  and  C_7
REMARK    5  A    between atoms: C_7  and  C_8
REMARK    6  A    between atoms: C_7  and  C_9
REMARK    7  A    between atoms: C_9  and  C_10
REMARK    8  A    between atoms: C_9  and  C_11
REMARK    9  A    between atoms: C_9  and  C_12
REMARK   10  A    between atoms: C_15  and  C_16
REMARK   11  A    between atoms: C_16  and  O_18
REMARK   12  A    between atoms: O_18  and  C_19
REMARK                            x       y       z     vdW  Elec       q    Type
REMARK                         _______ _______ _______ _____ _____    ______ ____
ROOT
ATOM      1  C   UNL     1       4.167   7.224  16.611  0.00  0.00    +0.000 C 
ATOM      2  C   UNL     1       4.779   6.406  17.702  0.00  0.00    +0.000 A 
ATOM      3  C   UNL     1       4.147   5.973  18.932  0.00  0.00    +0.000 A 
ATOM      4  C   UNL     1       5.107   5.241  19.611  0.00  0.00    +0.000 A 
ATOM      5  N   UNL     1       6.252   5.214  18.878  0.00  0.00    +0.000 N 
ATOM      6  C   UNL     1       6.083   5.909  17.703  0.00  0.00    +0.000 A 
ATOM      7  H   UNL     1       7.115   4.752  19.143  0.00  0.00    +0.000 HD
ENDROOT
BRANCH   3   8
ATOM      8  C   UNL     1       2.769   6.160  19.425  0.00  0.00    +0.000 C 
ATOM      9  O   UNL     1       2.381   7.157  20.007  0.00  0.00    +0.000 OA
BRANCH   8  10
ATOM     10  O   UNL     1       1.962   5.112  19.055  0.00  0.00    +0.000 OA
BRANCH  10  11
ATOM     11  C   UNL     1       2.209   3.820  19.660  0.00  0.00    +0.000 C 
ATOM     12  C   UNL     1       1.138   3.644  20.747  0.00  0.00    +0.000 C 
BRANCH  11  13
ATOM     13  C   UNL     1       2.152   2.701  18.561  0.00  0.00    +0.000 C 
ATOM     14  C   UNL     1       3.238   1.637  18.826  0.00  0.00    +0.000 C 
ATOM     15  C   UNL     1       0.783   1.992  18.571  0.00  0.00    +0.000 C 
ATOM     16  C   UNL     1       2.382   3.275  17.148  0.00  0.00    +0.000 C 
ENDBRANCH  11  13
ENDBRANCH  10  11
ENDBRANCH   8  10
ENDBRANCH   3   8
BRANCH   6  17
ATOM     17  C   UNL     1       7.194   6.014  16.769  0.00  0.00    +0.000 C 
ATOM     18  O   UNL     1       7.764   7.068  16.516  0.00  0.00    +0.000 OA
BRANCH  17  19
ATOM     19  O   UNL     1       7.468   4.783  16.182  0.00  0.00    +0.000 OA
BRANCH  19  20
ATOM     20  C   UNL     1       7.062   4.590  14.856  0.00  0.00    +0.000 A 
ATOM     21  C   UNL     1       5.975   3.787  14.520  0.00  0.00    +0.000 A 
ATOM     22  C   UNL     1       5.684   3.572  13.177  0.00  0.00    +0.000 A 
ATOM     23  C   UNL     1       6.508   4.146  12.224  0.00  0.00    +0.000 A 
ATOM     24  N   UNL     1       7.587   4.906  12.519  0.00  0.00    +0.000 NA
ATOM     25  C   UNL     1       7.844   5.109  13.834  0.00  0.00    +0.000 A 
ENDBRANCH  19  20
ENDBRANCH  17  19
ENDBRANCH   6  17
TORSDOF 7
ENDMDL
MODEL 5
REMARK VINA RESULT:      -7.2      4.476      7.304
REMARK  Name = 
REMARK  12 active torsions:
REMARK  status: ('A' for Active; 'I' for Inactive)
REMARK    1  A    between atoms: C_1  and  C_2
REMARK    2  A    between atoms: C_3  and  C_4
REMARK    3  A    between atoms: C_4  and  O_6
REMARK    4  A    between atoms: O_6  and  C_7
REMARK    5  A    between atoms: C_7  and  C_8
REMARK    6  A    between atoms: C_7  and  C_9
REMARK    7  A    between atoms: C_9  and  C_10
REMARK    8  A    between atoms: C_9  and  C_11
REMARK    9  A    between atoms: C_9  and  C_12
REMARK   10  A    between atoms: C_15  and  C_16
REMARK   11  A    between atoms: C_16  and  O_18
REMARK   12  A    between atoms: O_18  and  C_19
REMARK                            x       y       z     vdW  Elec       q    Type
REMARK                         _______ _______ _______ _____ _____    ______ ____
ROOT
ATOM      1  C   UNL     1       1.044   8.101  21.036  0.00  0.00    +0.000 C 
ATOM      2  C   UNL     1       1.455   8.480  19.650  0.00  0.00    +0.000 A 
ATOM      3  C   UNL     1       2.327   7.739  18.761  0.00  0.00    +0.000 A 
ATOM      4  C   UNL     1       2.399   8.483  17.596  0.00  0.00    +0.000 A 
ATOM      5  N   UNL     1       1.640   9.604  17.732  0.00  0.00    +0.000 N 
ATOM      6  C   UNL     1       1.043   9.628  18.971  0.00  0.00    +0.000 A 
ATOM      7  H   UNL     1       1.519  10.327  17.032  0.00  0.00    +0.000 HD
ENDROOT
BRANCH   3   8
ATOM      8  C   UNL     1       2.996   6.435  18.933  0.00  0.00    +0.000 C 
ATOM      9  O   UNL     1       4.153   6.302  19.291  0.00  0.00    +0.000 OA
BRANCH   8  10
ATOM     10  O   UNL     1       2.119   5.396  18.738  0.00  0.00    +0.000 OA
BRANCH  10  11
ATOM     11  C   UNL     1       2.248   4.232  19.589  0.00  0.00    +0.000 C 
ATOM     12  C   UNL     1       0.973   4.183  20.444  0.00  0.00    +0.000 C 
BRANCH  11  13
ATOM     13  C   UNL     1       2.439   2.949  18.707  0.00  0.00    +0.000 C 
ATOM     14  C   UNL     1       3.698   2.175  19.155  0.00  0.00    +0.000 C 
ATOM     15  C   UNL     1       1.229   2.003  18.845  0.00  0.00    +0.000 C 
ATOM     16  C   UNL     1       2.603   3.300  17.214  0.00  0.00    +0.000 C 
ENDBRANCH  11  13
ENDBRANCH  10  11
ENDBRANCH   8  10
ENDBRANCH   3   8
BRANCH   6  17
ATOM     17  C   UNL     1       0.190  10.751  19.332  0.00  0.00    +0.000 C 
ATOM     18  O   UNL     1       0.614  11.883  19.527  0.00  0.00    +0.000 OA
BRANCH  17  19
ATOM     19  O   UNL     1      -1.133  10.345  19.470  0.00  0.00    +0.000 OA
BRANCH  19  20
ATOM     20  C   UNL     1      -1.980  10.502  18.366  0.00  0.00    +0.000 A 
ATOM     21  C   UNL     1      -1.746   9.861  17.152  0.00  0.00    +0.000 A 
ATOM     22  C   UNL     1      -2.580  10.134  16.073  0.00  0.00    +0.000 A 
ATOM     23  C   UNL     1      -3.598  11.057  16.243  0.00  0.00    +0.000 A 
ATOM     24  N   UNL     1      -3.832  11.717  17.401  0.00  0.00    +0.000 NA
ATOM     25  C   UNL     1      -3.012  11.427  18.440  0.00  0.00    +0.000 A 
ENDBRANCH  19  20
ENDBRANCH  17  19
ENDBRANCH   6  17
TORSDOF 7
ENDMDL
MODEL 6
REMARK VINA RESULT:      -7.2      1.360      1.950
REMARK  Name = 
REMARK  12 active torsions:
REMARK  status: ('A' for Active; 'I' for Inactive)
REMARK    1  A    between atoms: C_1  and  C_2
REMARK    2  A    between atoms: C_3  and  C_4
REMARK    3  A    between atoms: C_4  and  O_6
REMARK    4  A    between atoms: O_6  and  C_7
REMARK    5  A    between atoms: C_7  and  C_8
REMARK    6  A    between atoms: C_7  and  C_9
REMARK    7  A    between atoms: C_9  and  C_10
REMARK    8  A    between atoms: C_9  and  C_11
REMARK    9  A    between atoms: C_9  and  C_12
REMARK   10  A    between atoms: C_15  and  C_16
REMARK   11  A    between atoms: C_16  and  O_18
REMARK   12  A    between atoms: O_18  and  C_19
REMARK                            x       y       z     vdW  Elec       q    Type
REMARK                         _______ _______ _______ _____ _____    ______ ____
ROOT
ATOM      1  C   UNL     1       4.467   6.766  16.718  0.00  0.00    +0.000 C 
ATOM      2  C   UNL     1       4.900   5.830  17.800  0.00  0.00    +0.000 A 
ATOM      3  C   UNL     1       4.226   5.573  19.057  0.00  0.00    +0.000 A 
ATOM      4  C   UNL     1       5.001   4.634  19.715  0.00  0.00    +0.000 A 
ATOM      5  N   UNL     1       6.078   4.322  18.945  0.00  0.00    +0.000 N 
ATOM      6  C   UNL     1       6.041   5.028  17.765  0.00  0.00    +0.000 A 
ATOM      7  H   UNL     1       6.810   3.664  19.188  0.00  0.00    +0.000 HD
ENDROOT
BRANCH   3   8
ATOM      8  C   UNL     1       2.954   6.096  19.593  0.00  0.00    +0.000 C 
ATOM      9  O   UNL     1       2.719   7.280  19.762  0.00  0.00    +0.000 OA
BRANCH   8  10
ATOM     10  O   UNL     1       2.040   5.088  19.779  0.00  0.00    +0.000 OA
BRANCH  10  11
ATOM     11  C   UNL     1       2.512   3.722  19.688  0.00  0.00    +0.000 C 
ATOM     12  C   UNL     1       2.110   3.041  21.004  0.00  0.00    +0.000 C 
BRANCH  11  13
ATOM     13  C   UNL     1       1.886   3.029  18.427  0.00  0.00    +0.000 C 
ATOM     14  C   UNL     1       2.931   2.123  17.741  0.00  0.00    +0.000 C 
ATOM     15  C   UNL     1       0.685   2.147  18.825  0.00  0.00    +0.000 C 
ATOM     16  C   UNL     1       1.397   4.061  17.390  0.00  0.00    +0.000 C 
ENDBRANCH  11  13
ENDBRANCH  10  11
ENDBRANCH   8  10
ENDBRANCH   3   8
BRANCH   6  17
ATOM     17  C   UNL     1       7.109   4.851  16.793  0.00  0.00    +0.000 C 
ATOM     18  O   UNL     1       8.104   4.168  17.002  0.00  0.00    +0.000 OA
BRANCH  17  19
ATOM     19  O   UNL     1       6.864   5.597  15.644  0.00  0.00    +0.000 OA
BRANCH  19  20
ATOM     20  C   UNL     1       6.820   4.912  14.423  0.00  0.00    +0.000 A 
ATOM     21  C   UNL     1       7.679   5.215  13.370  0.00  0.00    +0.000 A 
ATOM     22  C   UNL     1       7.520   4.554  12.156  0.00  0.00    +0.000 A 
ATOM     23  C   UNL     1       6.490   3.636  12.037  0.00  0.00    +0.000 A 
ATOM     24  N   UNL     1       5.622   3.342  13.032  0.00  0.00    +0.000 NA
ATOM     25  C   UNL     1       5.804   3.992  14.207  0.00  0.00    +0.000 A 
ENDBRANCH  19  20
ENDBRANCH  17  19
ENDBRANCH   6  17
TORSDOF 7
ENDMDL
MODEL 7
REMARK VINA RESULT:      -7.1      1.370      1.996
REMARK  Name = 
REMARK  12 active torsions:
REMARK  status: ('A' for Active; 'I' for Inactive)
REMARK    1  A    between atoms: C_1  and  C_2
REMARK    2  A    between atoms: C_3  and  C_4
REMARK    3  A    between atoms: C_4  and  O_6
REMARK    4  A    between atoms: O_6  and  C_7
REMARK    5  A    between atoms: C_7  and  C_8
REMARK    6  A    between atoms: C_7  and  C_9
REMARK    7  A    between atoms: C_9  and  C_10
REMARK    8  A    between atoms: C_9  and  C_11
REMARK    9  A    between atoms: C_9  and  C_12
REMARK   10  A    between atoms: C_15  and  C_16
REMARK   11  A    between atoms: C_16  and  O_18
REMARK   12  A    between atoms: O_18  and  C_19
REMARK                            x       y       z     vdW  Elec       q    Type
REMARK                         _______ _______ _______ _____ _____    ______ ____
ROOT
ATOM      1  C   UNL     1       4.629   3.167  16.951  0.00  0.00    +0.000 C 
ATOM      2  C   UNL     1       4.787   4.642  17.133  0.00  0.00    +0.000 A 
ATOM      3  C   UNL     1       3.780   5.583  17.580  0.00  0.00    +0.000 A 
ATOM      4  C   UNL     1       4.400   6.821  17.594  0.00  0.00    +0.000 A 
ATOM      5  N   UNL     1       5.691   6.680  17.189  0.00  0.00    +0.000 N 
ATOM      6  C   UNL     1       5.962   5.361  16.908  0.00  0.00    +0.000 A 
ATOM      7  H   UNL     1       6.370   7.428  17.102  0.00  0.00    +0.000 HD
ENDROOT
BRANCH   3   8
ATOM      8  C   UNL     1       2.385   5.369  18.011  0.00  0.00    +0.000 C 
ATOM      9  O   UNL     1       1.555   6.256  18.105  0.00  0.00    +0.000 OA
BRANCH   8  10
ATOM     10  O   UNL     1       2.119   4.034  18.193  0.00  0.00    +0.000 OA
BRANCH  10  11
ATOM     11  C   UNL     1       1.246   3.660  19.286  0.00  0.00    +0.000 C 
ATOM     12  C   UNL     1       0.532   2.375  18.843  0.00  0.00    +0.000 C 
BRANCH  11  13
ATOM     13  C   UNL     1       2.090   3.469  20.595  0.00  0.00    +0.000 C 
ATOM     14  C   UNL     1       3.423   2.760  20.273  0.00  0.00    +0.000 C 
ATOM     15  C   UNL     1       2.422   4.830  21.238  0.00  0.00    +0.000 C 
ATOM     16  C   UNL     1       1.338   2.618  21.640  0.00  0.00    +0.000 C 
ENDBRANCH  11  13
ENDBRANCH  10  11
ENDBRANCH   8  10
ENDBRANCH   3   8
BRANCH   6  17
ATOM     17  C   UNL     1       7.290   4.987  16.446  0.00  0.00    +0.000 C 
ATOM     18  O   UNL     1       8.039   4.250  17.075  0.00  0.00    +0.000 OA
BRANCH  17  19
ATOM     19  O   UNL     1       7.593   5.617  15.243  0.00  0.00    +0.000 OA
BRANCH  19  20
ATOM     20  C   UNL     1       7.202   4.980  14.059  0.00  0.00    +0.000 A 
ATOM     21  C   UNL     1       6.257   3.958  14.041  0.00  0.00    +0.000 A 
ATOM     22  C   UNL     1       5.983   3.311  12.841  0.00  0.00    +0.000 A 
ATOM     23  C   UNL     1       6.685   3.695  11.711  0.00  0.00    +0.000 A 
ATOM     24  N   UNL     1       7.629   4.663  11.702  0.00  0.00    +0.000 NA
ATOM     25  C   UNL     1       7.871   5.285  12.882  0.00  0.00    +0.000 A 
ENDBRANCH  19  20
ENDBRANCH  17  19
ENDBRANCH   6  17
TORSDOF 7
ENDMDL
MODEL 8
REMARK VINA RESULT:      -6.9      4.513      7.320
REMARK  Name = 
REMARK  12 active torsions:
REMARK  status: ('A' for Active; 'I' for Inactive)
REMARK    1  A    between atoms: C_1  and  C_2
REMARK    2  A    between atoms: C_3  and  C_4
REMARK    3  A    between atoms: C_4  and  O_6
REMARK    4  A    between atoms: O_6  and  C_7
REMARK    5  A    between atoms: C_7  and  C_8
REMARK    6  A    between atoms: C_7  and  C_9
REMARK    7  A    between atoms: C_9  and  C_10
REMARK    8  A    between atoms: C_9  and  C_11
REMARK    9  A    between atoms: C_9  and  C_12
REMARK   10  A    between atoms: C_15  and  C_16
REMARK   11  A    between atoms: C_16  and  O_18
REMARK   12  A    between atoms: O_18  and  C_19
REMARK                            x       y       z     vdW  Elec       q    Type
REMARK                         _______ _______ _______ _____ _____    ______ ____
ROOT
ATOM      1  C   UNL     1       2.292   8.537  17.592  0.00  0.00    +0.000 C 
ATOM      2  C   UNL     1       1.789   8.457  18.997  0.00  0.00    +0.000 A 
ATOM      3  C   UNL     1       2.006   7.383  19.945  0.00  0.00    +0.000 A 
ATOM      4  C   UNL     1       1.355   7.766  21.106  0.00  0.00    +0.000 A 
ATOM      5  N   UNL     1       0.772   8.980  20.912  0.00  0.00    +0.000 N 
ATOM      6  C   UNL     1       1.025   9.433  19.638  0.00  0.00    +0.000 A 
ATOM      7  H   UNL     1       0.227   9.491  21.597  0.00  0.00    +0.000 HD
ENDROOT
BRANCH   3   8
ATOM      8  C   UNL     1       2.786   6.136  19.827  0.00  0.00    +0.000 C 
ATOM      9  O   UNL     1       3.977   6.096  19.570  0.00  0.00    +0.000 OA
BRANCH   8  10
ATOM     10  O   UNL     1       2.022   5.039  20.142  0.00  0.00    +0.000 OA
BRANCH  10  11
ATOM     11  C   UNL     1       2.581   3.728  19.887  0.00  0.00    +0.000 C 
ATOM     12  C   UNL     1       2.316   2.896  21.150  0.00  0.00    +0.000 C 
BRANCH  11  13
ATOM     13  C   UNL     1       1.924   3.112  18.602  0.00  0.00    +0.000 C 
ATOM     14  C   UNL     1       2.901   2.131  17.919  0.00  0.00    +0.000 C 
ATOM     15  C   UNL     1       0.645   2.330  18.962  0.00  0.00    +0.000 C 
ATOM     16  C   UNL     1       1.546   4.200  17.575  0.00  0.00    +0.000 C 
ENDBRANCH  11  13
ENDBRANCH  10  11
ENDBRANCH   8  10
ENDBRANCH   3   8
BRANCH   6  17
ATOM     17  C   UNL     1       0.482  10.715  19.215  0.00  0.00    +0.000 C 
ATOM     18  O   UNL     1       1.162  11.602  18.715  0.00  0.00    +0.000 OA
BRANCH  17  19
ATOM     19  O   UNL     1      -0.876  10.800  19.505  0.00  0.00    +0.000 OA
BRANCH  19  20
ATOM     20  C   UNL     1      -1.770  10.835  18.428  0.00  0.00    +0.000 A 
ATOM     21  C   UNL     1      -2.915  11.627  18.437  0.00  0.00    +0.000 A 
ATOM     22  C   UNL     1      -3.803  11.543  17.369  0.00  0.00    +0.000 A 
ATOM     23  C   UNL     1      -3.522  10.651  16.347  0.00  0.00    +0.000 A 
ATOM     24  N   UNL     1      -2.433   9.849  16.325  0.00  0.00    +0.000 NA
ATOM     25  C   UNL     1      -1.579   9.956  17.372  0.00  0.00    +0.000 A 
ENDBRANCH  19  20
ENDBRANCH  17  19
ENDBRANCH   6  17
TORSDOF 7
ENDMDL
MODEL 9
REMARK VINA RESULT:      -6.9      4.493      7.469
REMARK  Name = 
REMARK  12 active torsions:
REMARK  status: ('A' for Active; 'I' for Inactive)
REMARK    1  A    between atoms: C_1  and  C_2
REMARK    2  A    between atoms: C_3  and  C_4
REMARK    3  A    between atoms: C_4  and  O_6
REMARK    4  A    between atoms: O_6  and  C_7
REMARK    5  A    between atoms: C_7  and  C_8
REMARK    6  A    between atoms: C_7  and  C_9
REMARK    7  A    between atoms: C_9  and  C_10
REMARK    8  A    between atoms: C_9  and  C_11
REMARK    9  A    between atoms: C_9  and  C_12
REMARK   10  A    between atoms: C_15  and  C_16
REMARK   11  A    between atoms: C_16  and  O_18
REMARK   12  A    between atoms: O_18  and  C_19
REMARK                            x       y       z     vdW  Elec       q    Type
REMARK                         _______ _______ _______ _____ _____    ______ ____
ROOT
ATOM      1  C   UNL     1       1.214   8.018  21.111  0.00  0.00    +0.000 C 
ATOM      2  C   UNL     1       1.560   8.441  19.720  0.00  0.00    +0.000 A 
ATOM      3  C   UNL     1       2.371   7.717  18.761  0.00  0.00    +0.000 A 
ATOM      4  C   UNL     1       2.397   8.503  17.621  0.00  0.00    +0.000 A 
ATOM      5  N   UNL     1       1.668   9.631  17.837  0.00  0.00    +0.000 N 
ATOM      6  C   UNL     1       1.136   9.620  19.106  0.00  0.00    +0.000 A 
ATOM      7  H   UNL     1       1.525  10.381  17.170  0.00  0.00    +0.000 HD
ENDROOT
BRANCH   3   8
ATOM      8  C   UNL     1       3.023   6.397  18.852  0.00  0.00    +0.000 C 
ATOM      9  O   UNL     1       4.198   6.232  19.130  0.00  0.00    +0.000 OA
BRANCH   8  10
ATOM     10  O   UNL     1       2.115   5.381  18.683  0.00  0.00    +0.000 OA
BRANCH  10  11
ATOM     11  C   UNL     1       2.264   4.197  19.502  0.00  0.00    +0.000 C 
ATOM     12  C   UNL     1       1.144   4.257  20.551  0.00  0.00    +0.000 C 
BRANCH  11  13
ATOM     13  C   UNL     1       2.185   2.915  18.601  0.00  0.00    +0.000 C 
ATOM     14  C   UNL     1       3.276   1.903  19.013  0.00  0.00    +0.000 C 
ATOM     15  C   UNL     1       0.816   2.221  18.752  0.00  0.00    +0.000 C 
ATOM     16  C   UNL     1       2.387   3.252  17.109  0.00  0.00    +0.000 C 
ENDBRANCH  11  13
ENDBRANCH  10  11
ENDBRANCH   8  10
ENDBRANCH   3   8
BRANCH   6  17
ATOM     17  C   UNL     1       0.324  10.742  19.550  0.00  0.00    +0.000 C 
ATOM     18  O   UNL     1       0.140  11.015  20.730  0.00  0.00    +0.000 OA
BRANCH  17  19
ATOM     19  O   UNL     1      -0.239  11.408  18.466  0.00  0.00    +0.000 OA
BRANCH  19  20
ATOM     20  C   UNL     1      -1.600  11.197  18.210  0.00  0.00    +0.000 A 
ATOM     21  C   UNL     1      -2.597  11.970  18.799  0.00  0.00    +0.000 A 
ATOM     22  C   UNL     1      -3.929  11.646  18.567  0.00  0.00    +0.000 A 
ATOM     23  C   UNL     1      -4.211  10.545  17.776  0.00  0.00    +0.000 A 
ATOM     24  N   UNL     1      -3.265   9.758  17.214  0.00  0.00    +0.000 NA
ATOM     25  C   UNL     1      -1.975  10.100  17.447  0.00  0.00    +0.000 A 
ENDBRANCH  19  20
ENDBRANCH  17  19
ENDBRANCH   6  17
TORSDOF 7
ENDMDL
