MODEL 1
REMARK VINA RESULT:      -6.3      0.000      0.000
REMARK  Name = 
REMARK  9 active torsions:
REMARK  status: ('A' for Active; 'I' for Inactive)
REMARK    1  A    between atoms: C_1  and  C_2
REMARK    2  A    between atoms: C_2  and  N_3
REMARK    3  A    between atoms: N_3  and  C_4
REMARK    4  A    between atoms: C_4  and  C_5
REMARK    5  A    between atoms: N_8  and  C_9
REMARK    6  A    between atoms: C_11  and  O_12
REMARK    7  A    between atoms: O_12  and  C_13
REMARK    8  A    between atoms: C_14  and  O_15
REMARK    9  A    between atoms: O_15  and  C_16
REMARK                            x       y       z     vdW  Elec       q    Type
REMARK                         _______ _______ _______ _____ _____    ______ ____
ROOT
ATOM      1  C   UNL     1       3.803   6.289  18.037  0.00  0.00    +0.000 A 
ATOM      2  C   UNL     1       5.081   6.782  17.771  0.00  0.00    +0.000 A 
ATOM      3  C   UNL     1       5.975   6.099  16.943  0.00  0.00    +0.000 A 
ATOM      4  C   UNL     1       5.635   4.829  16.442  0.00  0.00    +0.000 A 
ATOM      5  C   UNL     1       4.380   4.295  16.752  0.00  0.00    +0.000 A 
ATOM      6  C   UNL     1       3.471   5.022  17.538  0.00  0.00    +0.000 A 
ATOM      7 BR   UNL     1       1.764   4.250  17.867  0.00  0.00    +0.000 Br
ENDROOT
BRANCH   1  11
ATOM      8  N   UNL     1       1.409   8.810  19.324  0.00  0.00    +0.000 N 
ATOM      9  C   UNL     1       2.224   8.181  18.379  0.00  0.00    +0.000 C 
ATOM     10  O   UNL     1       2.325   8.640  17.242  0.00  0.00    +0.000 OA
ATOM     11  N   UNL     1       2.872   7.036  18.808  0.00  0.00    +0.000 N 
ATOM     12  H   UNL     1       2.468   6.544  19.591  0.00  0.00    +0.000 HD
BRANCH   8  14
ATOM     13  C   UNL     1       1.314  11.309  19.189  0.00  0.00    +0.000 C 
ATOM     14  C   UNL     1       0.656   9.979  18.842  0.00  0.00    +0.000 C 
ENDBRANCH   8  14
BRANCH   8  15
ATOM     15  C   UNL     1       1.310   8.376  20.721  0.00  0.00    +0.000 C 
ATOM     16  C   UNL     1       0.019   8.679  21.469  0.00  0.00    +0.000 C 
ENDBRANCH   8  15
ENDBRANCH   1  11
BRANCH   3  17
ATOM     17  O   UNL     1       7.212   6.611  16.621  0.00  0.00    +0.000 OA
ATOM     18  C   UNL     1       7.669   7.662  17.476  0.00  0.00    +0.000 C 
ENDBRANCH   3  17
BRANCH   4  19
ATOM     19  O   UNL     1       6.583   4.213  15.666  0.00  0.00    +0.000 OA
ATOM     20  C   UNL     1       6.306   4.061  14.282  0.00  0.00    +0.000 C 
ENDBRANCH   4  19
TORSDOF 5
ENDMDL
MODEL 2
REMARK VINA RESULT:      -5.8      2.499      3.582
REMARK  Name = 
REMARK  9 active torsions:
REMARK  status: ('A' for Active; 'I' for Inactive)
REMARK    1  A    between atoms: C_1  and  C_2
REMARK    2  A    between atoms: C_2  and  N_3
REMARK    3  A    between atoms: N_3  and  C_4
REMARK    4  A    between atoms: C_4  and  C_5
REMARK    5  A    between atoms: N_8  and  C_9
REMARK    6  A    between atoms: C_11  and  O_12
REMARK    7  A    between atoms: O_12  and  C_13
REMARK    8  A    between atoms: C_14  and  O_15
REMARK    9  A    between atoms: O_15  and  C_16
REMARK                            x       y       z     vdW  Elec       q    Type
REMARK                         _______ _______ _______ _____ _____    ______ ____
ROOT
ATOM      1  C   UNL     1       4.667   5.292  17.760  0.00  0.00    +0.000 A 
ATOM      2  C   UNL     1       5.774   6.141  17.772  0.00  0.00    +0.000 A 
ATOM      3  C   UNL     1       6.710   6.143  16.735  0.00  0.00    +0.000 A 
ATOM      4  C   UNL     1       6.609   5.199  15.698  0.00  0.00    +0.000 A 
ATOM      5  C   UNL     1       5.537   4.301  15.705  0.00  0.00    +0.000 A 
ATOM      6  C   UNL     1       4.572   4.351  16.725  0.00  0.00    +0.000 A 
ATOM      7 BR   UNL     1       3.115   3.132  16.632  0.00  0.00    +0.000 Br
ENDROOT
BRANCH   1  11
ATOM      8  N   UNL     1       2.440   4.664  20.656  0.00  0.00    +0.000 N 
ATOM      9  C   UNL     1       3.535   4.458  19.812  0.00  0.00    +0.000 C 
ATOM     10  O   UNL     1       4.311   3.526  20.017  0.00  0.00    +0.000 OA
ATOM     11  N   UNL     1       3.674   5.362  18.774  0.00  0.00    +0.000 N 
ATOM     12  H   UNL     1       3.237   6.265  18.888  0.00  0.00    +0.000 HD
BRANCH   8  14
ATOM     13  C   UNL     1       1.349   2.614  21.594  0.00  0.00    +0.000 C 
ATOM     14  C   UNL     1       2.339   3.752  21.807  0.00  0.00    +0.000 C 
ENDBRANCH   8  14
BRANCH   8  15
ATOM     15  C   UNL     1       1.423   5.694  20.423  0.00  0.00    +0.000 C 
ATOM     16  C   UNL     1       1.735   7.115  20.872  0.00  0.00    +0.000 C 
ENDBRANCH   8  15
ENDBRANCH   1  11
BRANCH   3  17
ATOM     17  O   UNL     1       7.769   7.024  16.708  0.00  0.00    +0.000 OA
ATOM     18  C   UNL     1       7.702   8.076  17.674  0.00  0.00    +0.000 C 
ENDBRANCH   3  17
BRANCH   4  19
ATOM     19  O   UNL     1       7.588   5.248  14.740  0.00  0.00    +0.000 OA
ATOM     20  C   UNL     1       7.261   4.791  13.436  0.00  0.00    +0.000 C 
ENDBRANCH   4  19
TORSDOF 5
ENDMDL
MODEL 3
REMARK VINA RESULT:      -5.8      1.545      1.973
REMARK  Name = 
REMARK  9 active torsions:
REMARK  status: ('A' for Active; 'I' for Inactive)
REMARK    1  A    between atoms: C_1  and  C_2
REMARK    2  A    between atoms: C_2  and  N_3
REMARK    3  A    between atoms: N_3  and  C_4
REMARK    4  A    between atoms: C_4  and  C_5
REMARK    5  A    between atoms: N_8  and  C_9
REMARK    6  A    between atoms: C_11  and  O_12
REMARK    7  A    between atoms: O_12  and  C_13
REMARK    8  A    between atoms: C_14  and  O_15
REMARK    9  A    between atoms: O_15  and  C_16
REMARK                            x       y       z     vdW  Elec       q    Type
REMARK                         _______ _______ _______ _____ _____    ______ ____
ROOT
ATOM      1  C   UNL     1       4.570   5.367  17.840  0.00  0.00    +0.000 A 
ATOM      2  C   UNL     1       5.676   6.211  17.734  0.00  0.00    +0.000 A 
ATOM      3  C   UNL     1       6.633   6.049  16.729  0.00  0.00    +0.000 A 
ATOM      4  C   UNL     1       6.553   4.947  15.858  0.00  0.00    +0.000 A 
ATOM      5  C   UNL     1       5.482   4.057  15.992  0.00  0.00    +0.000 A 
ATOM      6  C   UNL     1       4.497   4.269  16.971  0.00  0.00    +0.000 A 
ATOM      7 BR   UNL     1       3.045   3.044  17.051  0.00  0.00    +0.000 Br
ENDROOT
BRANCH   1  11
ATOM      8  N   UNL     1       1.996   6.837  20.065  0.00  0.00    +0.000 N 
ATOM      9  C   UNL     1       2.900   6.800  19.000  0.00  0.00    +0.000 C 
ATOM     10  O   UNL     1       3.066   7.791  18.292  0.00  0.00    +0.000 OA
ATOM     11  N   UNL     1       3.558   5.598  18.810  0.00  0.00    +0.000 N 
ATOM     12  H   UNL     1       3.117   4.768  19.178  0.00  0.00    +0.000 HD
BRANCH   8  14
ATOM     13  C   UNL     1       1.199   8.606  21.648  0.00  0.00    +0.000 C 
ATOM     14  C   UNL     1       1.236   8.088  20.216  0.00  0.00    +0.000 C 
ENDBRANCH   8  14
BRANCH   8  15
ATOM     15  C   UNL     1       1.811   5.729  21.007  0.00  0.00    +0.000 C 
ATOM     16  C   UNL     1       1.068   4.494  20.516  0.00  0.00    +0.000 C 
ENDBRANCH   8  15
ENDBRANCH   1  11
BRANCH   3  17
ATOM     17  O   UNL     1       7.690   6.918  16.577  0.00  0.00    +0.000 OA
ATOM     18  C   UNL     1       7.784   7.932  17.580  0.00  0.00    +0.000 C 
ENDBRANCH   3  17
BRANCH   4  19
ATOM     19  O   UNL     1       7.551   4.843  14.924  0.00  0.00    +0.000 OA
ATOM     20  C   UNL     1       7.172   4.775  13.558  0.00  0.00    +0.000 C 
ENDBRANCH   4  19
TORSDOF 5
ENDMDL
MODEL 4
REMARK VINA RESULT:      -5.4      3.855      5.168
REMARK  Name = 
REMARK  9 active torsions:
REMARK  status: ('A' for Active; 'I' for Inactive)
REMARK    1  A    between atoms: C_1  and  C_2
REMARK    2  A    between atoms: C_2  and  N_3
REMARK    3  A    between atoms: N_3  and  C_4
REMARK    4  A    between atoms: C_4  and  C_5
REMARK    5  A    between atoms: N_8  and  C_9
REMARK    6  A    between atoms: C_11  and  O_12
REMARK    7  A    between atoms: O_12  and  C_13
REMARK    8  A    between atoms: C_14  and  O_15
REMARK    9  A    between atoms: O_15  and  C_16
REMARK                            x       y       z     vdW  Elec       q    Type
REMARK                         _______ _______ _______ _____ _____    ______ ____
ROOT
ATOM      1  C   UNL     1       5.407   3.867  15.970  0.00  0.00    +0.000 A 
ATOM      2  C   UNL     1       4.988   3.666  14.655  0.00  0.00    +0.000 A 
ATOM      3  C   UNL     1       5.796   3.998  13.566  0.00  0.00    +0.000 A 
ATOM      4  C   UNL     1       7.023   4.652  13.778  0.00  0.00    +0.000 A 
ATOM      5  C   UNL     1       7.429   4.915  15.091  0.00  0.00    +0.000 A 
ATOM      6  C   UNL     1       6.630   4.521  16.177  0.00  0.00    +0.000 A 
ATOM      7 BR   UNL     1       7.279   4.866  17.931  0.00  0.00    +0.000 Br
ENDROOT
BRANCH   1  11
ATOM      8  N   UNL     1       3.099   3.649  18.863  0.00  0.00    +0.000 N 
ATOM      9  C   UNL     1       3.719   4.241  17.759  0.00  0.00    +0.000 C 
ATOM     10  O   UNL     1       3.453   5.400  17.445  0.00  0.00    +0.000 OA
ATOM     11  N   UNL     1       4.613   3.442  17.070  0.00  0.00    +0.000 N 
ATOM     12  H   UNL     1       4.503   2.442  17.160  0.00  0.00    +0.000 HD
BRANCH   8  14
ATOM     13  C   UNL     1       1.061   3.652  20.318  0.00  0.00    +0.000 C 
ATOM     14  C   UNL     1       2.087   4.471  19.546  0.00  0.00    +0.000 C 
ENDBRANCH   8  14
BRANCH   8  15
ATOM     15  C   UNL     1       3.432   2.308  19.353  0.00  0.00    +0.000 C 
ATOM     16  C   UNL     1       4.530   2.186  20.400  0.00  0.00    +0.000 C 
ENDBRANCH   8  15
ENDBRANCH   1  11
BRANCH   3  17
ATOM     17  O   UNL     1       5.417   3.741  12.267  0.00  0.00    +0.000 OA
ATOM     18  C   UNL     1       5.707   2.420  11.806  0.00  0.00    +0.000 C 
ENDBRANCH   3  17
BRANCH   4  19
ATOM     19  O   UNL     1       7.738   4.974  12.654  0.00  0.00    +0.000 OA
ATOM     20  C   UNL     1       8.673   6.038  12.748  0.00  0.00    +0.000 C 
ENDBRANCH   4  19
TORSDOF 5
ENDMDL
MODEL 5
REMARK VINA RESULT:      -5.3      0.938      1.072
REMARK  Name = 
REMARK  9 active torsions:
REMARK  status: ('A' for Active; 'I' for Inactive)
REMARK    1  A    between atoms: C_1  and  C_2
REMARK    2  A    between atoms: C_2  and  N_3
REMARK    3  A    between atoms: N_3  and  C_4
REMARK    4  A    between atoms: C_4  and  C_5
REMARK    5  A    between atoms: N_8  and  C_9
REMARK    6  A    between atoms: C_11  and  O_12
REMARK    7  A    between atoms: O_12  and  C_13
REMARK    8  A    between atoms: C_14  and  O_15
REMARK    9  A    between atoms: O_15  and  C_16
REMARK                            x       y       z     vdW  Elec       q    Type
REMARK                         _______ _______ _______ _____ _____    ______ ____
ROOT
ATOM      1  C   UNL     1       3.387   6.781  18.117  0.00  0.00    +0.000 A 
ATOM      2  C   UNL     1       4.591   7.390  17.762  0.00  0.00    +0.000 A 
ATOM      3  C   UNL     1       5.538   6.741  16.967  0.00  0.00    +0.000 A 
ATOM      4  C   UNL     1       5.338   5.400  16.593  0.00  0.00    +0.000 A 
ATOM      5  C   UNL     1       4.162   4.756  16.994  0.00  0.00    +0.000 A 
ATOM      6  C   UNL     1       3.193   5.443  17.745  0.00  0.00    +0.000 A 
ATOM      7 BR   UNL     1       1.599   4.514  18.202  0.00  0.00    +0.000 Br
ENDROOT
BRANCH   1  11
ATOM      8  N   UNL     1       0.961   9.271  19.402  0.00  0.00    +0.000 N 
ATOM      9  C   UNL     1       1.870   8.715  18.498  0.00  0.00    +0.000 C 
ATOM     10  O   UNL     1       2.151   9.307  17.458  0.00  0.00    +0.000 OA
ATOM     11  N   UNL     1       2.394   7.484  18.851  0.00  0.00    +0.000 N 
ATOM     12  H   UNL     1       1.861   6.925  19.500  0.00  0.00    +0.000 HD
BRANCH   8  14
ATOM     13  C   UNL     1      -1.100  10.693  19.461  0.00  0.00    +0.000 C 
ATOM     14  C   UNL     1       0.340  10.540  18.988  0.00  0.00    +0.000 C 
ENDBRANCH   8  14
BRANCH   8  15
ATOM     15  C   UNL     1       0.645   8.671  20.702  0.00  0.00    +0.000 C 
ATOM     16  C   UNL     1       1.339   9.236  21.934  0.00  0.00    +0.000 C 
ENDBRANCH   8  15
ENDBRANCH   1  11
BRANCH   3  17
ATOM     17  O   UNL     1       6.698   7.360  16.557  0.00  0.00    +0.000 OA
ATOM     18  C   UNL     1       7.560   7.784  17.616  0.00  0.00    +0.000 C 
ENDBRANCH   3  17
BRANCH   4  19
ATOM     19  O   UNL     1       6.331   4.828  15.842  0.00  0.00    +0.000 OA
ATOM     20  C   UNL     1       7.402   4.200  16.532  0.00  0.00    +0.000 C 
ENDBRANCH   4  19
TORSDOF 5
ENDMDL
MODEL 6
REMARK VINA RESULT:      -5.2      3.144      4.256
REMARK  Name = 
REMARK  9 active torsions:
REMARK  status: ('A' for Active; 'I' for Inactive)
REMARK    1  A    between atoms: C_1  and  C_2
REMARK    2  A    between atoms: C_2  and  N_3
REMARK    3  A    between atoms: N_3  and  C_4
REMARK    4  A    between atoms: C_4  and  C_5
REMARK    5  A    between atoms: N_8  and  C_9
REMARK    6  A    between atoms: C_11  and  O_12
REMARK    7  A    between atoms: O_12  and  C_13
REMARK    8  A    between atoms: C_14  and  O_15
REMARK    9  A    between atoms: O_15  and  C_16
REMARK                            x       y       z     vdW  Elec       q    Type
REMARK                         _______ _______ _______ _____ _____    ______ ____
ROOT
ATOM      1  C   UNL     1       2.539   6.492  19.436  0.00  0.00    +0.000 A 
ATOM      2  C   UNL     1       2.100   5.604  20.418  0.00  0.00    +0.000 A 
ATOM      3  C   UNL     1       2.703   4.358  20.607  0.00  0.00    +0.000 A 
ATOM      4  C   UNL     1       3.709   3.926  19.724  0.00  0.00    +0.000 A 
ATOM      5  C   UNL     1       4.118   4.783  18.695  0.00  0.00    +0.000 A 
ATOM      6  C   UNL     1       3.540   6.056  18.557  0.00  0.00    +0.000 A 
ATOM      7 BR   UNL     1       4.190   7.181  17.168  0.00  0.00    +0.000 Br
ENDROOT
BRANCH   1  11
ATOM      8  N   UNL     1       0.887   9.760  20.013  0.00  0.00    +0.000 N 
ATOM      9  C   UNL     1       1.469   8.538  20.362  0.00  0.00    +0.000 C 
ATOM     10  O   UNL     1       1.519   8.188  21.540  0.00  0.00    +0.000 OA
ATOM     11  N   UNL     1       1.977   7.792  19.314  0.00  0.00    +0.000 N 
ATOM     12  H   UNL     1       2.219   8.288  18.469  0.00  0.00    +0.000 HD
BRANCH   8  14
ATOM     13  C   UNL     1       0.660  12.081  20.925  0.00  0.00    +0.000 C 
ATOM     14  C   UNL     1       0.421  10.591  21.135  0.00  0.00    +0.000 C 
ENDBRANCH   8  14
BRANCH   8  15
ATOM     15  C   UNL     1       0.708  10.203  18.626  0.00  0.00    +0.000 C 
ATOM     16  C   UNL     1      -0.689  10.120  18.028  0.00  0.00    +0.000 C 
ENDBRANCH   8  15
ENDBRANCH   1  11
BRANCH   3  17
ATOM     17  O   UNL     1       2.319   3.504  21.617  0.00  0.00    +0.000 OA
ATOM     18  C   UNL     1       1.159   2.718  21.333  0.00  0.00    +0.000 C 
ENDBRANCH   3  17
BRANCH   4  19
ATOM     19  O   UNL     1       4.223   2.678  19.959  0.00  0.00    +0.000 OA
ATOM     20  C   UNL     1       3.946   1.660  19.008  0.00  0.00    +0.000 C 
ENDBRANCH   4  19
TORSDOF 5
ENDMDL
MODEL 7
REMARK VINA RESULT:      -5.1      1.142      1.674
REMARK  Name = 
REMARK  9 active torsions:
REMARK  status: ('A' for Active; 'I' for Inactive)
REMARK    1  A    between atoms: C_1  and  C_2
REMARK    2  A    between atoms: C_2  and  N_3
REMARK    3  A    between atoms: N_3  and  C_4
REMARK    4  A    between atoms: C_4  and  C_5
REMARK    5  A    between atoms: N_8  and  C_9
REMARK    6  A    between atoms: C_11  and  O_12
REMARK    7  A    between atoms: O_12  and  C_13
REMARK    8  A    between atoms: C_14  and  O_15
REMARK    9  A    between atoms: O_15  and  C_16
REMARK                            x       y       z     vdW  Elec       q    Type
REMARK                         _______ _______ _______ _____ _____    ______ ____
ROOT
ATOM      1  C   UNL     1       3.700   6.667  17.829  0.00  0.00    +0.000 A 
ATOM      2  C   UNL     1       5.020   7.045  17.585  0.00  0.00    +0.000 A 
ATOM      3  C   UNL     1       5.925   6.190  16.949  0.00  0.00    +0.000 A 
ATOM      4  C   UNL     1       5.543   4.873  16.637  0.00  0.00    +0.000 A 
ATOM      5  C   UNL     1       4.239   4.461  16.933  0.00  0.00    +0.000 A 
ATOM      6  C   UNL     1       3.325   5.353  17.519  0.00  0.00    +0.000 A 
ATOM      7 BR   UNL     1       1.556   4.731  17.838  0.00  0.00    +0.000 Br
ENDROOT
BRANCH   1  11
ATOM      8  N   UNL     1       1.241   8.416  19.981  0.00  0.00    +0.000 N 
ATOM      9  C   UNL     1       2.200   7.456  19.651  0.00  0.00    +0.000 C 
ATOM     10  O   UNL     1       2.505   6.578  20.457  0.00  0.00    +0.000 OA
ATOM     11  N   UNL     1       2.766   7.577  18.394  0.00  0.00    +0.000 N 
ATOM     12  H   UNL     1       2.738   8.489  17.962  0.00  0.00    +0.000 HD
BRANCH   8  14
ATOM     13  C   UNL     1       1.397   9.268  22.332  0.00  0.00    +0.000 C 
ATOM     14  C   UNL     1       0.700   8.336  21.348  0.00  0.00    +0.000 C 
ENDBRANCH   8  14
BRANCH   8  15
ATOM     15  C   UNL     1       0.761   9.435  19.043  0.00  0.00    +0.000 C 
ATOM     16  C   UNL     1      -0.570  10.110  19.345  0.00  0.00    +0.000 C 
ENDBRANCH   8  15
ENDBRANCH   1  11
BRANCH   3  17
ATOM     17  O   UNL     1       7.210   6.581  16.645  0.00  0.00    +0.000 OA
ATOM     18  C   UNL     1       7.741   7.611  17.482  0.00  0.00    +0.000 C 
ENDBRANCH   3  17
BRANCH   4  19
ATOM     19  O   UNL     1       6.501   4.091  16.047  0.00  0.00    +0.000 OA
ATOM     20  C   UNL     1       6.402   3.867  14.649  0.00  0.00    +0.000 C 
ENDBRANCH   4  19
TORSDOF 5
ENDMDL
MODEL 8
REMARK VINA RESULT:      -5.1      1.653      1.935
REMARK  Name = 
REMARK  9 active torsions:
REMARK  status: ('A' for Active; 'I' for Inactive)
REMARK    1  A    between atoms: C_1  and  C_2
REMARK    2  A    between atoms: C_2  and  N_3
REMARK    3  A    between atoms: N_3  and  C_4
REMARK    4  A    between atoms: C_4  and  C_5
REMARK    5  A    between atoms: N_8  and  C_9
REMARK    6  A    between atoms: C_11  and  O_12
REMARK    7  A    between atoms: O_12  and  C_13
REMARK    8  A    between atoms: C_14  and  O_15
REMARK    9  A    between atoms: O_15  and  C_16
REMARK                            x       y       z     vdW  Elec       q    Type
REMARK                         _______ _______ _______ _____ _____    ______ ____
ROOT
ATOM      1  C   UNL     1       2.672   6.662  19.191  0.00  0.00    +0.000 A 
ATOM      2  C   UNL     1       3.618   7.140  18.285  0.00  0.00    +0.000 A 
ATOM      3  C   UNL     1       4.180   6.317  17.305  0.00  0.00    +0.000 A 
ATOM      4  C   UNL     1       3.877   4.944  17.285  0.00  0.00    +0.000 A 
ATOM      5  C   UNL     1       2.975   4.438  18.228  0.00  0.00    +0.000 A 
ATOM      6  C   UNL     1       2.375   5.292  19.169  0.00  0.00    +0.000 A 
ATOM      7 BR   UNL     1       1.118   4.535  20.380  0.00  0.00    +0.000 Br
ENDROOT
BRANCH   1  11
ATOM      8  N   UNL     1       0.921   9.458  20.879  0.00  0.00    +0.000 N 
ATOM      9  C   UNL     1       1.404   8.713  19.800  0.00  0.00    +0.000 C 
ATOM     10  O   UNL     1       1.242   9.112  18.648  0.00  0.00    +0.000 OA
ATOM     11  N   UNL     1       2.042   7.529  20.124  0.00  0.00    +0.000 N 
ATOM     12  H   UNL     1       1.816   7.112  21.015  0.00  0.00    +0.000 HD
BRANCH   8  14
ATOM     13  C   UNL     1       0.960  11.959  20.752  0.00  0.00    +0.000 C 
ATOM     14  C   UNL     1       0.170  10.676  20.532  0.00  0.00    +0.000 C 
ENDBRANCH   8  14
BRANCH   8  15
ATOM     15  C   UNL     1       1.154   9.095  22.281  0.00  0.00    +0.000 C 
ATOM     16  C   UNL     1       0.071   9.440  23.294  0.00  0.00    +0.000 C 
ENDBRANCH   8  15
ENDBRANCH   1  11
BRANCH   3  17
ATOM     17  O   UNL     1       5.064   6.799  16.365  0.00  0.00    +0.000 OA
ATOM     18  C   UNL     1       6.357   7.138  16.872  0.00  0.00    +0.000 C 
ENDBRANCH   3  17
BRANCH   4  19
ATOM     19  O   UNL     1       4.497   4.203  16.313  0.00  0.00    +0.000 OA
ATOM     20  C   UNL     1       5.701   3.534  16.661  0.00  0.00    +0.000 C 
ENDBRANCH   4  19
TORSDOF 5
ENDMDL
MODEL 9
REMARK VINA RESULT:      -5.0      1.983      6.595
REMARK  Name = 
REMARK  9 active torsions:
REMARK  status: ('A' for Active; 'I' for Inactive)
REMARK    1  A    between atoms: C_1  and  C_2
REMARK    2  A    between atoms: C_2  and  N_3
REMARK    3  A    between atoms: N_3  and  C_4
REMARK    4  A    between atoms: C_4  and  C_5
REMARK    5  A    between atoms: N_8  and  C_9
REMARK    6  A    between atoms: C_11  and  O_12
REMARK    7  A    between atoms: O_12  and  C_13
REMARK    8  A    between atoms: C_14  and  O_15
REMARK    9  A    between atoms: O_15  and  C_16
REMARK                            x       y       z     vdW  Elec       q    Type
REMARK                         _______ _______ _______ _____ _____    ______ ____
ROOT
ATOM      1  C   UNL     1       2.827   7.020  18.302  0.00  0.00    +0.000 A 
ATOM      2  C   UNL     1       2.387   8.260  17.838  0.00  0.00    +0.000 A 
ATOM      3  C   UNL     1       1.651   9.129  18.646  0.00  0.00    +0.000 A 
ATOM      4  C   UNL     1       1.242   8.717  19.927  0.00  0.00    +0.000 A 
ATOM      5  C   UNL     1       1.625   7.450  20.383  0.00  0.00    +0.000 A 
ATOM      6  C   UNL     1       2.415   6.613  19.578  0.00  0.00    +0.000 A 
ATOM      7 BR   UNL     1       2.938   4.930  20.293  0.00  0.00    +0.000 Br
ENDROOT
BRANCH   1  11
ATOM      8  N   UNL     1       5.642   5.403  16.513  0.00  0.00    +0.000 N 
ATOM      9  C   UNL     1       5.030   6.266  17.426  0.00  0.00    +0.000 C 
ATOM     10  O   UNL     1       5.709   7.028  18.112  0.00  0.00    +0.000 OA
ATOM     11  N   UNL     1       3.651   6.184  17.500  0.00  0.00    +0.000 N 
ATOM     12  H   UNL     1       3.223   5.323  17.195  0.00  0.00    +0.000 HD
BRANCH   8  14
ATOM     13  C   UNL     1       7.751   4.496  17.515  0.00  0.00    +0.000 C 
ATOM     14  C   UNL     1       7.114   5.430  16.494  0.00  0.00    +0.000 C 
ENDBRANCH   8  14
BRANCH   8  15
ATOM     15  C   UNL     1       4.896   4.533  15.598  0.00  0.00    +0.000 C 
ATOM     16  C   UNL     1       5.538   4.190  14.261  0.00  0.00    +0.000 C 
ENDBRANCH   8  15
ENDBRANCH   1  11
BRANCH   3  17
ATOM     17  O   UNL     1       1.271  10.382  18.218  0.00  0.00    +0.000 OA
ATOM     18  C   UNL     1       2.333  11.333  18.120  0.00  0.00    +0.000 C 
ENDBRANCH   3  17
BRANCH   4  19
ATOM     19  O   UNL     1       0.494   9.617  20.641  0.00  0.00    +0.000 OA
ATOM     20  C   UNL     1       0.617   9.604  22.055  0.00  0.00    +0.000 C 
ENDBRANCH   4  19
TORSDOF 5
ENDMDL
