MODEL 1
REMARK VINA RESULT:      -7.5      0.000      0.000
REMARK  Name = 
REMARK  4 active torsions:
REMARK  status: ('A' for Active; 'I' for Inactive)
REMARK    1  A    between atoms: C_1  and  N_2
REMARK    2  A    between atoms: N_2  and  C_3
REMARK    3  A    between atoms: C_4  and  C_6
REMARK    4  A    between atoms: C_14  and  C_16
REMARK                            x       y       z     vdW  Elec       q    Type
REMARK                         _______ _______ _______ _____ _____    ______ ____
ROOT
ATOM      1  C   UNL     1      -1.458  11.410  22.353  0.00  0.00    +0.000 A 
ATOM      2  N   UNL     1      -1.214  11.490  21.047  0.00  0.00    +0.000 NA
ATOM      3  C   UNL     1      -0.216  10.597  20.694  0.00  0.00    +0.000 A 
ATOM      4  C   UNL     1       0.294   9.868  21.750  0.00  0.00    +0.000 A 
ATOM      5  S   UNL     1      -0.557  10.213  23.185  0.00  0.00    +0.000 S 
ATOM      6  C   UNL     1       1.402   8.884  21.760  0.00  0.00    +0.000 C 
ATOM      7  C   UNL     1       1.325   7.946  20.569  0.00  0.00    +0.000 C 
ATOM      8  N   UNL     1       1.753   8.472  19.268  0.00  0.00    +0.000 N 
ATOM      9  C   UNL     1       2.383   7.682  18.282  0.00  0.00    +0.000 C 
ATOM     10  O   UNL     1       2.799   8.169  17.229  0.00  0.00    +0.000 OA
ATOM     11  C   UNL     1       1.604   9.922  19.008  0.00  0.00    +0.000 C 
ATOM     12  C   UNL     1       0.198  10.498  19.251  0.00  0.00    +0.000 C 
ENDROOT
BRANCH   9  13
ATOM     13  C   UNL     1       2.643   6.217  18.495  0.00  0.00    +0.000 A 
ATOM     14  C   UNL     1       3.715   5.711  19.241  0.00  0.00    +0.000 A 
ATOM     15  C   UNL     1       3.984   4.340  19.279  0.00  0.00    +0.000 A 
ATOM     16  C   UNL     1       3.107   3.450  18.671  0.00  0.00    +0.000 A 
ATOM     17 CL   UNL     1       3.414   1.761  18.764  0.00  0.00    +0.000 Cl
ATOM     18  C   UNL     1       1.976   3.922  18.012  0.00  0.00    +0.000 A 
ATOM     19  C   UNL     1       1.752   5.302  17.911  0.00  0.00    +0.000 A 
ENDBRANCH   9  13
BRANCH   1  23
ATOM     20  C   UNL     1      -2.933  14.300  24.294  0.00  0.00    +0.000 C 
ATOM     21  N   UNL     1      -2.028  13.556  23.442  0.00  0.00    +0.000 N 
ATOM     22  C   UNL     1      -0.771  14.179  23.061  0.00  0.00    +0.000 C 
ATOM     23  C   UNL     1      -2.390  12.237  23.118  0.00  0.00    +0.000 C 
ATOM     24  O   UNL     1      -3.493  11.817  23.471  0.00  0.00    +0.000 OA
ENDBRANCH   1  23
TORSDOF 2
ENDMDL
MODEL 2
REMARK VINA RESULT:      -7.4      0.257      1.011
REMARK  Name = 
REMARK  4 active torsions:
REMARK  status: ('A' for Active; 'I' for Inactive)
REMARK    1  A    between atoms: C_1  and  N_2
REMARK    2  A    between atoms: N_2  and  C_3
REMARK    3  A    between atoms: C_4  and  C_6
REMARK    4  A    between atoms: C_14  and  C_16
REMARK                            x       y       z     vdW  Elec       q    Type
REMARK                         _______ _______ _______ _____ _____    ______ ____
ROOT
ATOM      1  C   UNL     1      -1.572  11.481  22.349  0.00  0.00    +0.000 A 
ATOM      2  N   UNL     1      -1.339  11.584  21.043  0.00  0.00    +0.000 NA
ATOM      3  C   UNL     1      -0.327  10.715  20.669  0.00  0.00    +0.000 A 
ATOM      4  C   UNL     1       0.203   9.979  21.711  0.00  0.00    +0.000 A 
ATOM      5  S   UNL     1      -0.643  10.288  23.157  0.00  0.00    +0.000 S 
ATOM      6  C   UNL     1       1.329   9.015  21.699  0.00  0.00    +0.000 C 
ATOM      7  C   UNL     1       1.261   8.095  20.495  0.00  0.00    +0.000 C 
ATOM      8  N   UNL     1       1.669   8.646  19.198  0.00  0.00    +0.000 N 
ATOM      9  C   UNL     1       2.307   7.883  18.197  0.00  0.00    +0.000 C 
ATOM     10  O   UNL     1       2.706   8.393  17.148  0.00  0.00    +0.000 OA
ATOM     11  C   UNL     1       1.492  10.097  18.962  0.00  0.00    +0.000 C 
ATOM     12  C   UNL     1       0.078  10.644  19.222  0.00  0.00    +0.000 C 
ENDROOT
BRANCH   9  13
ATOM     13  C   UNL     1       2.595   6.420  18.386  0.00  0.00    +0.000 A 
ATOM     14  C   UNL     1       1.751   5.391  17.948  0.00  0.00    +0.000 A 
ATOM     15  C   UNL     1       2.005   4.058  18.283  0.00  0.00    +0.000 A 
ATOM     16  C   UNL     1       3.176   3.729  18.956  0.00  0.00    +0.000 A 
ATOM     17 CL   UNL     1       3.509   2.082  19.321  0.00  0.00    +0.000 Cl
ATOM     18  C   UNL     1       4.083   4.723  19.310  0.00  0.00    +0.000 A 
ATOM     19  C   UNL     1       3.787   6.066  19.039  0.00  0.00    +0.000 A 
ENDBRANCH   9  13
BRANCH   1  23
ATOM     20  C   UNL     1      -3.070  14.297  24.379  0.00  0.00    +0.000 C 
ATOM     21  N   UNL     1      -2.154  13.584  23.511  0.00  0.00    +0.000 N 
ATOM     22  C   UNL     1      -0.892  14.220  23.171  0.00  0.00    +0.000 C 
ATOM     23  C   UNL     1      -2.513  12.279  23.132  0.00  0.00    +0.000 C 
ATOM     24  O   UNL     1      -3.621  11.847  23.454  0.00  0.00    +0.000 OA
ENDBRANCH   1  23
TORSDOF 2
ENDMDL
MODEL 3
REMARK VINA RESULT:      -7.0      2.734      3.244
REMARK  Name = 
REMARK  4 active torsions:
REMARK  status: ('A' for Active; 'I' for Inactive)
REMARK    1  A    between atoms: C_1  and  N_2
REMARK    2  A    between atoms: N_2  and  C_3
REMARK    3  A    between atoms: C_4  and  C_6
REMARK    4  A    between atoms: C_14  and  C_16
REMARK                            x       y       z     vdW  Elec       q    Type
REMARK                         _______ _______ _______ _____ _____    ______ ____
ROOT
ATOM      1  C   UNL     1       0.709  12.162  20.584  0.00  0.00    +0.000 A 
ATOM      2  N   UNL     1       0.839  11.206  21.501  0.00  0.00    +0.000 NA
ATOM      3  C   UNL     1       1.064   9.984  20.886  0.00  0.00    +0.000 A 
ATOM      4  C   UNL     1       1.079  10.037  19.507  0.00  0.00    +0.000 A 
ATOM      5  S   UNL     1       0.926  11.646  18.964  0.00  0.00    +0.000 S 
ATOM      6  C   UNL     1       1.220   8.933  18.528  0.00  0.00    +0.000 C 
ATOM      7  C   UNL     1       2.301   7.953  18.947  0.00  0.00    +0.000 C 
ATOM      8  N   UNL     1       1.977   7.010  20.023  0.00  0.00    +0.000 N 
ATOM      9  C   UNL     1       2.490   5.696  20.083  0.00  0.00    +0.000 C 
ATOM     10  O   UNL     1       2.140   4.903  20.958  0.00  0.00    +0.000 OA
ATOM     11  C   UNL     1       0.990   7.420  21.048  0.00  0.00    +0.000 C 
ATOM     12  C   UNL     1       1.274   8.765  21.741  0.00  0.00    +0.000 C 
ENDROOT
BRANCH   9  13
ATOM     13  C   UNL     1       3.437   5.173  19.040  0.00  0.00    +0.000 A 
ATOM     14  C   UNL     1       4.820   5.395  19.054  0.00  0.00    +0.000 A 
ATOM     15  C   UNL     1       5.624   5.005  17.980  0.00  0.00    +0.000 A 
ATOM     16  C   UNL     1       5.069   4.275  16.934  0.00  0.00    +0.000 A 
ATOM     17 CL   UNL     1       6.072   3.754  15.639  0.00  0.00    +0.000 Cl
ATOM     18  C   UNL     1       3.716   3.950  16.948  0.00  0.00    +0.000 A 
ATOM     19  C   UNL     1       2.899   4.409  17.991  0.00  0.00    +0.000 A 
ENDBRANCH   9  13
BRANCH   1  23
ATOM     20  C   UNL     1       1.087  15.838  21.386  0.00  0.00    +0.000 C 
ATOM     21  N   UNL     1       1.447  14.478  21.035  0.00  0.00    +0.000 N 
ATOM     22  C   UNL     1       2.856  14.123  21.014  0.00  0.00    +0.000 C 
ATOM     23  C   UNL     1       0.395  13.568  20.830  0.00  0.00    +0.000 C 
ATOM     24  O   UNL     1      -0.765  13.983  20.845  0.00  0.00    +0.000 OA
ENDBRANCH   1  23
TORSDOF 2
ENDMDL
MODEL 4
REMARK VINA RESULT:      -7.0      2.647      3.144
REMARK  Name = 
REMARK  4 active torsions:
REMARK  status: ('A' for Active; 'I' for Inactive)
REMARK    1  A    between atoms: C_1  and  N_2
REMARK    2  A    between atoms: N_2  and  C_3
REMARK    3  A    between atoms: C_4  and  C_6
REMARK    4  A    between atoms: C_14  and  C_16
REMARK                            x       y       z     vdW  Elec       q    Type
REMARK                         _______ _______ _______ _____ _____    ______ ____
ROOT
ATOM      1  C   UNL     1       0.759  12.223  20.614  0.00  0.00    +0.000 A 
ATOM      2  N   UNL     1       0.865  11.263  21.531  0.00  0.00    +0.000 NA
ATOM      3  C   UNL     1       1.079  10.040  20.917  0.00  0.00    +0.000 A 
ATOM      4  C   UNL     1       1.111  10.095  19.538  0.00  0.00    +0.000 A 
ATOM      5  S   UNL     1       0.987  11.705  18.996  0.00  0.00    +0.000 S 
ATOM      6  C   UNL     1       1.248   8.989  18.559  0.00  0.00    +0.000 C 
ATOM      7  C   UNL     1       2.309   7.994  18.990  0.00  0.00    +0.000 C 
ATOM      8  N   UNL     1       1.959   7.054  20.060  0.00  0.00    +0.000 N 
ATOM      9  C   UNL     1       2.452   5.733  20.123  0.00  0.00    +0.000 C 
ATOM     10  O   UNL     1       2.080   4.943  20.994  0.00  0.00    +0.000 OA
ATOM     11  C   UNL     1       0.966   7.477  21.074  0.00  0.00    +0.000 C 
ATOM     12  C   UNL     1       1.261   8.816  21.772  0.00  0.00    +0.000 C 
ENDROOT
BRANCH   9  13
ATOM     13  C   UNL     1       3.404   5.197  19.091  0.00  0.00    +0.000 A 
ATOM     14  C   UNL     1       4.796   5.331  19.164  0.00  0.00    +0.000 A 
ATOM     15  C   UNL     1       5.615   4.938  18.101  0.00  0.00    +0.000 A 
ATOM     16  C   UNL     1       5.056   4.292  17.004  0.00  0.00    +0.000 A 
ATOM     17 CL   UNL     1       6.074   3.766  15.723  0.00  0.00    +0.000 Cl
ATOM     18  C   UNL     1       3.686   4.053  16.956  0.00  0.00    +0.000 A 
ATOM     19  C   UNL     1       2.860   4.516  17.989  0.00  0.00    +0.000 A 
ENDBRANCH   9  13
BRANCH   1  23
ATOM     20  C   UNL     1      -1.120  15.480  21.012  0.00  0.00    +0.000 C 
ATOM     21  N   UNL     1      -0.878  14.057  20.877  0.00  0.00    +0.000 N 
ATOM     22  C   UNL     1      -2.020  13.180  20.673  0.00  0.00    +0.000 C 
ATOM     23  C   UNL     1       0.462  13.633  20.858  0.00  0.00    +0.000 C 
ATOM     24  O   UNL     1       1.352  14.458  21.068  0.00  0.00    +0.000 OA
ENDBRANCH   1  23
TORSDOF 2
ENDMDL
MODEL 5
REMARK VINA RESULT:      -6.9      2.940      3.607
REMARK  Name = 
REMARK  4 active torsions:
REMARK  status: ('A' for Active; 'I' for Inactive)
REMARK    1  A    between atoms: C_1  and  N_2
REMARK    2  A    between atoms: N_2  and  C_3
REMARK    3  A    between atoms: C_4  and  C_6
REMARK    4  A    between atoms: C_14  and  C_16
REMARK                            x       y       z     vdW  Elec       q    Type
REMARK                         _______ _______ _______ _____ _____    ______ ____
ROOT
ATOM      1  C   UNL     1       0.446  11.112  20.475  0.00  0.00    +0.000 A 
ATOM      2  N   UNL     1       0.811  10.077  21.228  0.00  0.00    +0.000 NA
ATOM      3  C   UNL     1       1.289   9.051  20.428  0.00  0.00    +0.000 A 
ATOM      4  C   UNL     1       1.257   9.325  19.075  0.00  0.00    +0.000 A 
ATOM      5  S   UNL     1       0.733  10.922  18.796  0.00  0.00    +0.000 S 
ATOM      6  C   UNL     1       1.619   8.451  17.933  0.00  0.00    +0.000 C 
ATOM      7  C   UNL     1       2.902   7.687  18.203  0.00  0.00    +0.000 C 
ATOM      8  N   UNL     1       2.826   6.536  19.109  0.00  0.00    +0.000 N 
ATOM      9  C   UNL     1       3.621   5.380  18.963  0.00  0.00    +0.000 C 
ATOM     10  O   UNL     1       3.481   4.399  19.696  0.00  0.00    +0.000 OA
ATOM     11  C   UNL     1       1.798   6.544  20.175  0.00  0.00    +0.000 C 
ATOM     12  C   UNL     1       1.789   7.790  21.078  0.00  0.00    +0.000 C 
ENDROOT
BRANCH   9  13
ATOM     13  C   UNL     1       4.636   5.256  17.861  0.00  0.00    +0.000 A 
ATOM     14  C   UNL     1       5.865   5.927  17.848  0.00  0.00    +0.000 A 
ATOM     15  C   UNL     1       6.699   5.883  16.727  0.00  0.00    +0.000 A 
ATOM     16  C   UNL     1       6.367   5.064  15.654  0.00  0.00    +0.000 A 
ATOM     17 CL   UNL     1       7.421   4.974  14.299  0.00  0.00    +0.000 Cl
ATOM     18  C   UNL     1       5.201   4.305  15.688  0.00  0.00    +0.000 A 
ATOM     19  C   UNL     1       4.330   4.411  16.781  0.00  0.00    +0.000 A 
ENDBRANCH   9  13
BRANCH   1  23
ATOM     20  C   UNL     1       0.008  14.653  21.727  0.00  0.00    +0.000 C 
ATOM     21  N   UNL     1       0.643  13.479  21.160  0.00  0.00    +0.000 N 
ATOM     22  C   UNL     1       2.081  13.508  20.950  0.00  0.00    +0.000 C 
ATOM     23  C   UNL     1      -0.170  12.353  20.940  0.00  0.00    +0.000 C 
ATOM     24  O   UNL     1      -1.383  12.447  21.127  0.00  0.00    +0.000 OA
ENDBRANCH   1  23
TORSDOF 2
ENDMDL
MODEL 6
REMARK VINA RESULT:      -6.9      2.981      3.709
REMARK  Name = 
REMARK  4 active torsions:
REMARK  status: ('A' for Active; 'I' for Inactive)
REMARK    1  A    between atoms: C_1  and  N_2
REMARK    2  A    between atoms: N_2  and  C_3
REMARK    3  A    between atoms: C_4  and  C_6
REMARK    4  A    between atoms: C_14  and  C_16
REMARK                            x       y       z     vdW  Elec       q    Type
REMARK                         _______ _______ _______ _____ _____    ______ ____
ROOT
ATOM      1  C   UNL     1       0.637  11.137  20.446  0.00  0.00    +0.000 A 
ATOM      2  N   UNL     1       0.942  10.071  21.183  0.00  0.00    +0.000 NA
ATOM      3  C   UNL     1       1.391   9.043  20.368  0.00  0.00    +0.000 A 
ATOM      4  C   UNL     1       1.398   9.348  19.022  0.00  0.00    +0.000 A 
ATOM      5  S   UNL     1       0.949  10.972  18.769  0.00  0.00    +0.000 S 
ATOM      6  C   UNL     1       1.745   8.484  17.868  0.00  0.00    +0.000 C 
ATOM      7  C   UNL     1       2.988   7.659  18.144  0.00  0.00    +0.000 C 
ATOM      8  N   UNL     1       2.844   6.493  19.023  0.00  0.00    +0.000 N 
ATOM      9  C   UNL     1       3.592   5.306  18.865  0.00  0.00    +0.000 C 
ATOM     10  O   UNL     1       3.395   4.317  19.573  0.00  0.00    +0.000 OA
ATOM     11  C   UNL     1       1.797   6.523  20.069  0.00  0.00    +0.000 C 
ATOM     12  C   UNL     1       1.823   7.748  20.999  0.00  0.00    +0.000 C 
ENDROOT
BRANCH   9  13
ATOM     13  C   UNL     1       4.622   5.163  17.780  0.00  0.00    +0.000 A 
ATOM     14  C   UNL     1       5.861   5.816  17.783  0.00  0.00    +0.000 A 
ATOM     15  C   UNL     1       6.711   5.754  16.676  0.00  0.00    +0.000 A 
ATOM     16  C   UNL     1       6.385   4.935  15.602  0.00  0.00    +0.000 A 
ATOM     17 CL   UNL     1       7.459   4.823  14.265  0.00  0.00    +0.000 Cl
ATOM     18  C   UNL     1       5.208   4.192  15.621  0.00  0.00    +0.000 A 
ATOM     19  C   UNL     1       4.322   4.317  16.700  0.00  0.00    +0.000 A 
ENDBRANCH   9  13
BRANCH   1  23
ATOM     20  C   UNL     1      -1.743  14.024  20.989  0.00  0.00    +0.000 C 
ATOM     21  N   UNL     1      -1.257  12.720  20.584  0.00  0.00    +0.000 N 
ATOM     22  C   UNL     1      -2.125  11.882  19.773  0.00  0.00    +0.000 C 
ATOM     23  C   UNL     1       0.067  12.394  20.928  0.00  0.00    +0.000 C 
ATOM     24  O   UNL     1       0.706  13.167  21.642  0.00  0.00    +0.000 OA
ENDBRANCH   1  23
TORSDOF 2
ENDMDL
MODEL 7
REMARK VINA RESULT:      -6.9      2.583      3.263
REMARK  Name = 
REMARK  4 active torsions:
REMARK  status: ('A' for Active; 'I' for Inactive)
REMARK    1  A    between atoms: C_1  and  N_2
REMARK    2  A    between atoms: N_2  and  C_3
REMARK    3  A    between atoms: C_4  and  C_6
REMARK    4  A    between atoms: C_14  and  C_16
REMARK                            x       y       z     vdW  Elec       q    Type
REMARK                         _______ _______ _______ _____ _____    ______ ____
ROOT
ATOM      1  C   UNL     1       0.441  12.010  20.737  0.00  0.00    +0.000 A 
ATOM      2  N   UNL     1       0.662  11.017  21.595  0.00  0.00    +0.000 NA
ATOM      3  C   UNL     1       0.991   9.859  20.908  0.00  0.00    +0.000 A 
ATOM      4  C   UNL     1       0.993   9.995  19.534  0.00  0.00    +0.000 A 
ATOM      5  S   UNL     1       0.693  11.612  19.089  0.00  0.00    +0.000 S 
ATOM      6  C   UNL     1       1.226   8.968  18.491  0.00  0.00    +0.000 C 
ATOM      7  C   UNL     1       2.393   8.066  18.850  0.00  0.00    +0.000 C 
ATOM      8  N   UNL     1       2.161   7.035  19.868  0.00  0.00    +0.000 N 
ATOM      9  C   UNL     1       2.789   5.771  19.848  0.00  0.00    +0.000 C 
ATOM     10  O   UNL     1       2.517   4.899  20.675  0.00  0.00    +0.000 OA
ATOM     11  C   UNL     1       1.148   7.293  20.916  0.00  0.00    +0.000 C 
ATOM     12  C   UNL     1       1.314   8.614  21.688  0.00  0.00    +0.000 C 
ENDROOT
BRANCH   9  13
ATOM     13  C   UNL     1       3.773   5.397  18.774  0.00  0.00    +0.000 A 
ATOM     14  C   UNL     1       3.411   4.865  17.530  0.00  0.00    +0.000 A 
ATOM     15  C   UNL     1       4.380   4.404  16.635  0.00  0.00    +0.000 A 
ATOM     16  C   UNL     1       5.727   4.586  16.924  0.00  0.00    +0.000 A 
ATOM     17 CL   UNL     1       6.914   4.063  15.796  0.00  0.00    +0.000 Cl
ATOM     18  C   UNL     1       6.111   5.209  18.108  0.00  0.00    +0.000 A 
ATOM     19  C   UNL     1       5.137   5.600  19.037  0.00  0.00    +0.000 A 
ENDBRANCH   9  13
BRANCH   1  23
ATOM     20  C   UNL     1      -1.751  15.040  21.292  0.00  0.00    +0.000 C 
ATOM     21  N   UNL     1      -1.371  13.659  21.069  0.00  0.00    +0.000 N 
ATOM     22  C   UNL     1      -2.417  12.697  20.767  0.00  0.00    +0.000 C 
ATOM     23  C   UNL     1       0.004  13.365  21.067  0.00  0.00    +0.000 C 
ATOM     24  O   UNL     1       0.805  14.253  21.363  0.00  0.00    +0.000 OA
ENDBRANCH   1  23
TORSDOF 2
ENDMDL
MODEL 8
REMARK VINA RESULT:      -6.9      2.669      3.178
REMARK  Name = 
REMARK  4 active torsions:
REMARK  status: ('A' for Active; 'I' for Inactive)
REMARK    1  A    between atoms: C_1  and  N_2
REMARK    2  A    between atoms: N_2  and  C_3
REMARK    3  A    between atoms: C_4  and  C_6
REMARK    4  A    between atoms: C_14  and  C_16
REMARK                            x       y       z     vdW  Elec       q    Type
REMARK                         _______ _______ _______ _____ _____    ______ ____
ROOT
ATOM      1  C   UNL     1       0.388  12.086  20.847  0.00  0.00    +0.000 A 
ATOM      2  N   UNL     1       0.737  11.059  21.619  0.00  0.00    +0.000 NA
ATOM      3  C   UNL     1       1.045   9.958  20.835  0.00  0.00    +0.000 A 
ATOM      4  C   UNL     1       0.902  10.169  19.479  0.00  0.00    +0.000 A 
ATOM      5  S   UNL     1       0.489  11.791  19.162  0.00  0.00    +0.000 S 
ATOM      6  C   UNL     1       1.073   9.212  18.359  0.00  0.00    +0.000 C 
ATOM      7  C   UNL     1       2.308   8.351  18.547  0.00  0.00    +0.000 C 
ATOM      8  N   UNL     1       2.225   7.256  19.520  0.00  0.00    +0.000 N 
ATOM      9  C   UNL     1       2.902   6.027  19.364  0.00  0.00    +0.000 C 
ATOM     10  O   UNL     1       2.753   5.099  20.161  0.00  0.00    +0.000 OA
ATOM     11  C   UNL     1       1.313   7.407  20.677  0.00  0.00    +0.000 C 
ATOM     12  C   UNL     1       1.499   8.690  21.505  0.00  0.00    +0.000 C 
ENDROOT
BRANCH   9  13
ATOM     13  C   UNL     1       3.788   5.761  18.179  0.00  0.00    +0.000 A 
ATOM     14  C   UNL     1       4.588   6.732  17.565  0.00  0.00    +0.000 A 
ATOM     15  C   UNL     1       5.276   6.456  16.380  0.00  0.00    +0.000 A 
ATOM     16  C   UNL     1       5.269   5.164  15.865  0.00  0.00    +0.000 A 
ATOM     17 CL   UNL     1       6.157   4.817  14.435  0.00  0.00    +0.000 Cl
ATOM     18  C   UNL     1       4.565   4.156  16.517  0.00  0.00    +0.000 A 
ATOM     19  C   UNL     1       3.815   4.455  17.662  0.00  0.00    +0.000 A 
ENDBRANCH   9  13
BRANCH   1  23
ATOM     20  C   UNL     1      -1.867  14.965  21.807  0.00  0.00    +0.000 C 
ATOM     21  N   UNL     1      -1.450  13.619  21.467  0.00  0.00    +0.000 N 
ATOM     22  C   UNL     1      -2.478  12.619  21.228  0.00  0.00    +0.000 C 
ATOM     23  C   UNL     1      -0.072  13.398  21.298  0.00  0.00    +0.000 C 
ATOM     24  O   UNL     1       0.715  14.310  21.553  0.00  0.00    +0.000 OA
ENDBRANCH   1  23
TORSDOF 2
ENDMDL
MODEL 9
REMARK VINA RESULT:      -6.9      2.657      3.327
REMARK  Name = 
REMARK  4 active torsions:
REMARK  status: ('A' for Active; 'I' for Inactive)
REMARK    1  A    between atoms: C_1  and  N_2
REMARK    2  A    between atoms: N_2  and  C_3
REMARK    3  A    between atoms: C_4  and  C_6
REMARK    4  A    between atoms: C_14  and  C_16
REMARK                            x       y       z     vdW  Elec       q    Type
REMARK                         _______ _______ _______ _____ _____    ______ ____
ROOT
ATOM      1  C   UNL     1       0.466  11.997  20.675  0.00  0.00    +0.000 A 
ATOM      2  N   UNL     1       0.694  11.013  21.541  0.00  0.00    +0.000 NA
ATOM      3  C   UNL     1       1.012   9.847  20.863  0.00  0.00    +0.000 A 
ATOM      4  C   UNL     1       1.000   9.968  19.488  0.00  0.00    +0.000 A 
ATOM      5  S   UNL     1       0.700  11.581  19.029  0.00  0.00    +0.000 S 
ATOM      6  C   UNL     1       1.220   8.929  18.454  0.00  0.00    +0.000 C 
ATOM      7  C   UNL     1       2.388   8.028  18.811  0.00  0.00    +0.000 C 
ATOM      8  N   UNL     1       2.165   7.009  19.842  0.00  0.00    +0.000 N 
ATOM      9  C   UNL     1       2.789   5.743  19.829  0.00  0.00    +0.000 C 
ATOM     10  O   UNL     1       2.523   4.881  20.669  0.00  0.00    +0.000 OA
ATOM     11  C   UNL     1       1.163   7.281  20.898  0.00  0.00    +0.000 C 
ATOM     12  C   UNL     1       1.340   8.610  21.654  0.00  0.00    +0.000 C 
ENDROOT
BRANCH   9  13
ATOM     13  C   UNL     1       3.761   5.355  18.750  0.00  0.00    +0.000 A 
ATOM     14  C   UNL     1       3.387   4.798  17.521  0.00  0.00    +0.000 A 
ATOM     15  C   UNL     1       4.346   4.326  16.621  0.00  0.00    +0.000 A 
ATOM     16  C   UNL     1       5.696   4.521  16.889  0.00  0.00    +0.000 A 
ATOM     17 CL   UNL     1       6.871   3.984  15.756  0.00  0.00    +0.000 Cl
ATOM     18  C   UNL     1       6.091   5.168  18.057  0.00  0.00    +0.000 A 
ATOM     19  C   UNL     1       5.128   5.571  18.991  0.00  0.00    +0.000 A 
ENDBRANCH   9  13
BRANCH   1  23
ATOM     20  C   UNL     1       0.543  15.664  21.594  0.00  0.00    +0.000 C 
ATOM     21  N   UNL     1       1.007  14.358  21.169  0.00  0.00    +0.000 N 
ATOM     22  C   UNL     1       2.440  14.143  21.047  0.00  0.00    +0.000 C 
ATOM     23  C   UNL     1       0.036  13.357  20.995  0.00  0.00    +0.000 C 
ATOM     24  O   UNL     1      -1.154  13.656  21.098  0.00  0.00    +0.000 OA
ENDBRANCH   1  23
TORSDOF 2
ENDMDL
