MODEL 1
REMARK VINA RESULT:      -7.3      0.000      0.000
REMARK  Name = 
REMARK  12 active torsions:
REMARK  status: ('A' for Active; 'I' for Inactive)
REMARK    1  A    between atoms: C_1  and  C_2
REMARK    2  A    between atoms: C_2  and  O_3
REMARK    3  A    between atoms: O_3  and  C_4
REMARK    4  A    between atoms: C_4  and  C_6
REMARK    5  A    between atoms: C_11  and  N_12
REMARK    6  A    between atoms: C_13  and  C_15
REMARK    7  A    between atoms: C_15  and  O_16
REMARK    8  A    between atoms: O_16  and  C_17
REMARK    9  A    between atoms: C_17  and  C_19
REMARK   10  A    between atoms: N_23  and  C_24
REMARK   11  A    between atoms: C_24  and  C_25
REMARK   12  A    between atoms: C_25  and  C_26
REMARK                            x       y       z     vdW  Elec       q    Type
REMARK                         _______ _______ _______ _____ _____    ______ ____
ROOT
ATOM      1  O   UNL     1       1.987   6.466  20.461  0.00  0.00    +0.000 OA
ENDROOT
BRANCH   1   2
ATOM      2  C   UNL     1       2.195   6.058  19.182  0.00  0.00    +0.000 C 
ATOM      3  O   UNL     1       2.628   6.790  18.305  0.00  0.00    +0.000 OA
BRANCH   2   4
ATOM      4  C   UNL     1       1.858   4.591  18.995  0.00  0.00    +0.000 C 
ATOM      5  C   UNL     1       2.647   3.746  20.002  0.00  0.00    +0.000 C 
ATOM      6  C   UNL     1       3.932   3.444  19.263  0.00  0.00    +0.000 C 
ATOM      7  O   UNL     1       4.955   3.019  19.770  0.00  0.00    +0.000 OA
ATOM      8  N   UNL     1       3.707   3.678  17.912  0.00  0.00    +0.000 N 
ATOM      9  C   UNL     1       2.332   4.033  17.659  0.00  0.00    +0.000 C 
BRANCH   8  10
ATOM     10  C   UNL     1       4.627   3.280  16.851  0.00  0.00    +0.000 C 
BRANCH  10  11
ATOM     11  C   UNL     1       5.146   4.479  16.049  0.00  0.00    +0.000 C 
BRANCH  11  12
ATOM     12  C   UNL     1       6.122   5.317  16.837  0.00  0.00    +0.000 A 
ATOM     13  C   UNL     1       7.051   4.712  17.696  0.00  0.00    +0.000 A 
ATOM     14  C   UNL     1       7.931   5.490  18.451  0.00  0.00    +0.000 A 
ATOM     15  C   UNL     1       7.890   6.880  18.357  0.00  0.00    +0.000 A 
ATOM     16  C   UNL     1       6.978   7.491  17.500  0.00  0.00    +0.000 A 
ATOM     17  C   UNL     1       6.097   6.715  16.744  0.00  0.00    +0.000 A 
ENDBRANCH  11  12
ENDBRANCH  10  11
ENDBRANCH   8  10
ENDBRANCH   2   4
ENDBRANCH   1   2
BRANCH   1  18
ATOM     18  C   UNL     1       1.933   7.879  20.575  0.00  0.00    +0.000 C 
BRANCH  18  20
ATOM     19  N   UNL     1       0.439   9.634  19.725  0.00  0.00    +0.000 N 
ATOM     20  C   UNL     1       0.587   8.604  20.641  0.00  0.00    +0.000 C 
ATOM     21  O   UNL     1      -0.216   8.278  21.514  0.00  0.00    +0.000 OA
ATOM     22  H   UNL     1       1.074   9.632  18.930  0.00  0.00    +0.000 HD
BRANCH  19  28
ATOM     23  C   UNL     1      -0.897  11.561  20.541  0.00  0.00    +0.000 A 
ATOM     24  C   UNL     1      -1.979  12.446  20.335  0.00  0.00    +0.000 A 
ATOM     25  C   UNL     1      -2.866  12.272  19.274  0.00  0.00    +0.000 A 
ATOM     26  C   UNL     1      -2.693  11.202  18.414  0.00  0.00    +0.000 A 
ATOM     27  C   UNL     1      -1.619  10.331  18.592  0.00  0.00    +0.000 A 
ATOM     28  C   UNL     1      -0.681  10.505  19.626  0.00  0.00    +0.000 A 
BRANCH  23  29
ATOM     29  C   UNL     1      -0.042  11.901  21.722  0.00  0.00    +0.000 C 
ATOM     30  O   UNL     1      -0.495  12.123  22.830  0.00  0.00    +0.000 OA
BRANCH  29  31
ATOM     31  O   UNL     1       1.270  12.019  21.376  0.00  0.00    +0.000 OA
BRANCH  31  33
ATOM     32  C   UNL     1       2.204  13.058  19.380  0.00  0.00    +0.000 C 
ATOM     33  C   UNL     1       1.608  13.267  20.756  0.00  0.00    +0.000 C 
ENDBRANCH  31  33
ENDBRANCH  29  31
ENDBRANCH  23  29
ENDBRANCH  19  28
ENDBRANCH  18  20
ENDBRANCH   1  18
TORSDOF 11
ENDMDL
MODEL 2
REMARK VINA RESULT:      -7.3      4.983      7.837
REMARK  Name = 
REMARK  12 active torsions:
REMARK  status: ('A' for Active; 'I' for Inactive)
REMARK    1  A    between atoms: C_1  and  C_2
REMARK    2  A    between atoms: C_2  and  O_3
REMARK    3  A    between atoms: O_3  and  C_4
REMARK    4  A    between atoms: C_4  and  C_6
REMARK    5  A    between atoms: C_11  and  N_12
REMARK    6  A    between atoms: C_13  and  C_15
REMARK    7  A    between atoms: C_15  and  O_16
REMARK    8  A    between atoms: O_16  and  C_17
REMARK    9  A    between atoms: C_17  and  C_19
REMARK   10  A    between atoms: N_23  and  C_24
REMARK   11  A    between atoms: C_24  and  C_25
REMARK   12  A    between atoms: C_25  and  C_26
REMARK                            x       y       z     vdW  Elec       q    Type
REMARK                         _______ _______ _______ _____ _____    ______ ____
ROOT
ATOM      1  O   UNL     1       8.121   6.464  18.108  0.00  0.00    +0.000 OA
ENDROOT
BRANCH   1   2
ATOM      2  C   UNL     1       7.416   5.460  18.691  0.00  0.00    +0.000 C 
ATOM      3  O   UNL     1       7.301   5.335  19.901  0.00  0.00    +0.000 OA
BRANCH   2   4
ATOM      4  C   UNL     1       6.774   4.549  17.663  0.00  0.00    +0.000 C 
ATOM      5  C   UNL     1       6.755   5.244  16.297  0.00  0.00    +0.000 C 
ATOM      6  C   UNL     1       5.440   5.993  16.312  0.00  0.00    +0.000 C 
ATOM      7  O   UNL     1       5.126   6.883  15.541  0.00  0.00    +0.000 OA
ATOM      8  N   UNL     1       4.650   5.439  17.310  0.00  0.00    +0.000 N 
ATOM      9  C   UNL     1       5.293   4.303  17.924  0.00  0.00    +0.000 C 
BRANCH   8  10
ATOM     10  C   UNL     1       3.229   5.729  17.482  0.00  0.00    +0.000 C 
BRANCH  10  11
ATOM     11  C   UNL     1       2.871   6.045  18.939  0.00  0.00    +0.000 C 
BRANCH  11  12
ATOM     12  C   UNL     1       2.290   4.852  19.658  0.00  0.00    +0.000 A 
ATOM     13  C   UNL     1       1.398   3.991  19.004  0.00  0.00    +0.000 A 
ATOM     14  C   UNL     1       0.833   2.908  19.682  0.00  0.00    +0.000 A 
ATOM     15  C   UNL     1       1.155   2.675  21.018  0.00  0.00    +0.000 A 
ATOM     16  C   UNL     1       2.048   3.520  21.674  0.00  0.00    +0.000 A 
ATOM     17  C   UNL     1       2.613   4.604  20.999  0.00  0.00    +0.000 A 
ENDBRANCH  11  12
ENDBRANCH  10  11
ENDBRANCH   8  10
ENDBRANCH   2   4
ENDBRANCH   1   2
BRANCH   1  18
ATOM     18  C   UNL     1       8.431   7.507  19.017  0.00  0.00    +0.000 C 
BRANCH  18  20
ATOM     19  N   UNL     1       9.444   9.737  19.218  0.00  0.00    +0.000 N 
ATOM     20  C   UNL     1       8.521   8.958  18.538  0.00  0.00    +0.000 C 
ATOM     21  O   UNL     1       7.750   9.336  17.657  0.00  0.00    +0.000 OA
ATOM     22  H   UNL     1      10.159   9.240  19.745  0.00  0.00    +0.000 HD
BRANCH  19  28
ATOM     23  C   UNL     1       9.426  12.084  20.027  0.00  0.00    +0.000 A 
ATOM     24  C   UNL     1       9.756  13.437  19.793  0.00  0.00    +0.000 A 
ATOM     25  C   UNL     1      10.276  13.856  18.570  0.00  0.00    +0.000 A 
ATOM     26  C   UNL     1      10.457  12.930  17.557  0.00  0.00    +0.000 A 
ATOM     27  C   UNL     1      10.154  11.588  17.779  0.00  0.00    +0.000 A 
ATOM     28  C   UNL     1       9.670  11.126  19.016  0.00  0.00    +0.000 A 
BRANCH  23  29
ATOM     29  C   UNL     1       8.888  11.811  21.397  0.00  0.00    +0.000 C 
ATOM     30  O   UNL     1       8.734  10.688  21.841  0.00  0.00    +0.000 OA
BRANCH  29  31
ATOM     31  O   UNL     1       8.515  12.959  22.028  0.00  0.00    +0.000 OA
BRANCH  31  33
ATOM     32  C   UNL     1       8.127  12.969  24.434  0.00  0.00    +0.000 C 
ATOM     33  C   UNL     1       7.531  12.774  23.056  0.00  0.00    +0.000 C 
ENDBRANCH  31  33
ENDBRANCH  29  31
ENDBRANCH  23  29
ENDBRANCH  19  28
ENDBRANCH  18  20
ENDBRANCH   1  18
TORSDOF 11
ENDMDL
MODEL 3
REMARK VINA RESULT:      -7.2      1.029      1.388
REMARK  Name = 
REMARK  12 active torsions:
REMARK  status: ('A' for Active; 'I' for Inactive)
REMARK    1  A    between atoms: C_1  and  C_2
REMARK    2  A    between atoms: C_2  and  O_3
REMARK    3  A    between atoms: O_3  and  C_4
REMARK    4  A    between atoms: C_4  and  C_6
REMARK    5  A    between atoms: C_11  and  N_12
REMARK    6  A    between atoms: C_13  and  C_15
REMARK    7  A    between atoms: C_15  and  O_16
REMARK    8  A    between atoms: O_16  and  C_17
REMARK    9  A    between atoms: C_17  and  C_19
REMARK   10  A    between atoms: N_23  and  C_24
REMARK   11  A    between atoms: C_24  and  C_25
REMARK   12  A    between atoms: C_25  and  C_26
REMARK                            x       y       z     vdW  Elec       q    Type
REMARK                         _______ _______ _______ _____ _____    ______ ____
ROOT
ATOM      1  O   UNL     1       2.489   6.200  18.883  0.00  0.00    +0.000 OA
ENDROOT
BRANCH   1   2
ATOM      2  C   UNL     1       1.898   5.475  19.869  0.00  0.00    +0.000 C 
ATOM      3  O   UNL     1       1.607   5.939  20.961  0.00  0.00    +0.000 OA
BRANCH   2   4
ATOM      4  C   UNL     1       1.621   4.049  19.434  0.00  0.00    +0.000 C 
ATOM      5  C   UNL     1       2.407   3.076  20.321  0.00  0.00    +0.000 C 
ATOM      6  C   UNL     1       3.727   2.940  19.593  0.00  0.00    +0.000 C 
ATOM      7  O   UNL     1       4.748   2.470  20.064  0.00  0.00    +0.000 OA
ATOM      8  N   UNL     1       3.539   3.384  18.291  0.00  0.00    +0.000 N 
ATOM      9  C   UNL     1       2.161   3.732  18.044  0.00  0.00    +0.000 C 
BRANCH   8  10
ATOM     10  C   UNL     1       4.509   3.193  17.216  0.00  0.00    +0.000 C 
BRANCH  10  11
ATOM     11  C   UNL     1       4.791   4.490  16.449  0.00  0.00    +0.000 C 
BRANCH  11  12
ATOM     12  C   UNL     1       5.883   5.310  17.090  0.00  0.00    +0.000 A 
ATOM     13  C   UNL     1       6.719   4.747  18.065  0.00  0.00    +0.000 A 
ATOM     14  C   UNL     1       7.706   5.517  18.683  0.00  0.00    +0.000 A 
ATOM     15  C   UNL     1       7.868   6.856  18.334  0.00  0.00    +0.000 A 
ATOM     16  C   UNL     1       7.050   7.423  17.360  0.00  0.00    +0.000 A 
ATOM     17  C   UNL     1       6.061   6.656  16.741  0.00  0.00    +0.000 A 
ENDBRANCH  11  12
ENDBRANCH  10  11
ENDBRANCH   8  10
ENDBRANCH   2   4
ENDBRANCH   1   2
BRANCH   1  18
ATOM     18  C   UNL     1       2.673   7.558  19.246  0.00  0.00    +0.000 C 
BRANCH  18  20
ATOM     19  N   UNL     1       0.856   9.194  19.492  0.00  0.00    +0.000 N 
ATOM     20  C   UNL     1       1.800   8.654  18.632  0.00  0.00    +0.000 C 
ATOM     21  O   UNL     1       1.946   8.926  17.441  0.00  0.00    +0.000 OA
ATOM     22  H   UNL     1       1.008   9.044  20.487  0.00  0.00    +0.000 HD
BRANCH  19  28
ATOM     23  C   UNL     1      -0.337  11.325  19.938  0.00  0.00    +0.000 A 
ATOM     24  C   UNL     1      -1.258  12.300  19.495  0.00  0.00    +0.000 A 
ATOM     25  C   UNL     1      -1.992  12.127  18.323  0.00  0.00    +0.000 A 
ATOM     26  C   UNL     1      -1.826  10.968  17.585  0.00  0.00    +0.000 A 
ATOM     27  C   UNL     1      -0.907  10.005  17.997  0.00  0.00    +0.000 A 
ATOM     28  C   UNL     1      -0.120  10.170  19.151  0.00  0.00    +0.000 A 
BRANCH  23  29
ATOM     29  C   UNL     1       0.366  11.678  21.210  0.00  0.00    +0.000 C 
ATOM     30  O   UNL     1       0.345  10.972  22.202  0.00  0.00    +0.000 OA
BRANCH  29  31
ATOM     31  O   UNL     1       0.943  12.910  21.141  0.00  0.00    +0.000 OA
BRANCH  31  33
ATOM     32  C   UNL     1       3.180  13.873  21.050  0.00  0.00    +0.000 C 
ATOM     33  C   UNL     1       2.172  12.947  20.403  0.00  0.00    +0.000 C 
ENDBRANCH  31  33
ENDBRANCH  29  31
ENDBRANCH  23  29
ENDBRANCH  19  28
ENDBRANCH  18  20
ENDBRANCH   1  18
TORSDOF 11
ENDMDL
MODEL 4
REMARK VINA RESULT:      -7.1      1.764      3.082
REMARK  Name = 
REMARK  12 active torsions:
REMARK  status: ('A' for Active; 'I' for Inactive)
REMARK    1  A    between atoms: C_1  and  C_2
REMARK    2  A    between atoms: C_2  and  O_3
REMARK    3  A    between atoms: O_3  and  C_4
REMARK    4  A    between atoms: C_4  and  C_6
REMARK    5  A    between atoms: C_11  and  N_12
REMARK    6  A    between atoms: C_13  and  C_15
REMARK    7  A    between atoms: C_15  and  O_16
REMARK    8  A    between atoms: O_16  and  C_17
REMARK    9  A    between atoms: C_17  and  C_19
REMARK   10  A    between atoms: N_23  and  C_24
REMARK   11  A    between atoms: C_24  and  C_25
REMARK   12  A    between atoms: C_25  and  C_26
REMARK                            x       y       z     vdW  Elec       q    Type
REMARK                         _______ _______ _______ _____ _____    ______ ____
ROOT
ATOM      1  O   UNL     1       2.081   6.541  19.316  0.00  0.00    +0.000 OA
ENDROOT
BRANCH   1   2
ATOM      2  C   UNL     1       2.015   5.430  20.094  0.00  0.00    +0.000 C 
ATOM      3  O   UNL     1       2.168   5.449  21.306  0.00  0.00    +0.000 OA
BRANCH   2   4
ATOM      4  C   UNL     1       1.700   4.189  19.282  0.00  0.00    +0.000 C 
ATOM      5  C   UNL     1       2.387   2.972  19.911  0.00  0.00    +0.000 C 
ATOM      6  C   UNL     1       3.740   2.954  19.232  0.00  0.00    +0.000 C 
ATOM      7  O   UNL     1       4.709   2.317  19.605  0.00  0.00    +0.000 OA
ATOM      8  N   UNL     1       3.648   3.738  18.089  0.00  0.00    +0.000 N 
ATOM      9  C   UNL     1       2.304   4.219  17.884  0.00  0.00    +0.000 C 
BRANCH   8  10
ATOM     10  C   UNL     1       4.669   3.781  17.045  0.00  0.00    +0.000 C 
BRANCH  10  11
ATOM     11  C   UNL     1       4.952   5.209  16.566  0.00  0.00    +0.000 C 
BRANCH  11  12
ATOM     12  C   UNL     1       6.086   5.854  17.323  0.00  0.00    +0.000 A 
ATOM     13  C   UNL     1       6.526   7.143  16.989  0.00  0.00    +0.000 A 
ATOM     14  C   UNL     1       7.599   7.724  17.668  0.00  0.00    +0.000 A 
ATOM     15  C   UNL     1       8.244   7.024  18.686  0.00  0.00    +0.000 A 
ATOM     16  C   UNL     1       7.809   5.747  19.033  0.00  0.00    +0.000 A 
ATOM     17  C   UNL     1       6.736   5.163  18.355  0.00  0.00    +0.000 A 
ENDBRANCH  11  12
ENDBRANCH  10  11
ENDBRANCH   8  10
ENDBRANCH   2   4
ENDBRANCH   1   2
BRANCH   1  18
ATOM     18  C   UNL     1       1.631   7.704  19.992  0.00  0.00    +0.000 C 
BRANCH  18  20
ATOM     19  N   UNL     1       0.920  10.056  19.949  0.00  0.00    +0.000 N 
ATOM     20  C   UNL     1       1.622   9.062  19.286  0.00  0.00    +0.000 C 
ATOM     21  O   UNL     1       2.164   9.157  18.186  0.00  0.00    +0.000 OA
ATOM     22  H   UNL     1       0.732   9.899  20.937  0.00  0.00    +0.000 HD
BRANCH  19  28
ATOM     23  C   UNL     1      -0.395  11.708  18.644  0.00  0.00    +0.000 A 
ATOM     24  C   UNL     1      -0.607  13.057  18.282  0.00  0.00    +0.000 A 
ATOM     25  C   UNL     1       0.267  14.063  18.687  0.00  0.00    +0.000 A 
ATOM     26  C   UNL     1       1.375  13.733  19.448  0.00  0.00    +0.000 A 
ATOM     27  C   UNL     1       1.588  12.410  19.831  0.00  0.00    +0.000 A 
ATOM     28  C   UNL     1       0.700  11.378  19.475  0.00  0.00    +0.000 A 
BRANCH  23  29
ATOM     29  C   UNL     1      -1.435  10.763  18.129  0.00  0.00    +0.000 C 
ATOM     30  O   UNL     1      -1.718   9.717  18.684  0.00  0.00    +0.000 OA
BRANCH  29  31
ATOM     31  O   UNL     1      -1.943  11.177  16.935  0.00  0.00    +0.000 OA
BRANCH  31  33
ATOM     32  C   UNL     1      -3.040  10.052  15.072  0.00  0.00    +0.000 C 
ATOM     33  C   UNL     1      -3.126  10.478  16.523  0.00  0.00    +0.000 C 
ENDBRANCH  31  33
ENDBRANCH  29  31
ENDBRANCH  23  29
ENDBRANCH  19  28
ENDBRANCH  18  20
ENDBRANCH   1  18
TORSDOF 11
ENDMDL
MODEL 5
REMARK VINA RESULT:      -7.1      4.935      8.108
REMARK  Name = 
REMARK  12 active torsions:
REMARK  status: ('A' for Active; 'I' for Inactive)
REMARK    1  A    between atoms: C_1  and  C_2
REMARK    2  A    between atoms: C_2  and  O_3
REMARK    3  A    between atoms: O_3  and  C_4
REMARK    4  A    between atoms: C_4  and  C_6
REMARK    5  A    between atoms: C_11  and  N_12
REMARK    6  A    between atoms: C_13  and  C_15
REMARK    7  A    between atoms: C_15  and  O_16
REMARK    8  A    between atoms: O_16  and  C_17
REMARK    9  A    between atoms: C_17  and  C_19
REMARK   10  A    between atoms: N_23  and  C_24
REMARK   11  A    between atoms: C_24  and  C_25
REMARK   12  A    between atoms: C_25  and  C_26
REMARK                            x       y       z     vdW  Elec       q    Type
REMARK                         _______ _______ _______ _____ _____    ______ ____
ROOT
ATOM      1  O   UNL     1       8.215   7.490  17.931  0.00  0.00    +0.000 OA
ENDROOT
BRANCH   1   2
ATOM      2  C   UNL     1       7.045   6.870  17.631  0.00  0.00    +0.000 C 
ATOM      3  O   UNL     1       6.219   7.331  16.858  0.00  0.00    +0.000 OA
BRANCH   2   4
ATOM      4  C   UNL     1       6.912   5.538  18.345  0.00  0.00    +0.000 C 
ATOM      5  C   UNL     1       6.782   4.410  17.314  0.00  0.00    +0.000 C 
ATOM      6  C   UNL     1       5.288   4.327  17.085  0.00  0.00    +0.000 C 
ATOM      7  O   UNL     1       4.747   3.747  16.160  0.00  0.00    +0.000 OA
ATOM      8  N   UNL     1       4.662   4.968  18.146  0.00  0.00    +0.000 N 
ATOM      9  C   UNL     1       5.616   5.409  19.135  0.00  0.00    +0.000 C 
BRANCH   8  10
ATOM     10  C   UNL     1       3.228   4.898  18.410  0.00  0.00    +0.000 C 
BRANCH  10  11
ATOM     11  C   UNL     1       2.838   5.619  19.706  0.00  0.00    +0.000 C 
BRANCH  11  12
ATOM     12  C   UNL     1       2.245   6.982  19.448  0.00  0.00    +0.000 A 
ATOM     13  C   UNL     1       2.297   7.552  18.168  0.00  0.00    +0.000 A 
ATOM     14  C   UNL     1       1.780   8.829  17.939  0.00  0.00    +0.000 A 
ATOM     15  C   UNL     1       1.207   9.548  18.985  0.00  0.00    +0.000 A 
ATOM     16  C   UNL     1       1.141   8.988  20.259  0.00  0.00    +0.000 A 
ATOM     17  C   UNL     1       1.658   7.711  20.491  0.00  0.00    +0.000 A 
ENDBRANCH  11  12
ENDBRANCH  10  11
ENDBRANCH   8  10
ENDBRANCH   2   4
ENDBRANCH   1   2
BRANCH   1  18
ATOM     18  C   UNL     1       8.195   8.871  17.607  0.00  0.00    +0.000 C 
BRANCH  18  20
ATOM     19  N   UNL     1       9.460  10.966  17.827  0.00  0.00    +0.000 N 
ATOM     20  C   UNL     1       8.900   9.892  18.502  0.00  0.00    +0.000 C 
ATOM     21  O   UNL     1       8.976   9.664  19.709  0.00  0.00    +0.000 OA
ATOM     22  H   UNL     1       9.120  11.138  16.884  0.00  0.00    +0.000 HD
BRANCH  19  28
ATOM     23  C   UNL     1       9.698  13.303  18.629  0.00  0.00    +0.000 A 
ATOM     24  C   UNL     1      10.482  14.269  19.299  0.00  0.00    +0.000 A 
ATOM     25  C   UNL     1      11.783  13.988  19.711  0.00  0.00    +0.000 A 
ATOM     26  C   UNL     1      12.325  12.742  19.445  0.00  0.00    +0.000 A 
ATOM     27  C   UNL     1      11.557  11.772  18.803  0.00  0.00    +0.000 A 
ATOM     28  C   UNL     1      10.227  12.009  18.414  0.00  0.00    +0.000 A 
BRANCH  23  29
ATOM     29  C   UNL     1       8.324  13.773  18.266  0.00  0.00    +0.000 C 
ATOM     30  O   UNL     1       7.709  13.351  17.304  0.00  0.00    +0.000 OA
BRANCH  29  31
ATOM     31  O   UNL     1       7.903  14.777  19.084  0.00  0.00    +0.000 OA
BRANCH  31  33
ATOM     32  C   UNL     1       8.027  17.191  18.770  0.00  0.00    +0.000 C 
ATOM     33  C   UNL     1       7.332  15.899  18.396  0.00  0.00    +0.000 C 
ENDBRANCH  31  33
ENDBRANCH  29  31
ENDBRANCH  23  29
ENDBRANCH  19  28
ENDBRANCH  18  20
ENDBRANCH   1  18
TORSDOF 11
ENDMDL
MODEL 6
REMARK VINA RESULT:      -7.1      2.594     10.305
REMARK  Name = 
REMARK  12 active torsions:
REMARK  status: ('A' for Active; 'I' for Inactive)
REMARK    1  A    between atoms: C_1  and  C_2
REMARK    2  A    between atoms: C_2  and  O_3
REMARK    3  A    between atoms: O_3  and  C_4
REMARK    4  A    between atoms: C_4  and  C_6
REMARK    5  A    between atoms: C_11  and  N_12
REMARK    6  A    between atoms: C_13  and  C_15
REMARK    7  A    between atoms: C_15  and  O_16
REMARK    8  A    between atoms: O_16  and  C_17
REMARK    9  A    between atoms: C_17  and  C_19
REMARK   10  A    between atoms: N_23  and  C_24
REMARK   11  A    between atoms: C_24  and  C_25
REMARK   12  A    between atoms: C_25  and  C_26
REMARK                            x       y       z     vdW  Elec       q    Type
REMARK                         _______ _______ _______ _____ _____    ______ ____
ROOT
ATOM      1  O   UNL     1       0.128   8.596  20.725  0.00  0.00    +0.000 OA
ENDROOT
BRANCH   1   2
ATOM      2  C   UNL     1      -0.041   9.836  20.195  0.00  0.00    +0.000 C 
ATOM      3  O   UNL     1      -0.555  10.036  19.104  0.00  0.00    +0.000 OA
BRANCH   2   4
ATOM      4  C   UNL     1       0.454  10.922  21.130  0.00  0.00    +0.000 C 
ATOM      5  C   UNL     1      -0.016  10.627  22.559  0.00  0.00    +0.000 C 
ATOM      6  C   UNL     1      -1.361  11.318  22.626  0.00  0.00    +0.000 C 
ATOM      7  O   UNL     1      -2.207  11.134  23.483  0.00  0.00    +0.000 OA
ATOM      8  N   UNL     1      -1.419  12.230  21.581  0.00  0.00    +0.000 N 
ATOM      9  C   UNL     1      -0.175  12.282  20.854  0.00  0.00    +0.000 C 
BRANCH   8  10
ATOM     10  C   UNL     1      -2.454  13.252  21.447  0.00  0.00    +0.000 C 
BRANCH  10  11
ATOM     11  C   UNL     1      -3.604  12.800  20.538  0.00  0.00    +0.000 C 
BRANCH  11  12
ATOM     12  C   UNL     1      -4.909  12.672  21.285  0.00  0.00    +0.000 A 
ATOM     13  C   UNL     1      -6.058  12.197  20.638  0.00  0.00    +0.000 A 
ATOM     14  C   UNL     1      -7.273  12.112  21.322  0.00  0.00    +0.000 A 
ATOM     15  C   UNL     1      -7.351  12.501  22.657  0.00  0.00    +0.000 A 
ATOM     16  C   UNL     1      -6.213  12.965  23.313  0.00  0.00    +0.000 A 
ATOM     17  C   UNL     1      -4.997  13.052  22.632  0.00  0.00    +0.000 A 
ENDBRANCH  11  12
ENDBRANCH  10  11
ENDBRANCH   8  10
ENDBRANCH   2   4
ENDBRANCH   1   2
BRANCH   1  18
ATOM     18  C   UNL     1       1.495   8.229  20.817  0.00  0.00    +0.000 C 
BRANCH  18  20
ATOM     19  N   UNL     1       2.827   6.316  20.038  0.00  0.00    +0.000 N 
ATOM     20  C   UNL     1       2.181   7.485  19.668  0.00  0.00    +0.000 C 
ATOM     21  O   UNL     1       2.168   7.993  18.547  0.00  0.00    +0.000 OA
ATOM     22  H   UNL     1       2.557   5.909  20.930  0.00  0.00    +0.000 HD
BRANCH  19  28
ATOM     23  C   UNL     1       3.005   4.469  18.389  0.00  0.00    +0.000 A 
ATOM     24  C   UNL     1       3.812   3.735  17.490  0.00  0.00    +0.000 A 
ATOM     25  C   UNL     1       5.185   3.958  17.399  0.00  0.00    +0.000 A 
ATOM     26  C   UNL     1       5.773   4.906  18.218  0.00  0.00    +0.000 A 
ATOM     27  C   UNL     1       4.988   5.652  19.096  0.00  0.00    +0.000 A 
ATOM     28  C   UNL     1       3.595   5.482  19.179  0.00  0.00    +0.000 A 
BRANCH  23  29
ATOM     29  C   UNL     1       1.555   4.105  18.349  0.00  0.00    +0.000 C 
ATOM     30  O   UNL     1       0.935   3.947  17.312  0.00  0.00    +0.000 OA
BRANCH  29  31
ATOM     31  O   UNL     1       1.011   4.066  19.597  0.00  0.00    +0.000 OA
BRANCH  31  33
ATOM     32  C   UNL     1       1.803   2.918  21.596  0.00  0.00    +0.000 C 
ATOM     33  C   UNL     1       1.120   2.793  20.250  0.00  0.00    +0.000 C 
ENDBRANCH  31  33
ENDBRANCH  29  31
ENDBRANCH  23  29
ENDBRANCH  19  28
ENDBRANCH  18  20
ENDBRANCH   1  18
TORSDOF 11
ENDMDL
MODEL 7
REMARK VINA RESULT:      -7.0      4.797      7.985
REMARK  Name = 
REMARK  12 active torsions:
REMARK  status: ('A' for Active; 'I' for Inactive)
REMARK    1  A    between atoms: C_1  and  C_2
REMARK    2  A    between atoms: C_2  and  O_3
REMARK    3  A    between atoms: O_3  and  C_4
REMARK    4  A    between atoms: C_4  and  C_6
REMARK    5  A    between atoms: C_11  and  N_12
REMARK    6  A    between atoms: C_13  and  C_15
REMARK    7  A    between atoms: C_15  and  O_16
REMARK    8  A    between atoms: O_16  and  C_17
REMARK    9  A    between atoms: C_17  and  C_19
REMARK   10  A    between atoms: N_23  and  C_24
REMARK   11  A    between atoms: C_24  and  C_25
REMARK   12  A    between atoms: C_25  and  C_26
REMARK                            x       y       z     vdW  Elec       q    Type
REMARK                         _______ _______ _______ _____ _____    ______ ____
ROOT
ATOM      1  O   UNL     1       7.648   7.061  18.106  0.00  0.00    +0.000 OA
ENDROOT
BRANCH   1   2
ATOM      2  C   UNL     1       7.698   5.791  18.583  0.00  0.00    +0.000 C 
ATOM      3  O   UNL     1       8.156   5.503  19.679  0.00  0.00    +0.000 OA
BRANCH   2   4
ATOM      4  C   UNL     1       7.094   4.797  17.610  0.00  0.00    +0.000 C 
ATOM      5  C   UNL     1       6.888   5.468  16.247  0.00  0.00    +0.000 C 
ATOM      6  C   UNL     1       5.497   6.055  16.361  0.00  0.00    +0.000 C 
ATOM      7  O   UNL     1       5.021   6.891  15.615  0.00  0.00    +0.000 OA
ATOM      8  N   UNL     1       4.859   5.421  17.419  0.00  0.00    +0.000 N 
ATOM      9  C   UNL     1       5.678   4.378  17.984  0.00  0.00    +0.000 C 
BRANCH   8  10
ATOM     10  C   UNL     1       3.430   5.541  17.699  0.00  0.00    +0.000 C 
BRANCH  10  11
ATOM     11  C   UNL     1       3.155   6.080  19.108  0.00  0.00    +0.000 C 
BRANCH  11  12
ATOM     12  C   UNL     1       2.400   7.385  19.085  0.00  0.00    +0.000 A 
ATOM     13  C   UNL     1       1.728   7.841  20.228  0.00  0.00    +0.000 A 
ATOM     14  C   UNL     1       0.999   9.032  20.195  0.00  0.00    +0.000 A 
ATOM     15  C   UNL     1       0.935   9.778  19.021  0.00  0.00    +0.000 A 
ATOM     16  C   UNL     1       1.607   9.340  17.882  0.00  0.00    +0.000 A 
ATOM     17  C   UNL     1       2.335   8.149  17.911  0.00  0.00    +0.000 A 
ENDBRANCH  11  12
ENDBRANCH  10  11
ENDBRANCH   8  10
ENDBRANCH   2   4
ENDBRANCH   1   2
BRANCH   1  18
ATOM     18  C   UNL     1       8.498   7.943  18.821  0.00  0.00    +0.000 C 
BRANCH  18  20
ATOM     19  N   UNL     1       9.676  10.091  19.010  0.00  0.00    +0.000 N 
ATOM     20  C   UNL     1       8.637   9.406  18.397  0.00  0.00    +0.000 C 
ATOM     21  O   UNL     1       7.808   9.875  17.619  0.00  0.00    +0.000 OA
ATOM     22  H   UNL     1      10.405   9.525  19.437  0.00  0.00    +0.000 HD
BRANCH  19  28
ATOM     23  C   UNL     1       9.830  12.404  19.898  0.00  0.00    +0.000 A 
ATOM     24  C   UNL     1      10.229  13.744  19.695  0.00  0.00    +0.000 A 
ATOM     25  C   UNL     1      10.718  14.177  18.464  0.00  0.00    +0.000 A 
ATOM     26  C   UNL     1      10.799  13.280  17.413  0.00  0.00    +0.000 A 
ATOM     27  C   UNL     1      10.429  11.950  17.603  0.00  0.00    +0.000 A 
ATOM     28  C   UNL     1       9.974  11.472  18.845  0.00  0.00    +0.000 A 
BRANCH  23  29
ATOM     29  C   UNL     1       9.338  12.113  21.281  0.00  0.00    +0.000 C 
ATOM     30  O   UNL     1       8.929  11.019  21.626  0.00  0.00    +0.000 OA
BRANCH  29  31
ATOM     31  O   UNL     1       9.323  13.233  22.056  0.00  0.00    +0.000 OA
BRANCH  31  33
ATOM     32  C   UNL     1       8.287  13.366  24.258  0.00  0.00    +0.000 C 
ATOM     33  C   UNL     1       8.091  13.448  22.759  0.00  0.00    +0.000 C 
ENDBRANCH  31  33
ENDBRANCH  29  31
ENDBRANCH  23  29
ENDBRANCH  19  28
ENDBRANCH  18  20
ENDBRANCH   1  18
TORSDOF 11
ENDMDL
MODEL 8
REMARK VINA RESULT:      -6.9      5.699     10.238
REMARK  Name = 
REMARK  12 active torsions:
REMARK  status: ('A' for Active; 'I' for Inactive)
REMARK    1  A    between atoms: C_1  and  C_2
REMARK    2  A    between atoms: C_2  and  O_3
REMARK    3  A    between atoms: O_3  and  C_4
REMARK    4  A    between atoms: C_4  and  C_6
REMARK    5  A    between atoms: C_11  and  N_12
REMARK    6  A    between atoms: C_13  and  C_15
REMARK    7  A    between atoms: C_15  and  O_16
REMARK    8  A    between atoms: O_16  and  C_17
REMARK    9  A    between atoms: C_17  and  C_19
REMARK   10  A    between atoms: N_23  and  C_24
REMARK   11  A    between atoms: C_24  and  C_25
REMARK   12  A    between atoms: C_25  and  C_26
REMARK                            x       y       z     vdW  Elec       q    Type
REMARK                         _______ _______ _______ _____ _____    ______ ____
ROOT
ATOM      1  O   UNL     1       9.124   9.778  18.760  0.00  0.00    +0.000 OA
ENDROOT
BRANCH   1   2
ATOM      2  C   UNL     1       9.515  11.037  18.431  0.00  0.00    +0.000 C 
ATOM      3  O   UNL     1       8.794  11.833  17.847  0.00  0.00    +0.000 OA
BRANCH   2   4
ATOM      4  C   UNL     1      10.925  11.332  18.902  0.00  0.00    +0.000 C 
ATOM      5  C   UNL     1      10.892  11.841  20.348  0.00  0.00    +0.000 C 
ATOM      6  C   UNL     1      10.738  13.337  20.181  0.00  0.00    +0.000 C 
ATOM      7  O   UNL     1      10.412  14.116  21.059  0.00  0.00    +0.000 OA
ATOM      8  N   UNL     1      11.097  13.654  18.877  0.00  0.00    +0.000 N 
ATOM      9  C   UNL     1      11.573  12.496  18.162  0.00  0.00    +0.000 C 
BRANCH   8  10
ATOM     10  C   UNL     1      11.307  15.018  18.398  0.00  0.00    +0.000 C 
BRANCH  10  11
ATOM     11  C   UNL     1      10.197  15.477  17.444  0.00  0.00    +0.000 C 
BRANCH  11  12
ATOM     12  C   UNL     1       9.039  16.111  18.174  0.00  0.00    +0.000 A 
ATOM     13  C   UNL     1       9.255  17.158  19.082  0.00  0.00    +0.000 A 
ATOM     14  C   UNL     1       8.187  17.720  19.783  0.00  0.00    +0.000 A 
ATOM     15  C   UNL     1       6.893  17.242  19.585  0.00  0.00    +0.000 A 
ATOM     16  C   UNL     1       6.665  16.209  18.678  0.00  0.00    +0.000 A 
ATOM     17  C   UNL     1       7.733  15.645  17.976  0.00  0.00    +0.000 A 
ENDBRANCH  11  12
ENDBRANCH  10  11
ENDBRANCH   8  10
ENDBRANCH   2   4
ENDBRANCH   1   2
BRANCH   1  18
ATOM     18  C   UNL     1       8.045   9.320  17.961  0.00  0.00    +0.000 C 
BRANCH  18  20
ATOM     19  N   UNL     1       6.843   7.489  16.847  0.00  0.00    +0.000 N 
ATOM     20  C   UNL     1       7.733   7.826  17.855  0.00  0.00    +0.000 C 
ATOM     21  O   UNL     1       8.226   7.061  18.684  0.00  0.00    +0.000 OA
ATOM     22  H   UNL     1       6.708   8.177  16.110  0.00  0.00    +0.000 HD
BRANCH  19  28
ATOM     23  C   UNL     1       5.070   5.763  17.051  0.00  0.00    +0.000 A 
ATOM     24  C   UNL     1       4.588   4.488  16.679  0.00  0.00    +0.000 A 
ATOM     25  C   UNL     1       5.352   3.620  15.902  0.00  0.00    +0.000 A 
ATOM     26  C   UNL     1       6.618   4.009  15.498  0.00  0.00    +0.000 A 
ATOM     27  C   UNL     1       7.101   5.271  15.839  0.00  0.00    +0.000 A 
ATOM     28  C   UNL     1       6.337   6.186  16.585  0.00  0.00    +0.000 A 
BRANCH  23  29
ATOM     29  C   UNL     1       4.116   6.563  17.879  0.00  0.00    +0.000 C 
ATOM     30  O   UNL     1       3.744   7.682  17.573  0.00  0.00    +0.000 OA
BRANCH  29  31
ATOM     31  O   UNL     1       3.798   5.925  19.039  0.00  0.00    +0.000 OA
BRANCH  31  33
ATOM     32  C   UNL     1       2.097   5.115  20.585  0.00  0.00    +0.000 C 
ATOM     33  C   UNL     1       2.398   5.664  19.206  0.00  0.00    +0.000 C 
ENDBRANCH  31  33
ENDBRANCH  29  31
ENDBRANCH  23  29
ENDBRANCH  19  28
ENDBRANCH  18  20
ENDBRANCH   1  18
TORSDOF 11
ENDMDL
MODEL 9
REMARK VINA RESULT:      -6.9      2.307      4.627
REMARK  Name = 
REMARK  12 active torsions:
REMARK  status: ('A' for Active; 'I' for Inactive)
REMARK    1  A    between atoms: C_1  and  C_2
REMARK    2  A    between atoms: C_2  and  O_3
REMARK    3  A    between atoms: O_3  and  C_4
REMARK    4  A    between atoms: C_4  and  C_6
REMARK    5  A    between atoms: C_11  and  N_12
REMARK    6  A    between atoms: C_13  and  C_15
REMARK    7  A    between atoms: C_15  and  O_16
REMARK    8  A    between atoms: O_16  and  C_17
REMARK    9  A    between atoms: C_17  and  C_19
REMARK   10  A    between atoms: N_23  and  C_24
REMARK   11  A    between atoms: C_24  and  C_25
REMARK   12  A    between atoms: C_25  and  C_26
REMARK                            x       y       z     vdW  Elec       q    Type
REMARK                         _______ _______ _______ _____ _____    ______ ____
ROOT
ATOM      1  O   UNL     1       3.075   8.403  17.747  0.00  0.00    +0.000 OA
ENDROOT
BRANCH   1   2
ATOM      2  C   UNL     1       3.228   7.071  17.967  0.00  0.00    +0.000 C 
ATOM      3  O   UNL     1       2.290   6.294  18.062  0.00  0.00    +0.000 OA
BRANCH   2   4
ATOM      4  C   UNL     1       4.689   6.675  18.046  0.00  0.00    +0.000 C 
ATOM      5  C   UNL     1       5.263   6.531  16.631  0.00  0.00    +0.000 C 
ATOM      6  C   UNL     1       4.989   5.081  16.296  0.00  0.00    +0.000 C 
ATOM      7  O   UNL     1       5.041   4.591  15.182  0.00  0.00    +0.000 OA
ATOM      8  N   UNL     1       4.734   4.414  17.488  0.00  0.00    +0.000 N 
ATOM      9  C   UNL     1       4.903   5.283  18.627  0.00  0.00    +0.000 C 
BRANCH   8  10
ATOM     10  C   UNL     1       4.657   2.961  17.608  0.00  0.00    +0.000 C 
BRANCH  10  11
ATOM     11  C   UNL     1       3.210   2.454  17.626  0.00  0.00    +0.000 C 
BRANCH  11  12
ATOM     12  C   UNL     1       2.553   2.643  18.971  0.00  0.00    +0.000 A 
ATOM     13  C   UNL     1       1.222   3.073  19.060  0.00  0.00    +0.000 A 
ATOM     14  C   UNL     1       0.626   3.281  20.306  0.00  0.00    +0.000 A 
ATOM     15  C   UNL     1       1.354   3.064  21.474  0.00  0.00    +0.000 A 
ATOM     16  C   UNL     1       2.675   2.628  21.397  0.00  0.00    +0.000 A 
ATOM     17  C   UNL     1       3.274   2.419  20.152  0.00  0.00    +0.000 A 
ENDBRANCH  11  12
ENDBRANCH  10  11
ENDBRANCH   8  10
ENDBRANCH   2   4
ENDBRANCH   1   2
BRANCH   1  18
ATOM     18  C   UNL     1       1.715   8.772  17.587  0.00  0.00    +0.000 C 
BRANCH  18  20
ATOM     19  N   UNL     1       0.362  10.716  18.242  0.00  0.00    +0.000 N 
ATOM     20  C   UNL     1       0.988   9.559  18.680  0.00  0.00    +0.000 C 
ATOM     21  O   UNL     1       1.060   9.159  19.841  0.00  0.00    +0.000 OA
ATOM     22  H   UNL     1       0.190  10.791  17.242  0.00  0.00    +0.000 HD
BRANCH  19  28
ATOM     23  C   UNL     1      -1.726  11.777  19.065  0.00  0.00    +0.000 A 
ATOM     24  C   UNL     1      -2.343  12.669  19.970  0.00  0.00    +0.000 A 
ATOM     25  C   UNL     1      -1.591  13.467  20.830  0.00  0.00    +0.000 A 
ATOM     26  C   UNL     1      -0.210  13.396  20.786  0.00  0.00    +0.000 A 
ATOM     27  C   UNL     1       0.415  12.507  19.913  0.00  0.00    +0.000 A 
ATOM     28  C   UNL     1      -0.317  11.657  19.064  0.00  0.00    +0.000 A 
BRANCH  23  29
ATOM     29  C   UNL     1      -2.684  10.995  18.224  0.00  0.00    +0.000 C 
ATOM     30  O   UNL     1      -2.428   9.894  17.770  0.00  0.00    +0.000 OA
BRANCH  29  31
ATOM     31  O   UNL     1      -3.819  11.702  17.963  0.00  0.00    +0.000 OA
BRANCH  31  33
ATOM     32  C   UNL     1      -6.196  11.549  18.477  0.00  0.00    +0.000 C 
ATOM     33  C   UNL     1      -4.997  10.897  17.821  0.00  0.00    +0.000 C 
ENDBRANCH  31  33
ENDBRANCH  29  31
ENDBRANCH  23  29
ENDBRANCH  19  28
ENDBRANCH  18  20
ENDBRANCH   1  18
TORSDOF 11
ENDMDL
