MODEL 1
REMARK VINA RESULT:      -7.6      0.000      0.000
REMARK  Name = 
REMARK  3 active torsions:
REMARK  status: ('A' for Active; 'I' for Inactive)
REMARK    1  A    between atoms: N_2  and  C_4
REMARK    2  A    between atoms: C_6  and  C_7
REMARK    3  A    between atoms: C_14  and  C_15
REMARK                            x       y       z     vdW  Elec       q    Type
REMARK                         _______ _______ _______ _____ _____    ______ ____
ROOT
ATOM      1  C   UNL     1       6.598   5.672  16.853  0.00  0.00    +0.000 A 
ATOM      2  C   UNL     1       6.867   5.383  15.503  0.00  0.00    +0.000 A 
ATOM      3  C   UNL     1       6.109   4.432  14.814  0.00  0.00    +0.000 A 
ATOM      4  C   UNL     1       5.076   3.762  15.493  0.00  0.00    +0.000 A 
ATOM      5  C   UNL     1       4.794   4.047  16.845  0.00  0.00    +0.000 A 
ATOM      6  N   UNL     1       3.804   3.441  17.588  0.00  0.00    +0.000 NA
ATOM      7  C   UNL     1       3.791   3.927  18.813  0.00  0.00    +0.000 A 
ATOM      8  S   UNL     1       4.946   5.152  19.127  0.00  0.00    +0.000 S 
ATOM      9  C   UNL     1       5.553   5.008  17.518  0.00  0.00    +0.000 A 
ENDROOT
BRANCH   7  10
ATOM     10  C   UNL     1       2.892   3.464  19.843  0.00  0.00    +0.000 C 
ATOM     11  N   UNL     1       3.206   2.792  20.906  0.00  0.00    +0.000 NA
ATOM     12  C   UNL     1       1.913   2.525  21.544  0.00  0.00    +0.000 C 
ATOM     13  C   UNL     1       0.892   3.318  20.760  0.00  0.00    +0.000 C 
ATOM     14  O   UNL     1       1.588   3.783  19.618  0.00  0.00    +0.000 OA
ENDBRANCH   7  10
BRANCH   3  15
ATOM     15  C   UNL     1       6.372   4.105  13.363  0.00  0.00    +0.000 C 
ATOM     16  F   UNL     1       7.325   4.894  12.799  0.00  0.00    +0.000 F 
ATOM     17  F   UNL     1       6.792   2.824  13.189  0.00  0.00    +0.000 F 
ATOM     18  F   UNL     1       5.259   4.248  12.595  0.00  0.00    +0.000 F 
ENDBRANCH   3  15
BRANCH   1  20
ATOM     19  O   UNL     1       7.548   7.756  16.948  0.00  0.00    +0.000 OA
ATOM     20  N   UNL     1       7.438   6.656  17.506  0.00  0.00    +0.000 N 
ATOM     21  O   UNL     1       8.008   6.309  18.547  0.00  0.00    +0.000 OA
ENDBRANCH   1  20
TORSDOF 3
ENDMDL
MODEL 2
REMARK VINA RESULT:      -7.5      0.025      1.066
REMARK  Name = 
REMARK  3 active torsions:
REMARK  status: ('A' for Active; 'I' for Inactive)
REMARK    1  A    between atoms: N_2  and  C_4
REMARK    2  A    between atoms: C_6  and  C_7
REMARK    3  A    between atoms: C_14  and  C_15
REMARK                            x       y       z     vdW  Elec       q    Type
REMARK                         _______ _______ _______ _____ _____    ______ ____
ROOT
ATOM      1  C   UNL     1       6.595   5.682  16.832  0.00  0.00    +0.000 A 
ATOM      2  C   UNL     1       6.863   5.389  15.483  0.00  0.00    +0.000 A 
ATOM      3  C   UNL     1       6.106   4.434  14.798  0.00  0.00    +0.000 A 
ATOM      4  C   UNL     1       5.077   3.763  15.481  0.00  0.00    +0.000 A 
ATOM      5  C   UNL     1       4.796   4.051  16.832  0.00  0.00    +0.000 A 
ATOM      6  N   UNL     1       3.809   3.444  17.580  0.00  0.00    +0.000 NA
ATOM      7  C   UNL     1       3.798   3.934  18.803  0.00  0.00    +0.000 A 
ATOM      8  S   UNL     1       4.949   5.164  19.111  0.00  0.00    +0.000 S 
ATOM      9  C   UNL     1       5.554   5.017  17.501  0.00  0.00    +0.000 A 
ENDROOT
BRANCH   7  10
ATOM     10  C   UNL     1       2.902   3.471  19.836  0.00  0.00    +0.000 C 
ATOM     11  N   UNL     1       3.221   2.812  20.906  0.00  0.00    +0.000 NA
ATOM     12  C   UNL     1       1.930   2.537  21.545  0.00  0.00    +0.000 C 
ATOM     13  C   UNL     1       0.902   3.313  20.752  0.00  0.00    +0.000 C 
ATOM     14  O   UNL     1       1.595   3.774  19.606  0.00  0.00    +0.000 OA
ENDBRANCH   7  10
BRANCH   3  15
ATOM     15  C   UNL     1       6.368   4.103  13.348  0.00  0.00    +0.000 C 
ATOM     16  F   UNL     1       5.271   4.245  12.558  0.00  0.00    +0.000 F 
ATOM     17  F   UNL     1       7.330   4.894  12.802  0.00  0.00    +0.000 F 
ATOM     18  F   UNL     1       6.790   2.821  13.181  0.00  0.00    +0.000 F 
ENDBRANCH   3  15
BRANCH   1  20
ATOM     19  O   UNL     1       8.000   6.325  18.525  0.00  0.00    +0.000 OA
ATOM     20  N   UNL     1       7.433   6.671  17.480  0.00  0.00    +0.000 N 
ATOM     21  O   UNL     1       7.486   7.792  16.961  0.00  0.00    +0.000 OA
ENDBRANCH   1  20
TORSDOF 3
ENDMDL
MODEL 3
REMARK VINA RESULT:      -7.5      4.753      7.366
REMARK  Name = 
REMARK  3 active torsions:
REMARK  status: ('A' for Active; 'I' for Inactive)
REMARK    1  A    between atoms: N_2  and  C_4
REMARK    2  A    between atoms: C_6  and  C_7
REMARK    3  A    between atoms: C_14  and  C_15
REMARK                            x       y       z     vdW  Elec       q    Type
REMARK                         _______ _______ _______ _____ _____    ______ ____
ROOT
ATOM      1  C   UNL     1       2.124   4.660  20.403  0.00  0.00    +0.000 A 
ATOM      2  C   UNL     1       1.458   5.749  20.993  0.00  0.00    +0.000 A 
ATOM      3  C   UNL     1       1.646   7.047  20.509  0.00  0.00    +0.000 A 
ATOM      4  C   UNL     1       2.518   7.250  19.426  0.00  0.00    +0.000 A 
ATOM      5  C   UNL     1       3.187   6.166  18.821  0.00  0.00    +0.000 A 
ATOM      6  N   UNL     1       4.059   6.271  17.758  0.00  0.00    +0.000 NA
ATOM      7  C   UNL     1       4.516   5.081  17.424  0.00  0.00    +0.000 A 
ATOM      8  S   UNL     1       3.904   3.775  18.347  0.00  0.00    +0.000 S 
ATOM      9  C   UNL     1       2.982   4.872  19.310  0.00  0.00    +0.000 A 
ENDROOT
BRANCH   7  10
ATOM     10  C   UNL     1       5.478   4.866  16.370  0.00  0.00    +0.000 C 
ATOM     11  N   UNL     1       6.698   5.304  16.329  0.00  0.00    +0.000 NA
ATOM     12  C   UNL     1       7.182   4.865  15.017  0.00  0.00    +0.000 C 
ATOM     13  C   UNL     1       6.101   3.969  14.454  0.00  0.00    +0.000 C 
ATOM     14  O   UNL     1       4.999   4.131  15.329  0.00  0.00    +0.000 OA
ENDBRANCH   7  10
BRANCH   3  15
ATOM     15  C   UNL     1       0.939   8.233  21.121  0.00  0.00    +0.000 C 
ATOM     16  F   UNL     1       0.849   9.297  20.280  0.00  0.00    +0.000 F 
ATOM     17  F   UNL     1      -0.334   7.940  21.497  0.00  0.00    +0.000 F 
ATOM     18  F   UNL     1       1.570   8.687  22.238  0.00  0.00    +0.000 F 
ENDBRANCH   3  15
BRANCH   1  20
ATOM     19  O   UNL     1       1.257   2.542  20.278  0.00  0.00    +0.000 OA
ATOM     20  N   UNL     1       1.894   3.347  20.970  0.00  0.00    +0.000 N 
ATOM     21  O   UNL     1       2.317   3.146  22.115  0.00  0.00    +0.000 OA
ENDBRANCH   1  20
TORSDOF 3
ENDMDL
MODEL 4
REMARK VINA RESULT:      -7.5      4.764      7.390
REMARK  Name = 
REMARK  3 active torsions:
REMARK  status: ('A' for Active; 'I' for Inactive)
REMARK    1  A    between atoms: N_2  and  C_4
REMARK    2  A    between atoms: C_6  and  C_7
REMARK    3  A    between atoms: C_14  and  C_15
REMARK                            x       y       z     vdW  Elec       q    Type
REMARK                         _______ _______ _______ _____ _____    ______ ____
ROOT
ATOM      1  C   UNL     1       2.095   4.693  20.404  0.00  0.00    +0.000 A 
ATOM      2  C   UNL     1       1.435   5.787  20.992  0.00  0.00    +0.000 A 
ATOM      3  C   UNL     1       1.634   7.083  20.507  0.00  0.00    +0.000 A 
ATOM      4  C   UNL     1       2.511   7.279  19.426  0.00  0.00    +0.000 A 
ATOM      5  C   UNL     1       3.174   6.189  18.825  0.00  0.00    +0.000 A 
ATOM      6  N   UNL     1       4.050   6.287  17.764  0.00  0.00    +0.000 NA
ATOM      7  C   UNL     1       4.498   5.093  17.432  0.00  0.00    +0.000 A 
ATOM      8  S   UNL     1       3.874   3.793  18.355  0.00  0.00    +0.000 S 
ATOM      9  C   UNL     1       2.957   4.898  19.313  0.00  0.00    +0.000 A 
ENDROOT
BRANCH   7  10
ATOM     10  C   UNL     1       5.463   4.871  16.382  0.00  0.00    +0.000 C 
ATOM     11  N   UNL     1       6.681   5.311  16.337  0.00  0.00    +0.000 NA
ATOM     12  C   UNL     1       7.168   4.860  15.029  0.00  0.00    +0.000 C 
ATOM     13  C   UNL     1       6.089   3.956  14.475  0.00  0.00    +0.000 C 
ATOM     14  O   UNL     1       4.987   4.124  15.347  0.00  0.00    +0.000 OA
ENDBRANCH   7  10
BRANCH   3  15
ATOM     15  C   UNL     1       0.934   8.275  21.116  0.00  0.00    +0.000 C 
ATOM     16  F   UNL     1      -0.338   8.008  21.511  0.00  0.00    +0.000 F 
ATOM     17  F   UNL     1       1.580   8.749  22.214  0.00  0.00    +0.000 F 
ATOM     18  F   UNL     1       0.848   9.318  20.247  0.00  0.00    +0.000 F 
ENDBRANCH   3  15
BRANCH   1  20
ATOM     19  O   UNL     1       2.331   3.161  22.092  0.00  0.00    +0.000 OA
ATOM     20  N   UNL     1       1.853   3.382  20.972  0.00  0.00    +0.000 N 
ATOM     21  O   UNL     1       1.221   2.576  20.280  0.00  0.00    +0.000 OA
ENDBRANCH   1  20
TORSDOF 3
ENDMDL
MODEL 5
REMARK VINA RESULT:      -7.5      0.729      1.193
REMARK  Name = 
REMARK  3 active torsions:
REMARK  status: ('A' for Active; 'I' for Inactive)
REMARK    1  A    between atoms: N_2  and  C_4
REMARK    2  A    between atoms: C_6  and  C_7
REMARK    3  A    between atoms: C_14  and  C_15
REMARK                            x       y       z     vdW  Elec       q    Type
REMARK                         _______ _______ _______ _____ _____    ______ ____
ROOT
ATOM      1  C   UNL     1       6.553   5.576  16.740  0.00  0.00    +0.000 A 
ATOM      2  C   UNL     1       6.821   5.269  15.393  0.00  0.00    +0.000 A 
ATOM      3  C   UNL     1       6.032   4.345  14.703  0.00  0.00    +0.000 A 
ATOM      4  C   UNL     1       4.969   3.719  15.377  0.00  0.00    +0.000 A 
ATOM      5  C   UNL     1       4.687   4.022  16.725  0.00  0.00    +0.000 A 
ATOM      6  N   UNL     1       3.668   3.458  17.464  0.00  0.00    +0.000 NA
ATOM      7  C   UNL     1       3.666   3.951  18.686  0.00  0.00    +0.000 A 
ATOM      8  S   UNL     1       4.864   5.133  19.003  0.00  0.00    +0.000 S 
ATOM      9  C   UNL     1       5.478   4.957  17.399  0.00  0.00    +0.000 A 
ENDROOT
BRANCH   7  10
ATOM     10  C   UNL     1       2.741   3.529  19.711  0.00  0.00    +0.000 C 
ATOM     11  N   UNL     1       1.452   3.673  19.704  0.00  0.00    +0.000 NA
ATOM     12  C   UNL     1       1.035   3.146  21.007  0.00  0.00    +0.000 C 
ATOM     13  C   UNL     1       2.273   2.530  21.620  0.00  0.00    +0.000 C 
ATOM     14  O   UNL     1       3.338   2.934  20.780  0.00  0.00    +0.000 OA
ENDBRANCH   7  10
BRANCH   3  15
ATOM     15  C   UNL     1       6.294   4.001  13.256  0.00  0.00    +0.000 C 
ATOM     16  F   UNL     1       5.194   4.125  12.467  0.00  0.00    +0.000 F 
ATOM     17  F   UNL     1       7.248   4.792  12.700  0.00  0.00    +0.000 F 
ATOM     18  F   UNL     1       6.726   2.720  13.103  0.00  0.00    +0.000 F 
ENDBRANCH   3  15
BRANCH   1  20
ATOM     19  O   UNL     1       7.576   7.625  16.835  0.00  0.00    +0.000 OA
ATOM     20  N   UNL     1       7.425   6.530  17.394  0.00  0.00    +0.000 N 
ATOM     21  O   UNL     1       7.978   6.165  18.438  0.00  0.00    +0.000 OA
ENDBRANCH   1  20
TORSDOF 3
ENDMDL
MODEL 6
REMARK VINA RESULT:      -7.4      3.434      4.379
REMARK  Name = 
REMARK  3 active torsions:
REMARK  status: ('A' for Active; 'I' for Inactive)
REMARK    1  A    between atoms: N_2  and  C_4
REMARK    2  A    between atoms: C_6  and  C_7
REMARK    3  A    between atoms: C_14  and  C_15
REMARK                            x       y       z     vdW  Elec       q    Type
REMARK                         _______ _______ _______ _____ _____    ______ ____
ROOT
ATOM      1  C   UNL     1       4.135   3.716  18.511  0.00  0.00    +0.000 A 
ATOM      2  C   UNL     1       4.981   3.578  17.395  0.00  0.00    +0.000 A 
ATOM      3  C   UNL     1       5.240   4.667  16.558  0.00  0.00    +0.000 A 
ATOM      4  C   UNL     1       4.637   5.904  16.844  0.00  0.00    +0.000 A 
ATOM      5  C   UNL     1       3.791   6.057  17.962  0.00  0.00    +0.000 A 
ATOM      6  N   UNL     1       3.157   7.229  18.317  0.00  0.00    +0.000 NA
ATOM      7  C   UNL     1       2.443   7.047  19.410  0.00  0.00    +0.000 A 
ATOM      8  S   UNL     1       2.516   5.473  20.080  0.00  0.00    +0.000 S 
ATOM      9  C   UNL     1       3.549   4.961  18.796  0.00  0.00    +0.000 A 
ENDROOT
BRANCH   7  10
ATOM     10  C   UNL     1       1.632   8.079  20.009  0.00  0.00    +0.000 C 
ATOM     11  N   UNL     1       1.164   8.098  21.219  0.00  0.00    +0.000 NA
ATOM     12  C   UNL     1       0.357   9.321  21.262  0.00  0.00    +0.000 C 
ATOM     13  C   UNL     1       0.623  10.040  19.958  0.00  0.00    +0.000 C 
ATOM     14  O   UNL     1       1.347   9.113  19.170  0.00  0.00    +0.000 OA
ENDBRANCH   7  10
BRANCH   3  15
ATOM     15  C   UNL     1       6.148   4.548  15.357  0.00  0.00    +0.000 C 
ATOM     16  F   UNL     1       7.468   4.628  15.672  0.00  0.00    +0.000 F 
ATOM     17  F   UNL     1       5.987   3.369  14.702  0.00  0.00    +0.000 F 
ATOM     18  F   UNL     1       5.918   5.527  14.441  0.00  0.00    +0.000 F 
ENDBRANCH   3  15
BRANCH   1  20
ATOM     19  O   UNL     1       2.806   1.973  19.181  0.00  0.00    +0.000 OA
ATOM     20  N   UNL     1       3.899   2.539  19.321  0.00  0.00    +0.000 N 
ATOM     21  O   UNL     1       4.790   2.212  20.113  0.00  0.00    +0.000 OA
ENDBRANCH   1  20
TORSDOF 3
ENDMDL
MODEL 7
REMARK VINA RESULT:      -7.4      3.416      4.454
REMARK  Name = 
REMARK  3 active torsions:
REMARK  status: ('A' for Active; 'I' for Inactive)
REMARK    1  A    between atoms: N_2  and  C_4
REMARK    2  A    between atoms: C_6  and  C_7
REMARK    3  A    between atoms: C_14  and  C_15
REMARK                            x       y       z     vdW  Elec       q    Type
REMARK                         _______ _______ _______ _____ _____    ______ ____
ROOT
ATOM      1  C   UNL     1       4.049   3.715  18.478  0.00  0.00    +0.000 A 
ATOM      2  C   UNL     1       4.831   3.569  17.317  0.00  0.00    +0.000 A 
ATOM      3  C   UNL     1       5.044   4.653  16.461  0.00  0.00    +0.000 A 
ATOM      4  C   UNL     1       4.460   5.893  16.774  0.00  0.00    +0.000 A 
ATOM      5  C   UNL     1       3.680   6.053  17.938  0.00  0.00    +0.000 A 
ATOM      6  N   UNL     1       3.069   7.228  18.322  0.00  0.00    +0.000 NA
ATOM      7  C   UNL     1       2.417   7.054  19.454  0.00  0.00    +0.000 A 
ATOM      8  S   UNL     1       2.525   5.483  20.127  0.00  0.00    +0.000 S 
ATOM      9  C   UNL     1       3.483   4.963  18.789  0.00  0.00    +0.000 A 
ENDROOT
BRANCH   7  10
ATOM     10  C   UNL     1       1.643   8.091  20.093  0.00  0.00    +0.000 C 
ATOM     11  N   UNL     1       1.214   8.100  21.316  0.00  0.00    +0.000 NA
ATOM     12  C   UNL     1       0.430   9.336  21.402  0.00  0.00    +0.000 C 
ATOM     13  C   UNL     1       0.667  10.069  20.100  0.00  0.00    +0.000 C 
ATOM     14  O   UNL     1       1.350   9.141  19.277  0.00  0.00    +0.000 OA
ENDBRANCH   7  10
BRANCH   3  15
ATOM     15  C   UNL     1       5.883   4.526  15.212  0.00  0.00    +0.000 C 
ATOM     16  F   UNL     1       5.186   4.765  14.070  0.00  0.00    +0.000 F 
ATOM     17  F   UNL     1       6.931   5.391  15.202  0.00  0.00    +0.000 F 
ATOM     18  F   UNL     1       6.416   3.282  15.075  0.00  0.00    +0.000 F 
ENDBRANCH   3  15
BRANCH   1  20
ATOM     19  O   UNL     1       4.767   2.262  20.099  0.00  0.00    +0.000 OA
ATOM     20  N   UNL     1       3.858   2.542  19.306  0.00  0.00    +0.000 N 
ATOM     21  O   UNL     1       2.820   1.892  19.132  0.00  0.00    +0.000 OA
ENDBRANCH   1  20
TORSDOF 3
ENDMDL
MODEL 8
REMARK VINA RESULT:      -7.4      3.431      4.518
REMARK  Name = 
REMARK  3 active torsions:
REMARK  status: ('A' for Active; 'I' for Inactive)
REMARK    1  A    between atoms: N_2  and  C_4
REMARK    2  A    between atoms: C_6  and  C_7
REMARK    3  A    between atoms: C_14  and  C_15
REMARK                            x       y       z     vdW  Elec       q    Type
REMARK                         _______ _______ _______ _____ _____    ______ ____
ROOT
ATOM      1  C   UNL     1       4.103   3.767  18.553  0.00  0.00    +0.000 A 
ATOM      2  C   UNL     1       4.957   3.600  17.447  0.00  0.00    +0.000 A 
ATOM      3  C   UNL     1       5.220   4.667  16.583  0.00  0.00    +0.000 A 
ATOM      4  C   UNL     1       4.612   5.910  16.830  0.00  0.00    +0.000 A 
ATOM      5  C   UNL     1       3.758   6.091  17.938  0.00  0.00    +0.000 A 
ATOM      6  N   UNL     1       3.119   7.271  18.257  0.00  0.00    +0.000 NA
ATOM      7  C   UNL     1       2.397   7.117  19.348  0.00  0.00    +0.000 A 
ATOM      8  S   UNL     1       2.469   5.563  20.062  0.00  0.00    +0.000 S 
ATOM      9  C   UNL     1       3.513   5.018  18.800  0.00  0.00    +0.000 A 
ENDROOT
BRANCH   7  10
ATOM     10  C   UNL     1       1.580   8.164  19.914  0.00  0.00    +0.000 C 
ATOM     11  N   UNL     1       1.252   9.285  19.352  0.00  0.00    +0.000 NA
ATOM     12  C   UNL     1       0.493   9.988  20.391  0.00  0.00    +0.000 C 
ATOM     13  C   UNL     1       0.311   8.993  21.516  0.00  0.00    +0.000 C 
ATOM     14  O   UNL     1       1.146   7.901  21.177  0.00  0.00    +0.000 OA
ENDBRANCH   7  10
BRANCH   3  15
ATOM     15  C   UNL     1       6.136   4.517  15.392  0.00  0.00    +0.000 C 
ATOM     16  F   UNL     1       5.985   3.333  14.742  0.00  0.00    +0.000 F 
ATOM     17  F   UNL     1       5.937   5.487  14.461  0.00  0.00    +0.000 F 
ATOM     18  F   UNL     1       7.449   4.591  15.742  0.00  0.00    +0.000 F 
ENDBRANCH   3  15
BRANCH   1  20
ATOM     19  O   UNL     1       4.808   2.224  20.093  0.00  0.00    +0.000 OA
ATOM     20  N   UNL     1       3.864   2.612  19.393  0.00  0.00    +0.000 N 
ATOM     21  O   UNL     1       2.749   2.081  19.318  0.00  0.00    +0.000 OA
ENDBRANCH   1  20
TORSDOF 3
ENDMDL
MODEL 9
REMARK VINA RESULT:      -7.3      4.186      6.624
REMARK  Name = 
REMARK  3 active torsions:
REMARK  status: ('A' for Active; 'I' for Inactive)
REMARK    1  A    between atoms: N_2  and  C_4
REMARK    2  A    between atoms: C_6  and  C_7
REMARK    3  A    between atoms: C_14  and  C_15
REMARK                            x       y       z     vdW  Elec       q    Type
REMARK                         _______ _______ _______ _____ _____    ______ ____
ROOT
ATOM      1  C   UNL     1       2.959   6.041  18.500  0.00  0.00    +0.000 A 
ATOM      2  C   UNL     1       2.307   5.139  19.359  0.00  0.00    +0.000 A 
ATOM      3  C   UNL     1       2.523   3.763  19.245  0.00  0.00    +0.000 A 
ATOM      4  C   UNL     1       3.400   3.291  18.252  0.00  0.00    +0.000 A 
ATOM      5  C   UNL     1       4.064   4.186  17.388  0.00  0.00    +0.000 A 
ATOM      6  N   UNL     1       4.938   3.815  16.387  0.00  0.00    +0.000 NA
ATOM      7  C   UNL     1       5.393   4.881  15.761  0.00  0.00    +0.000 A 
ATOM      8  S   UNL     1       4.819   6.381  16.355  0.00  0.00    +0.000 S 
ATOM      9  C   UNL     1       3.846   5.560  17.521  0.00  0.00    +0.000 A 
ENDROOT
BRANCH   7  10
ATOM     10  C   UNL     1       6.297   4.818  14.638  0.00  0.00    +0.000 C 
ATOM     11  N   UNL     1       7.420   5.452  14.506  0.00  0.00    +0.000 NA
ATOM     12  C   UNL     1       7.873   5.084  13.160  0.00  0.00    +0.000 C 
ATOM     13  C   UNL     1       6.916   4.015  12.679  0.00  0.00    +0.000 C 
ATOM     14  O   UNL     1       5.871   4.002  13.634  0.00  0.00    +0.000 OA
ENDBRANCH   7  10
BRANCH   3  15
ATOM     15  C   UNL     1       1.840   2.772  20.157  0.00  0.00    +0.000 C 
ATOM     16  F   UNL     1       2.571   2.465  21.261  0.00  0.00    +0.000 F 
ATOM     17  F   UNL     1       0.643   3.227  20.611  0.00  0.00    +0.000 F 
ATOM     18  F   UNL     1       1.586   1.590  19.533  0.00  0.00    +0.000 F 
ENDBRANCH   3  15
BRANCH   1  20
ATOM     19  O   UNL     1       2.215   7.802  19.763  0.00  0.00    +0.000 OA
ATOM     20  N   UNL     1       2.671   7.451  18.667  0.00  0.00    +0.000 N 
ATOM     21  O   UNL     1       2.866   8.186  17.691  0.00  0.00    +0.000 OA
ENDBRANCH   1  20
TORSDOF 3
ENDMDL
