MODEL 1
REMARK VINA RESULT:      -7.3      0.000      0.000
REMARK  Name = 
REMARK  10 active torsions:
REMARK  status: ('A' for Active; 'I' for Inactive)
REMARK    1  A    between atoms: C_1  and  C_2
REMARK    2  A    between atoms: C_6  and  C_7
REMARK    3  A    between atoms: C_8  and  N_9
REMARK    4  A    between atoms: N_9  and  S_10
REMARK    5  A    between atoms: S_10  and  C_13
REMARK    6  A    between atoms: C_16  and  C_17
REMARK    7  A    between atoms: C_17  and  C_18
REMARK    8  A    between atoms: C_17  and  C_19
REMARK    9  A    between atoms: C_17  and  C_20
REMARK   10  A    between atoms: C_23  and  O_24
REMARK                            x       y       z     vdW  Elec       q    Type
REMARK                         _______ _______ _______ _____ _____    ______ ____
ROOT
ATOM      1  N   UNL     1       0.583  10.156  20.292  0.00  0.00    +0.000 N 
ATOM      2  H   UNL     1       1.003   9.960  19.382  0.00  0.00    +0.000 HD
ENDROOT
BRANCH   1  10
ATOM      3  C   UNL     1      -4.456  14.832  22.420  0.00  0.00    +0.000 C 
ATOM      4  C   UNL     1      -3.585  13.872  21.718  0.00  0.00    +0.000 A 
ATOM      5  N   UNL     1      -3.860  13.385  20.472  0.00  0.00    +0.000 NA
ATOM      6  C   UNL     1      -2.861  12.564  20.234  0.00  0.00    +0.000 A 
ATOM      7  N   UNL     1      -2.606  11.821  19.121  0.00  0.00    +0.000 NA
ATOM      8  C   UNL     1      -1.550  11.061  19.151  0.00  0.00    +0.000 A 
ATOM      9  C   UNL     1      -1.253  10.286  17.884  0.00  0.00    +0.000 C 
ATOM     10  C   UNL     1      -0.620  10.920  20.343  0.00  0.00    +0.000 A 
ATOM     11  C   UNL     1      -0.859  11.743  21.383  0.00  0.00    +0.000 A 
ATOM     12  N   UNL     1      -2.004  12.555  21.337  0.00  0.00    +0.000 N 
ATOM     13  N   UNL     1      -2.470  13.410  22.279  0.00  0.00    +0.000 NA
BRANCH  11  14
ATOM     14  O   UNL     1      -0.046  11.898  22.495  0.00  0.00    +0.000 OA
ATOM     15  H   UNL     1       0.549  12.667  22.398  0.00  0.00    +0.000 HD
ENDBRANCH  11  14
ENDBRANCH   1  10
BRANCH   1  16
ATOM     16  S   UNL     1       0.772   8.818  21.318  0.00  0.00    +0.000 S 
ATOM     17  O   UNL     1       1.668   9.254  22.364  0.00  0.00    +0.000 OA
ATOM     18  O   UNL     1      -0.548   8.310  21.620  0.00  0.00    +0.000 OA
BRANCH  16  19
ATOM     19  C   UNL     1       1.644   7.628  20.340  0.00  0.00    +0.000 A 
ATOM     20  C   UNL     1       1.715   6.329  20.833  0.00  0.00    +0.000 A 
ATOM     21  C   UNL     1       2.348   5.339  20.087  0.00  0.00    +0.000 A 
ATOM     22  C   UNL     1       2.904   5.605  18.825  0.00  0.00    +0.000 A 
ATOM     23  C   UNL     1       2.802   6.928  18.340  0.00  0.00    +0.000 A 
ATOM     24  C   UNL     1       2.172   7.937  19.088  0.00  0.00    +0.000 A 
BRANCH  22  25
ATOM     25  C   UNL     1       3.576   4.493  17.995  0.00  0.00    +0.000 C 
ATOM     26  C   UNL     1       4.500   3.581  18.842  0.00  0.00    +0.000 C 
ATOM     27  C   UNL     1       2.503   3.587  17.355  0.00  0.00    +0.000 C 
ATOM     28  C   UNL     1       4.446   5.106  16.879  0.00  0.00    +0.000 C 
ENDBRANCH  22  25
ENDBRANCH  16  19
ENDBRANCH   1  16
TORSDOF 5
ENDMDL
MODEL 2
REMARK VINA RESULT:      -7.3      2.244      2.903
REMARK  Name = 
REMARK  10 active torsions:
REMARK  status: ('A' for Active; 'I' for Inactive)
REMARK    1  A    between atoms: C_1  and  C_2
REMARK    2  A    between atoms: C_6  and  C_7
REMARK    3  A    between atoms: C_8  and  N_9
REMARK    4  A    between atoms: N_9  and  S_10
REMARK    5  A    between atoms: S_10  and  C_13
REMARK    6  A    between atoms: C_16  and  C_17
REMARK    7  A    between atoms: C_17  and  C_18
REMARK    8  A    between atoms: C_17  and  C_19
REMARK    9  A    between atoms: C_17  and  C_20
REMARK   10  A    between atoms: C_23  and  O_24
REMARK                            x       y       z     vdW  Elec       q    Type
REMARK                         _______ _______ _______ _____ _____    ______ ____
ROOT
ATOM      1  N   UNL     1      -0.671  11.680  18.602  0.00  0.00    +0.000 N 
ATOM      2  H   UNL     1      -0.146  11.464  17.753  0.00  0.00    +0.000 HD
ENDROOT
BRANCH   1  10
ATOM      3  C   UNL     1      -7.693  12.713  19.785  0.00  0.00    +0.000 C 
ATOM      4  C   UNL     1      -6.354  12.294  19.333  0.00  0.00    +0.000 A 
ATOM      5  N   UNL     1      -6.150  11.284  18.437  0.00  0.00    +0.000 NA
ATOM      6  C   UNL     1      -4.840  11.226  18.330  0.00  0.00    +0.000 A 
ATOM      7  N   UNL     1      -4.077  10.415  17.545  0.00  0.00    +0.000 NA
ATOM      8  C   UNL     1      -2.786  10.545  17.649  0.00  0.00    +0.000 A 
ATOM      9  C   UNL     1      -1.956   9.674  16.728  0.00  0.00    +0.000 C 
ATOM     10  C   UNL     1      -2.085  11.498  18.601  0.00  0.00    +0.000 A 
ATOM     11  C   UNL     1      -2.880  12.343  19.286  0.00  0.00    +0.000 A 
ATOM     12  N   UNL     1      -4.271  12.189  19.167  0.00  0.00    +0.000 N 
ATOM     13  N   UNL     1      -5.252  12.880  19.796  0.00  0.00    +0.000 NA
BRANCH  11  14
ATOM     14  O   UNL     1      -2.449  13.395  20.078  0.00  0.00    +0.000 OA
ATOM     15  H   UNL     1      -3.186  13.783  20.590  0.00  0.00    +0.000 HD
ENDBRANCH  11  14
ENDBRANCH   1  10
BRANCH   1  16
ATOM     16  S   UNL     1       0.231  11.235  19.969  0.00  0.00    +0.000 S 
ATOM     17  O   UNL     1       1.210  12.284  20.147  0.00  0.00    +0.000 OA
ATOM     18  O   UNL     1      -0.704  10.893  21.017  0.00  0.00    +0.000 OA
BRANCH  16  19
ATOM     19  C   UNL     1       1.106   9.779  19.471  0.00  0.00    +0.000 A 
ATOM     20  C   UNL     1       1.282   8.784  20.426  0.00  0.00    +0.000 A 
ATOM     21  C   UNL     1       1.922   7.597  20.081  0.00  0.00    +0.000 A 
ATOM     22  C   UNL     1       2.381   7.357  18.775  0.00  0.00    +0.000 A 
ATOM     23  C   UNL     1       2.174   8.377  17.819  0.00  0.00    +0.000 A 
ATOM     24  C   UNL     1       1.536   9.582  18.159  0.00  0.00    +0.000 A 
BRANCH  22  25
ATOM     25  C   UNL     1       3.062   6.026  18.397  0.00  0.00    +0.000 C 
ATOM     26  C   UNL     1       2.064   4.968  17.862  0.00  0.00    +0.000 C 
ATOM     27  C   UNL     1       4.111   6.263  17.292  0.00  0.00    +0.000 C 
ATOM     28  C   UNL     1       3.758   5.410  19.627  0.00  0.00    +0.000 C 
ENDBRANCH  22  25
ENDBRANCH  16  19
ENDBRANCH   1  16
TORSDOF 5
ENDMDL
MODEL 3
REMARK VINA RESULT:      -7.3      1.411      2.636
REMARK  Name = 
REMARK  10 active torsions:
REMARK  status: ('A' for Active; 'I' for Inactive)
REMARK    1  A    between atoms: C_1  and  C_2
REMARK    2  A    between atoms: C_6  and  C_7
REMARK    3  A    between atoms: C_8  and  N_9
REMARK    4  A    between atoms: N_9  and  S_10
REMARK    5  A    between atoms: S_10  and  C_13
REMARK    6  A    between atoms: C_16  and  C_17
REMARK    7  A    between atoms: C_17  and  C_18
REMARK    8  A    between atoms: C_17  and  C_19
REMARK    9  A    between atoms: C_17  and  C_20
REMARK   10  A    between atoms: C_23  and  O_24
REMARK                            x       y       z     vdW  Elec       q    Type
REMARK                         _______ _______ _______ _____ _____    ______ ____
ROOT
ATOM      1  N   UNL     1       0.755  10.417  20.260  0.00  0.00    +0.000 N 
ATOM      2  H   UNL     1       1.440  10.323  19.508  0.00  0.00    +0.000 HD
ENDROOT
BRANCH   1  10
ATOM      3  C   UNL     1      -5.504  11.986  17.075  0.00  0.00    +0.000 C 
ATOM      4  C   UNL     1      -4.340  11.829  17.965  0.00  0.00    +0.000 A 
ATOM      5  N   UNL     1      -4.237  12.445  19.179  0.00  0.00    +0.000 NA
ATOM      6  C   UNL     1      -3.061  12.060  19.623  0.00  0.00    +0.000 A 
ATOM      7  N   UNL     1      -2.451  12.350  20.806  0.00  0.00    +0.000 NA
ATOM      8  C   UNL     1      -1.261  11.857  20.990  0.00  0.00    +0.000 A 
ATOM      9  C   UNL     1      -0.624  12.144  22.334  0.00  0.00    +0.000 C 
ATOM     10  C   UNL     1      -0.502  11.024  19.971  0.00  0.00    +0.000 A 
ATOM     11  C   UNL     1      -1.182  10.685  18.858  0.00  0.00    +0.000 A 
ATOM     12  N   UNL     1      -2.463  11.228  18.672  0.00  0.00    +0.000 N 
ATOM     13  N   UNL     1      -3.299  11.074  17.617  0.00  0.00    +0.000 NA
BRANCH  11  14
ATOM     14  O   UNL     1      -0.745   9.804  17.881  0.00  0.00    +0.000 OA
ATOM     15  H   UNL     1       0.144  10.045  17.555  0.00  0.00    +0.000 HD
ENDBRANCH  11  14
ENDBRANCH   1  10
BRANCH   1  16
ATOM     16  S   UNL     1       0.818   9.059  21.275  0.00  0.00    +0.000 S 
ATOM     17  O   UNL     1       1.704   9.423  22.357  0.00  0.00    +0.000 OA
ATOM     18  O   UNL     1      -0.542   8.638  21.525  0.00  0.00    +0.000 OA
BRANCH  16  19
ATOM     19  C   UNL     1       1.643   7.823  20.314  0.00  0.00    +0.000 A 
ATOM     20  C   UNL     1       1.690   6.535  20.837  0.00  0.00    +0.000 A 
ATOM     21  C   UNL     1       2.286   5.511  20.107  0.00  0.00    +0.000 A 
ATOM     22  C   UNL     1       2.826   5.732  18.829  0.00  0.00    +0.000 A 
ATOM     23  C   UNL     1       2.749   7.044  18.312  0.00  0.00    +0.000 A 
ATOM     24  C   UNL     1       2.158   8.087  19.045  0.00  0.00    +0.000 A 
BRANCH  22  25
ATOM     25  C   UNL     1       3.456   4.582  18.017  0.00  0.00    +0.000 C 
ATOM     26  C   UNL     1       4.377   5.083  16.875  0.00  0.00    +0.000 C 
ATOM     27  C   UNL     1       4.315   3.691  18.938  0.00  0.00    +0.000 C 
ATOM     28  C   UNL     1       2.357   3.719  17.365  0.00  0.00    +0.000 C 
ENDBRANCH  22  25
ENDBRANCH  16  19
ENDBRANCH   1  16
TORSDOF 5
ENDMDL
MODEL 4
REMARK VINA RESULT:      -7.2      0.236      1.270
REMARK  Name = 
REMARK  10 active torsions:
REMARK  status: ('A' for Active; 'I' for Inactive)
REMARK    1  A    between atoms: C_1  and  C_2
REMARK    2  A    between atoms: C_6  and  C_7
REMARK    3  A    between atoms: C_8  and  N_9
REMARK    4  A    between atoms: N_9  and  S_10
REMARK    5  A    between atoms: S_10  and  C_13
REMARK    6  A    between atoms: C_16  and  C_17
REMARK    7  A    between atoms: C_17  and  C_18
REMARK    8  A    between atoms: C_17  and  C_19
REMARK    9  A    between atoms: C_17  and  C_20
REMARK   10  A    between atoms: C_23  and  O_24
REMARK                            x       y       z     vdW  Elec       q    Type
REMARK                         _______ _______ _______ _____ _____    ______ ____
ROOT
ATOM      1  N   UNL     1       0.566  10.148  20.346  0.00  0.00    +0.000 N 
ATOM      2  H   UNL     1       0.998   9.953  19.441  0.00  0.00    +0.000 HD
ENDROOT
BRANCH   1  10
ATOM      3  C   UNL     1      -4.525  14.786  22.433  0.00  0.00    +0.000 C 
ATOM      4  C   UNL     1      -3.637  13.839  21.735  0.00  0.00    +0.000 A 
ATOM      5  N   UNL     1      -3.883  13.371  20.476  0.00  0.00    +0.000 NA
ATOM      6  C   UNL     1      -2.878  12.554  20.248  0.00  0.00    +0.000 A 
ATOM      7  N   UNL     1      -2.597  11.830  19.129  0.00  0.00    +0.000 NA
ATOM      8  C   UNL     1      -1.541  11.070  19.171  0.00  0.00    +0.000 A 
ATOM      9  C   UNL     1      -1.215  10.316  17.898  0.00  0.00    +0.000 C 
ATOM     10  C   UNL     1      -0.638  10.910  20.382  0.00  0.00    +0.000 A 
ATOM     11  C   UNL     1      -0.902  11.717  21.429  0.00  0.00    +0.000 A 
ATOM     12  N   UNL     1      -2.046  12.528  21.370  0.00  0.00    +0.000 N 
ATOM     13  N   UNL     1      -2.534  13.368  22.314  0.00  0.00    +0.000 NA
BRANCH  11  14
ATOM     14  O   UNL     1      -0.115  11.854  22.561  0.00  0.00    +0.000 OA
ATOM     15  H   UNL     1       0.041  12.795  22.776  0.00  0.00    +0.000 HD
ENDBRANCH  11  14
ENDBRANCH   1  10
BRANCH   1  16
ATOM     16  S   UNL     1       0.744   8.810  21.373  0.00  0.00    +0.000 S 
ATOM     17  O   UNL     1       1.660   9.233  22.408  0.00  0.00    +0.000 OA
ATOM     18  O   UNL     1      -0.581   8.326  21.693  0.00  0.00    +0.000 OA
BRANCH  16  19
ATOM     19  C   UNL     1       1.583   7.602  20.389  0.00  0.00    +0.000 A 
ATOM     20  C   UNL     1       2.131   8.030  19.185  0.00  0.00    +0.000 A 
ATOM     21  C   UNL     1       2.843   7.136  18.390  0.00  0.00    +0.000 A 
ATOM     22  C   UNL     1       3.050   5.803  18.781  0.00  0.00    +0.000 A 
ATOM     23  C   UNL     1       2.499   5.398  20.017  0.00  0.00    +0.000 A 
ATOM     24  C   UNL     1       1.772   6.290  20.823  0.00  0.00    +0.000 A 
BRANCH  22  25
ATOM     25  C   UNL     1       3.866   4.829  17.906  0.00  0.00    +0.000 C 
ATOM     26  C   UNL     1       2.991   3.741  17.235  0.00  0.00    +0.000 C 
ATOM     27  C   UNL     1       4.578   5.602  16.776  0.00  0.00    +0.000 C 
ATOM     28  C   UNL     1       4.924   4.099  18.757  0.00  0.00    +0.000 C 
ENDBRANCH  22  25
ENDBRANCH  16  19
ENDBRANCH   1  16
TORSDOF 5
ENDMDL
MODEL 5
REMARK VINA RESULT:      -7.1      4.943      9.439
REMARK  Name = 
REMARK  10 active torsions:
REMARK  status: ('A' for Active; 'I' for Inactive)
REMARK    1  A    between atoms: C_1  and  C_2
REMARK    2  A    between atoms: C_6  and  C_7
REMARK    3  A    between atoms: C_8  and  N_9
REMARK    4  A    between atoms: N_9  and  S_10
REMARK    5  A    between atoms: S_10  and  C_13
REMARK    6  A    between atoms: C_16  and  C_17
REMARK    7  A    between atoms: C_17  and  C_18
REMARK    8  A    between atoms: C_17  and  C_19
REMARK    9  A    between atoms: C_17  and  C_20
REMARK   10  A    between atoms: C_23  and  O_24
REMARK                            x       y       z     vdW  Elec       q    Type
REMARK                         _______ _______ _______ _____ _____    ______ ____
ROOT
ATOM      1  N   UNL     1       3.995   5.684  19.362  0.00  0.00    +0.000 N 
ATOM      2  H   UNL     1       4.481   5.480  20.238  0.00  0.00    +0.000 HD
ENDROOT
BRANCH   1  10
ATOM      3  C   UNL     1       7.371   5.007  13.044  0.00  0.00    +0.000 C 
ATOM      4  C   UNL     1       6.672   4.835  14.330  0.00  0.00    +0.000 A 
ATOM      5  N   UNL     1       6.264   3.620  14.802  0.00  0.00    +0.000 NA
ATOM      6  C   UNL     1       5.680   3.913  15.944  0.00  0.00    +0.000 A 
ATOM      7  N   UNL     1       5.112   3.078  16.858  0.00  0.00    +0.000 NA
ATOM      8  C   UNL     1       4.573   3.632  17.905  0.00  0.00    +0.000 A 
ATOM      9  C   UNL     1       3.998   2.683  18.936  0.00  0.00    +0.000 C 
ATOM     10  C   UNL     1       4.501   5.129  18.151  0.00  0.00    +0.000 A 
ATOM     11  C   UNL     1       5.158   5.907  17.268  0.00  0.00    +0.000 A 
ATOM     12  N   UNL     1       5.731   5.295  16.142  0.00  0.00    +0.000 N 
ATOM     13  N   UNL     1       6.384   5.877  15.107  0.00  0.00    +0.000 NA
BRANCH  11  14
ATOM     14  O   UNL     1       5.359   7.273  17.388  0.00  0.00    +0.000 OA
ATOM     15  H   UNL     1       4.530   7.737  17.620  0.00  0.00    +0.000 HD
ENDBRANCH  11  14
ENDBRANCH   1  10
BRANCH   1  16
ATOM     16  S   UNL     1       2.320   5.735  19.627  0.00  0.00    +0.000 S 
ATOM     17  O   UNL     1       1.722   5.144  18.451  0.00  0.00    +0.000 OA
ATOM     18  O   UNL     1       2.070   5.203  20.947  0.00  0.00    +0.000 OA
BRANCH  16  19
ATOM     19  C   UNL     1       1.919   7.459  19.609  0.00  0.00    +0.000 A 
ATOM     20  C   UNL     1       2.090   8.141  18.409  0.00  0.00    +0.000 A 
ATOM     21  C   UNL     1       1.748   9.487  18.321  0.00  0.00    +0.000 A 
ATOM     22  C   UNL     1       1.205  10.185  19.412  0.00  0.00    +0.000 A 
ATOM     23  C   UNL     1       1.025   9.465  20.615  0.00  0.00    +0.000 A 
ATOM     24  C   UNL     1       1.374   8.108  20.716  0.00  0.00    +0.000 A 
BRANCH  22  25
ATOM     25  C   UNL     1       0.802  11.668  19.294  0.00  0.00    +0.000 C 
ATOM     26  C   UNL     1      -0.552  11.871  18.568  0.00  0.00    +0.000 C 
ATOM     27  C   UNL     1       0.665  12.293  20.698  0.00  0.00    +0.000 C 
ATOM     28  C   UNL     1       1.864  12.453  18.497  0.00  0.00    +0.000 C 
ENDBRANCH  22  25
ENDBRANCH  16  19
ENDBRANCH   1  16
TORSDOF 5
ENDMDL
MODEL 6
REMARK VINA RESULT:      -7.1      1.996      2.386
REMARK  Name = 
REMARK  10 active torsions:
REMARK  status: ('A' for Active; 'I' for Inactive)
REMARK    1  A    between atoms: C_1  and  C_2
REMARK    2  A    between atoms: C_6  and  C_7
REMARK    3  A    between atoms: C_8  and  N_9
REMARK    4  A    between atoms: N_9  and  S_10
REMARK    5  A    between atoms: S_10  and  C_13
REMARK    6  A    between atoms: C_16  and  C_17
REMARK    7  A    between atoms: C_17  and  C_18
REMARK    8  A    between atoms: C_17  and  C_19
REMARK    9  A    between atoms: C_17  and  C_20
REMARK   10  A    between atoms: C_23  and  O_24
REMARK                            x       y       z     vdW  Elec       q    Type
REMARK                         _______ _______ _______ _____ _____    ______ ____
ROOT
ATOM      1  N   UNL     1      -0.681  11.153  18.610  0.00  0.00    +0.000 N 
ATOM      2  H   UNL     1      -0.264  10.739  17.774  0.00  0.00    +0.000 HD
ENDROOT
BRANCH   1  10
ATOM      3  C   UNL     1      -7.245  13.526  20.360  0.00  0.00    +0.000 C 
ATOM      4  C   UNL     1      -6.051  12.888  19.775  0.00  0.00    +0.000 A 
ATOM      5  N   UNL     1      -6.111  11.985  18.753  0.00  0.00    +0.000 NA
ATOM      6  C   UNL     1      -4.852  11.658  18.555  0.00  0.00    +0.000 A 
ATOM      7  N   UNL     1      -4.319  10.811  17.631  0.00  0.00    +0.000 NA
ATOM      8  C   UNL     1      -3.029  10.642  17.665  0.00  0.00    +0.000 A 
ATOM      9  C   UNL     1      -2.449   9.740  16.594  0.00  0.00    +0.000 C 
ATOM     10  C   UNL     1      -2.098  11.285  18.678  0.00  0.00    +0.000 A 
ATOM     11  C   UNL     1      -2.659  12.186  19.510  0.00  0.00    +0.000 A 
ATOM     12  N   UNL     1      -4.051  12.356  19.463  0.00  0.00    +0.000 N 
ATOM     13  N   UNL     1      -4.830  13.154  20.233  0.00  0.00    +0.000 NA
BRANCH  11  14
ATOM     14  O   UNL     1      -1.974  13.005  20.394  0.00  0.00    +0.000 OA
ATOM     15  H   UNL     1      -1.562  12.487  21.114  0.00  0.00    +0.000 HD
ENDBRANCH  11  14
ENDBRANCH   1  10
BRANCH   1  16
ATOM     16  S   UNL     1       0.184  10.672  19.988  0.00  0.00    +0.000 S 
ATOM     17  O   UNL     1       1.056  11.779  20.307  0.00  0.00    +0.000 OA
ATOM     18  O   UNL     1      -0.770  10.164  20.947  0.00  0.00    +0.000 OA
BRANCH  16  19
ATOM     19  C   UNL     1       1.210   9.342  19.427  0.00  0.00    +0.000 A 
ATOM     20  C   UNL     1       1.450   8.303  20.320  0.00  0.00    +0.000 A 
ATOM     21  C   UNL     1       2.211   7.208  19.921  0.00  0.00    +0.000 A 
ATOM     22  C   UNL     1       2.731   7.103  18.621  0.00  0.00    +0.000 A 
ATOM     23  C   UNL     1       2.457   8.163  17.727  0.00  0.00    +0.000 A 
ATOM     24  C   UNL     1       1.697   9.277  18.122  0.00  0.00    +0.000 A 
BRANCH  22  25
ATOM     25  C   UNL     1       3.547   5.870  18.181  0.00  0.00    +0.000 C 
ATOM     26  C   UNL     1       4.457   5.316  19.306  0.00  0.00    +0.000 C 
ATOM     27  C   UNL     1       2.597   4.730  17.758  0.00  0.00    +0.000 C 
ATOM     28  C   UNL     1       4.463   6.228  16.993  0.00  0.00    +0.000 C 
ENDBRANCH  22  25
ENDBRANCH  16  19
ENDBRANCH   1  16
TORSDOF 5
ENDMDL
MODEL 7
REMARK VINA RESULT:      -7.1      2.691      8.777
REMARK  Name = 
REMARK  10 active torsions:
REMARK  status: ('A' for Active; 'I' for Inactive)
REMARK    1  A    between atoms: C_1  and  C_2
REMARK    2  A    between atoms: C_6  and  C_7
REMARK    3  A    between atoms: C_8  and  N_9
REMARK    4  A    between atoms: N_9  and  S_10
REMARK    5  A    between atoms: S_10  and  C_13
REMARK    6  A    between atoms: C_16  and  C_17
REMARK    7  A    between atoms: C_17  and  C_18
REMARK    8  A    between atoms: C_17  and  C_19
REMARK    9  A    between atoms: C_17  and  C_20
REMARK   10  A    between atoms: C_23  and  O_24
REMARK                            x       y       z     vdW  Elec       q    Type
REMARK                         _______ _______ _______ _____ _____    ______ ____
ROOT
ATOM      1  N   UNL     1       0.401  11.189  19.728  0.00  0.00    +0.000 N 
ATOM      2  H   UNL     1       0.453  11.668  20.629  0.00  0.00    +0.000 HD
ENDROOT
BRANCH   1  10
ATOM      3  C   UNL     1       4.110   5.528  17.283  0.00  0.00    +0.000 C 
ATOM      4  C   UNL     1       3.330   6.519  18.045  0.00  0.00    +0.000 A 
ATOM      5  N   UNL     1       2.839   6.283  19.297  0.00  0.00    +0.000 NA
ATOM      6  C   UNL     1       2.202   7.394  19.595  0.00  0.00    +0.000 A 
ATOM      7  N   UNL     1       1.544   7.728  20.740  0.00  0.00    +0.000 NA
ATOM      8  C   UNL     1       0.970   8.895  20.769  0.00  0.00    +0.000 A 
ATOM      9  C   UNL     1       0.292   9.270  22.071  0.00  0.00    +0.000 C 
ATOM     10  C   UNL     1       0.952   9.880  19.612  0.00  0.00    +0.000 A 
ATOM     11  C   UNL     1       1.695   9.546  18.538  0.00  0.00    +0.000 A 
ATOM     12  N   UNL     1       2.305   8.282  18.520  0.00  0.00    +0.000 N 
ATOM     13  N   UNL     1       3.044   7.716  17.535  0.00  0.00    +0.000 NA
BRANCH  11  14
ATOM     14  O   UNL     1       1.951  10.362  17.448  0.00  0.00    +0.000 OA
ATOM     15  H   UNL     1       2.765  10.888  17.579  0.00  0.00    +0.000 HD
ENDBRANCH  11  14
ENDBRANCH   1  10
BRANCH   1  16
ATOM     16  S   UNL     1      -1.069  11.552  18.963  0.00  0.00    +0.000 S 
ATOM     17  O   UNL     1      -0.810  12.724  18.158  0.00  0.00    +0.000 OA
ATOM     18  O   UNL     1      -1.567  10.329  18.373  0.00  0.00    +0.000 OA
BRANCH  16  19
ATOM     19  C   UNL     1      -2.145  12.045  20.278  0.00  0.00    +0.000 A 
ATOM     20  C   UNL     1      -1.614  12.061  21.564  0.00  0.00    +0.000 A 
ATOM     21  C   UNL     1      -2.399  12.484  22.633  0.00  0.00    +0.000 A 
ATOM     22  C   UNL     1      -3.720  12.925  22.451  0.00  0.00    +0.000 A 
ATOM     23  C   UNL     1      -4.229  12.917  21.133  0.00  0.00    +0.000 A 
ATOM     24  C   UNL     1      -3.448  12.484  20.048  0.00  0.00    +0.000 A 
BRANCH  22  25
ATOM     25  C   UNL     1      -4.570  13.420  23.639  0.00  0.00    +0.000 C 
ATOM     26  C   UNL     1      -6.064  13.612  23.275  0.00  0.00    +0.000 C 
ATOM     27  C   UNL     1      -4.509  12.400  24.795  0.00  0.00    +0.000 C 
ATOM     28  C   UNL     1      -4.049  14.781  24.143  0.00  0.00    +0.000 C 
ENDBRANCH  22  25
ENDBRANCH  16  19
ENDBRANCH   1  16
TORSDOF 5
ENDMDL
MODEL 8
REMARK VINA RESULT:      -7.1      2.668      3.723
REMARK  Name = 
REMARK  10 active torsions:
REMARK  status: ('A' for Active; 'I' for Inactive)
REMARK    1  A    between atoms: C_1  and  C_2
REMARK    2  A    between atoms: C_6  and  C_7
REMARK    3  A    between atoms: C_8  and  N_9
REMARK    4  A    between atoms: N_9  and  S_10
REMARK    5  A    between atoms: S_10  and  C_13
REMARK    6  A    between atoms: C_16  and  C_17
REMARK    7  A    between atoms: C_17  and  C_18
REMARK    8  A    between atoms: C_17  and  C_19
REMARK    9  A    between atoms: C_17  and  C_20
REMARK   10  A    between atoms: C_23  and  O_24
REMARK                            x       y       z     vdW  Elec       q    Type
REMARK                         _______ _______ _______ _____ _____    ______ ____
ROOT
ATOM      1  N   UNL     1       0.076   9.901  20.124  0.00  0.00    +0.000 N 
ATOM      2  H   UNL     1      -0.930   9.782  19.993  0.00  0.00    +0.000 HD
ENDROOT
BRANCH   1  10
ATOM      3  C   UNL     1       3.506  15.798  17.834  0.00  0.00    +0.000 C 
ATOM      4  C   UNL     1       2.689  14.781  18.520  0.00  0.00    +0.000 A 
ATOM      5  N   UNL     1       1.993  15.032  19.668  0.00  0.00    +0.000 NA
ATOM      6  C   UNL     1       1.431  13.876  19.947  0.00  0.00    +0.000 A 
ATOM      7  N   UNL     1       0.595  13.552  20.973  0.00  0.00    +0.000 NA
ATOM      8  C   UNL     1       0.194  12.315  21.036  0.00  0.00    +0.000 A 
ATOM      9  C   UNL     1      -0.779  11.988  22.150  0.00  0.00    +0.000 C 
ATOM     10  C   UNL     1       0.624  11.217  20.078  0.00  0.00    +0.000 A 
ATOM     11  C   UNL     1       1.373  11.605  19.028  0.00  0.00    +0.000 A 
ATOM     12  N   UNL     1       1.800  12.942  18.976  0.00  0.00    +0.000 N 
ATOM     13  N   UNL     1       2.597  13.537  18.055  0.00  0.00    +0.000 NA
BRANCH  11  14
ATOM     14  O   UNL     1       1.736  10.807  17.955  0.00  0.00    +0.000 OA
ATOM     15  H   UNL     1       1.888  11.339  17.149  0.00  0.00    +0.000 HD
ENDBRANCH  11  14
ENDBRANCH   1  10
BRANCH   1  16
ATOM     16  S   UNL     1       0.644   8.796  21.278  0.00  0.00    +0.000 S 
ATOM     17  O   UNL     1       1.608   9.523  22.073  0.00  0.00    +0.000 OA
ATOM     18  O   UNL     1      -0.507   8.164  21.883  0.00  0.00    +0.000 OA
BRANCH  16  19
ATOM     19  C   UNL     1       1.541   7.593  20.338  0.00  0.00    +0.000 A 
ATOM     20  C   UNL     1       1.557   6.289  20.822  0.00  0.00    +0.000 A 
ATOM     21  C   UNL     1       2.206   5.290  20.103  0.00  0.00    +0.000 A 
ATOM     22  C   UNL     1       2.834   5.553  18.875  0.00  0.00    +0.000 A 
ATOM     23  C   UNL     1       2.788   6.882  18.396  0.00  0.00    +0.000 A 
ATOM     24  C   UNL     1       2.141   7.899  19.118  0.00  0.00    +0.000 A 
BRANCH  22  25
ATOM     25  C   UNL     1       3.525   4.432  18.071  0.00  0.00    +0.000 C 
ATOM     26  C   UNL     1       2.519   3.484  17.371  0.00  0.00    +0.000 C 
ATOM     27  C   UNL     1       4.419   5.042  16.972  0.00  0.00    +0.000 C 
ATOM     28  C   UNL     1       4.395   3.562  19.001  0.00  0.00    +0.000 C 
ENDBRANCH  22  25
ENDBRANCH  16  19
ENDBRANCH   1  16
TORSDOF 5
ENDMDL
MODEL 9
REMARK VINA RESULT:      -7.0      2.690      8.810
REMARK  Name = 
REMARK  10 active torsions:
REMARK  status: ('A' for Active; 'I' for Inactive)
REMARK    1  A    between atoms: C_1  and  C_2
REMARK    2  A    between atoms: C_6  and  C_7
REMARK    3  A    between atoms: C_8  and  N_9
REMARK    4  A    between atoms: N_9  and  S_10
REMARK    5  A    between atoms: S_10  and  C_13
REMARK    6  A    between atoms: C_16  and  C_17
REMARK    7  A    between atoms: C_17  and  C_18
REMARK    8  A    between atoms: C_17  and  C_19
REMARK    9  A    between atoms: C_17  and  C_20
REMARK   10  A    between atoms: C_23  and  O_24
REMARK                            x       y       z     vdW  Elec       q    Type
REMARK                         _______ _______ _______ _____ _____    ______ ____
ROOT
ATOM      1  N   UNL     1       0.586  11.093  19.726  0.00  0.00    +0.000 N 
ATOM      2  H   UNL     1       0.785  11.627  20.574  0.00  0.00    +0.000 HD
ENDROOT
BRANCH   1  10
ATOM      3  C   UNL     1       3.981   5.235  17.290  0.00  0.00    +0.000 C 
ATOM      4  C   UNL     1       3.266   6.273  18.054  0.00  0.00    +0.000 A 
ATOM      5  N   UNL     1       2.806   6.082  19.325  0.00  0.00    +0.000 NA
ATOM      6  C   UNL     1       2.225   7.225  19.619  0.00  0.00    +0.000 A 
ATOM      7  N   UNL     1       1.618   7.608  20.776  0.00  0.00    +0.000 NA
ATOM      8  C   UNL     1       1.093   8.799  20.798  0.00  0.00    +0.000 A 
ATOM      9  C   UNL     1       0.472   9.228  22.112  0.00  0.00    +0.000 C 
ATOM     10  C   UNL     1       1.079   9.760  19.622  0.00  0.00    +0.000 A 
ATOM     11  C   UNL     1       1.772   9.374  18.532  0.00  0.00    +0.000 A 
ATOM     12  N   UNL     1       2.330   8.086  18.523  0.00  0.00    +0.000 N 
ATOM     13  N   UNL     1       3.013   7.470  17.528  0.00  0.00    +0.000 NA
BRANCH  11  14
ATOM     14  O   UNL     1       2.027  10.157  17.418  0.00  0.00    +0.000 OA
ATOM     15  H   UNL     1       1.724   9.720  16.597  0.00  0.00    +0.000 HD
ENDBRANCH  11  14
ENDBRANCH   1  10
BRANCH   1  16
ATOM     16  S   UNL     1      -0.973  11.458  19.165  0.00  0.00    +0.000 S 
ATOM     17  O   UNL     1      -0.806  12.547  18.230  0.00  0.00    +0.000 OA
ATOM     18  O   UNL     1      -1.597  10.215  18.770  0.00  0.00    +0.000 OA
BRANCH  16  19
ATOM     19  C   UNL     1      -1.815  12.107  20.581  0.00  0.00    +0.000 A 
ATOM     20  C   UNL     1      -3.125  12.539  20.400  0.00  0.00    +0.000 A 
ATOM     21  C   UNL     1      -3.853  13.016  21.486  0.00  0.00    +0.000 A 
ATOM     22  C   UNL     1      -3.311  13.055  22.781  0.00  0.00    +0.000 A 
ATOM     23  C   UNL     1      -1.985  12.593  22.940  0.00  0.00    +0.000 A 
ATOM     24  C   UNL     1      -1.238  12.117  21.850  0.00  0.00    +0.000 A 
BRANCH  22  25
ATOM     25  C   UNL     1      -4.138  13.557  23.981  0.00  0.00    +0.000 C 
ATOM     26  C   UNL     1      -5.434  14.292  23.557  0.00  0.00    +0.000 C 
ATOM     27  C   UNL     1      -4.558  12.368  24.870  0.00  0.00    +0.000 C 
ATOM     28  C   UNL     1      -3.312  14.548  24.826  0.00  0.00    +0.000 C 
ENDBRANCH  22  25
ENDBRANCH  16  19
ENDBRANCH   1  16
TORSDOF 5
ENDMDL
