MODEL 1
REMARK VINA RESULT:      -5.9      0.000      0.000
REMARK  Name = 
REMARK  22 active torsions:
REMARK  status: ('A' for Active; 'I' for Inactive)
REMARK    1  A    between atoms: C_1  and  C_2
REMARK    2  A    between atoms: C_2  and  C_3
REMARK    3  A    between atoms: C_3  and  C_4
REMARK    4  A    between atoms: C_4  and  C_5
REMARK    5  A    between atoms: C_5  and  C_6
REMARK    6  A    between atoms: C_6  and  C_7
REMARK    7  A    between atoms: C_7  and  C_8
REMARK    8  A    between atoms: C_8  and  C_9
REMARK    9  A    between atoms: C_9  and  C_10
REMARK   10  A    between atoms: C_10  and  C_11
REMARK   11  A    between atoms: C_11  and  C_12
REMARK   12  A    between atoms: C_12  and  C_13
REMARK   13  A    between atoms: C_13  and  C_14
REMARK   14  A    between atoms: C_14  and  C_15
REMARK   15  A    between atoms: C_15  and  C_16
REMARK   16  A    between atoms: C_16  and  C_17
REMARK   17  A    between atoms: C_17  and  C_18
REMARK   18  A    between atoms: N_20  and  C_21
REMARK   19  A    between atoms: C_24  and  N_25
REMARK   20  A    between atoms: N_25  and  C_26
REMARK   21  A    between atoms: N_25  and  C_27
REMARK   22  A    between atoms: N_25  and  C_28
REMARK                            x       y       z     vdW  Elec       q    Type
REMARK                         _______ _______ _______ _____ _____    ______ ____
ROOT
ATOM      1  C   UNL     1       2.720   8.477  18.196  0.00  0.00    +0.000 C 
ENDROOT
BRANCH   1   2
ATOM      2  C   UNL     1       1.258   8.698  17.817  0.00  0.00    +0.000 C 
BRANCH   2   3
ATOM      3  C   UNL     1       0.690   9.835  18.636  0.00  0.00    +0.000 C 
ATOM      4  O   UNL     1       0.068  10.744  18.119  0.00  0.00    +0.000 OA
ATOM      5  N   UNL     1       0.972   9.725  19.994  0.00  0.00    +0.000 N 
ATOM      6  H   UNL     1       1.660   9.034  20.280  0.00  0.00    +0.000 HD
BRANCH   5   7
ATOM      7  C   UNL     1       0.453  10.582  20.980  0.00  0.00    +0.000 A 
ATOM      8  C   UNL     1       0.607  11.965  20.900  0.00  0.00    +0.000 A 
ATOM      9  C   UNL     1      -0.046  12.815  21.784  0.00  0.00    +0.000 A 
ATOM     10  C   UNL     1      -0.970  12.290  22.690  0.00  0.00    +0.000 A 
ATOM     11  C   UNL     1      -0.964  10.907  22.910  0.00  0.00    +0.000 A 
ATOM     12  C   UNL     1      -0.285  10.050  22.035  0.00  0.00    +0.000 A 
BRANCH  10  13
ATOM     13  N   UNL     1      -2.213  13.121  23.023  0.00  0.00    +0.000 NA
ATOM     14  C   UNL     1      -1.747  14.235  23.975  0.00  0.00    +0.000 C 
ATOM     15  C   UNL     1      -3.324  12.301  23.644  0.00  0.00    +0.000 C 
ATOM     16  C   UNL     1      -2.771  13.802  21.769  0.00  0.00    +0.000 C 
ENDBRANCH  10  13
ENDBRANCH   5   7
ENDBRANCH   2   3
ENDBRANCH   1   2
BRANCH   1  17
ATOM     17  C   UNL     1       3.138   7.025  18.051  0.00  0.00    +0.000 C 
BRANCH  17  18
ATOM     18  C   UNL     1       2.107   6.116  18.711  0.00  0.00    +0.000 C 
BRANCH  18  19
ATOM     19  C   UNL     1       2.556   5.716  20.109  0.00  0.00    +0.000 C 
BRANCH  19  20
ATOM     20  C   UNL     1       1.839   4.453  20.559  0.00  0.00    +0.000 C 
BRANCH  20  21
ATOM     21  C   UNL     1       0.954   3.930  19.445  0.00  0.00    +0.000 C 
BRANCH  21  22
ATOM     22  C   UNL     1       1.381   2.515  19.051  0.00  0.00    +0.000 C 
BRANCH  22  23
ATOM     23  C   UNL     1       2.155   2.545  17.742  0.00  0.00    +0.000 C 
BRANCH  23  24
ATOM     24  C   UNL     1       3.589   2.123  17.964  0.00  0.00    +0.000 C 
BRANCH  24  25
ATOM     25  C   UNL     1       4.517   3.335  17.958  0.00  0.00    +0.000 C 
BRANCH  25  26
ATOM     26  C   UNL     1       4.467   4.041  16.611  0.00  0.00    +0.000 C 
BRANCH  26  27
ATOM     27  C   UNL     1       5.721   3.740  15.804  0.00  0.00    +0.000 C 
BRANCH  27  28
ATOM     28  C   UNL     1       6.568   4.996  15.638  0.00  0.00    +0.000 C 
BRANCH  28  29
ATOM     29  C   UNL     1       6.395   5.921  16.837  0.00  0.00    +0.000 C 
BRANCH  29  31
ATOM     30  C   UNL     1       6.910   5.628  19.273  0.00  0.00    +0.000 C 
ATOM     31  C   UNL     1       7.492   5.690  17.872  0.00  0.00    +0.000 C 
ENDBRANCH  29  31
ENDBRANCH  28  29
ENDBRANCH  27  28
ENDBRANCH  26  27
ENDBRANCH  25  26
ENDBRANCH  24  25
ENDBRANCH  23  24
ENDBRANCH  22  23
ENDBRANCH  21  22
ENDBRANCH  20  21
ENDBRANCH  19  20
ENDBRANCH  18  19
ENDBRANCH  17  18
ENDBRANCH   1  17
TORSDOF 18
ENDMDL
MODEL 2
REMARK VINA RESULT:      -5.8      6.070     10.426
REMARK  Name = 
REMARK  22 active torsions:
REMARK  status: ('A' for Active; 'I' for Inactive)
REMARK    1  A    between atoms: C_1  and  C_2
REMARK    2  A    between atoms: C_2  and  C_3
REMARK    3  A    between atoms: C_3  and  C_4
REMARK    4  A    between atoms: C_4  and  C_5
REMARK    5  A    between atoms: C_5  and  C_6
REMARK    6  A    between atoms: C_6  and  C_7
REMARK    7  A    between atoms: C_7  and  C_8
REMARK    8  A    between atoms: C_8  and  C_9
REMARK    9  A    between atoms: C_9  and  C_10
REMARK   10  A    between atoms: C_10  and  C_11
REMARK   11  A    between atoms: C_11  and  C_12
REMARK   12  A    between atoms: C_12  and  C_13
REMARK   13  A    between atoms: C_13  and  C_14
REMARK   14  A    between atoms: C_14  and  C_15
REMARK   15  A    between atoms: C_15  and  C_16
REMARK   16  A    between atoms: C_16  and  C_17
REMARK   17  A    between atoms: C_17  and  C_18
REMARK   18  A    between atoms: N_20  and  C_21
REMARK   19  A    between atoms: C_24  and  N_25
REMARK   20  A    between atoms: N_25  and  C_26
REMARK   21  A    between atoms: N_25  and  C_27
REMARK   22  A    between atoms: N_25  and  C_28
REMARK                            x       y       z     vdW  Elec       q    Type
REMARK                         _______ _______ _______ _____ _____    ______ ____
ROOT
ATOM      1  C   UNL     1       8.328   8.478  18.446  0.00  0.00    +0.000 C 
ENDROOT
BRANCH   1   2
ATOM      2  C   UNL     1       7.587   7.913  17.237  0.00  0.00    +0.000 C 
BRANCH   2   3
ATOM      3  C   UNL     1       6.634   6.830  17.688  0.00  0.00    +0.000 C 
ATOM      4  O   UNL     1       6.907   6.083  18.609  0.00  0.00    +0.000 OA
ATOM      5  N   UNL     1       5.463   6.785  16.938  0.00  0.00    +0.000 N 
ATOM      6  H   UNL     1       5.431   7.324  16.077  0.00  0.00    +0.000 HD
BRANCH   5   7
ATOM      7  C   UNL     1       4.367   5.955  17.233  0.00  0.00    +0.000 A 
ATOM      8  C   UNL     1       4.379   4.595  16.929  0.00  0.00    +0.000 A 
ATOM      9  C   UNL     1       3.368   3.750  17.369  0.00  0.00    +0.000 A 
ATOM     10  C   UNL     1       2.388   4.240  18.235  0.00  0.00    +0.000 A 
ATOM     11  C   UNL     1       2.257   5.628  18.365  0.00  0.00    +0.000 A 
ATOM     12  C   UNL     1       3.263   6.484  17.898  0.00  0.00    +0.000 A 
BRANCH  10  13
ATOM     13  N   UNL     1       1.849   3.308  19.325  0.00  0.00    +0.000 NA
ATOM     14  C   UNL     1       3.078   2.721  20.040  0.00  0.00    +0.000 C 
ATOM     15  C   UNL     1       0.960   2.211  18.779  0.00  0.00    +0.000 C 
ATOM     16  C   UNL     1       1.048   4.090  20.370  0.00  0.00    +0.000 C 
ENDBRANCH  10  13
ENDBRANCH   5   7
ENDBRANCH   2   3
ENDBRANCH   1   2
BRANCH   1  17
ATOM     17  C   UNL     1       8.845   9.884  18.199  0.00  0.00    +0.000 C 
BRANCH  17  18
ATOM     18  C   UNL     1       9.292  10.514  19.512  0.00  0.00    +0.000 C 
BRANCH  18  19
ATOM     19  C   UNL     1      10.457  11.468  19.286  0.00  0.00    +0.000 C 
BRANCH  19  20
ATOM     20  C   UNL     1      10.814  11.535  17.810  0.00  0.00    +0.000 C 
BRANCH  20  21
ATOM     21  C   UNL     1      10.747  12.969  17.322  0.00  0.00    +0.000 C 
BRANCH  21  22
ATOM     22  C   UNL     1      10.079  13.856  18.375  0.00  0.00    +0.000 C 
BRANCH  22  23
ATOM     23  C   UNL     1      11.074  14.870  18.915  0.00  0.00    +0.000 C 
BRANCH  23  24
ATOM     24  C   UNL     1      10.540  15.523  20.169  0.00  0.00    +0.000 C 
BRANCH  24  25
ATOM     25  C   UNL     1      10.422  14.505  21.301  0.00  0.00    +0.000 C 
BRANCH  25  26
ATOM     26  C   UNL     1       8.970  14.341  21.724  0.00  0.00    +0.000 C 
BRANCH  26  27
ATOM     27  C   UNL     1       8.873  13.483  22.976  0.00  0.00    +0.000 C 
BRANCH  27  28
ATOM     28  C   UNL     1       8.345  12.095  22.636  0.00  0.00    +0.000 C 
BRANCH  28  29
ATOM     29  C   UNL     1       7.264  11.675  23.625  0.00  0.00    +0.000 C 
BRANCH  29  31
ATOM     30  C   UNL     1       5.818  12.906  25.263  0.00  0.00    +0.000 C 
ATOM     31  C   UNL     1       6.226  12.778  23.805  0.00  0.00    +0.000 C 
ENDBRANCH  29  31
ENDBRANCH  28  29
ENDBRANCH  27  28
ENDBRANCH  26  27
ENDBRANCH  25  26
ENDBRANCH  24  25
ENDBRANCH  23  24
ENDBRANCH  22  23
ENDBRANCH  21  22
ENDBRANCH  20  21
ENDBRANCH  19  20
ENDBRANCH  18  19
ENDBRANCH  17  18
ENDBRANCH   1  17
TORSDOF 18
ENDMDL
MODEL 3
REMARK VINA RESULT:      -5.8      1.839      3.454
REMARK  Name = 
REMARK  22 active torsions:
REMARK  status: ('A' for Active; 'I' for Inactive)
REMARK    1  A    between atoms: C_1  and  C_2
REMARK    2  A    between atoms: C_2  and  C_3
REMARK    3  A    between atoms: C_3  and  C_4
REMARK    4  A    between atoms: C_4  and  C_5
REMARK    5  A    between atoms: C_5  and  C_6
REMARK    6  A    between atoms: C_6  and  C_7
REMARK    7  A    between atoms: C_7  and  C_8
REMARK    8  A    between atoms: C_8  and  C_9
REMARK    9  A    between atoms: C_9  and  C_10
REMARK   10  A    between atoms: C_10  and  C_11
REMARK   11  A    between atoms: C_11  and  C_12
REMARK   12  A    between atoms: C_12  and  C_13
REMARK   13  A    between atoms: C_13  and  C_14
REMARK   14  A    between atoms: C_14  and  C_15
REMARK   15  A    between atoms: C_15  and  C_16
REMARK   16  A    between atoms: C_16  and  C_17
REMARK   17  A    between atoms: C_17  and  C_18
REMARK   18  A    between atoms: N_20  and  C_21
REMARK   19  A    between atoms: C_24  and  N_25
REMARK   20  A    between atoms: N_25  and  C_26
REMARK   21  A    between atoms: N_25  and  C_27
REMARK   22  A    between atoms: N_25  and  C_28
REMARK                            x       y       z     vdW  Elec       q    Type
REMARK                         _______ _______ _______ _____ _____    ______ ____
ROOT
ATOM      1  C   UNL     1       1.712   5.269  20.068  0.00  0.00    +0.000 C 
ENDROOT
BRANCH   1   2
ATOM      2  C   UNL     1       2.673   6.455  20.103  0.00  0.00    +0.000 C 
BRANCH   2   3
ATOM      3  C   UNL     1       1.887   7.745  20.043  0.00  0.00    +0.000 C 
ATOM      4  O   UNL     1       1.873   8.438  19.043  0.00  0.00    +0.000 OA
ATOM      5  N   UNL     1       1.224   8.037  21.232  0.00  0.00    +0.000 N 
ATOM      6  H   UNL     1       1.466   7.491  22.054  0.00  0.00    +0.000 HD
BRANCH   5   7
ATOM      7  C   UNL     1       0.328   9.108  21.394  0.00  0.00    +0.000 A 
ATOM      8  C   UNL     1      -0.066   9.543  22.658  0.00  0.00    +0.000 A 
ATOM      9  C   UNL     1      -0.817  10.701  22.819  0.00  0.00    +0.000 A 
ATOM     10  C   UNL     1      -1.078  11.513  21.712  0.00  0.00    +0.000 A 
ATOM     11  C   UNL     1      -0.869  10.975  20.436  0.00  0.00    +0.000 A 
ATOM     12  C   UNL     1      -0.135   9.794  20.273  0.00  0.00    +0.000 A 
BRANCH  10  13
ATOM     13  N   UNL     1      -1.108  13.031  21.916  0.00  0.00    +0.000 NA
ATOM     14  C   UNL     1      -1.530  13.264  23.377  0.00  0.00    +0.000 C 
ATOM     15  C   UNL     1      -2.042  13.739  20.958  0.00  0.00    +0.000 C 
ATOM     16  C   UNL     1       0.290  13.635  21.748  0.00  0.00    +0.000 C 
ENDBRANCH  10  13
ENDBRANCH   5   7
ENDBRANCH   2   3
ENDBRANCH   1   2
BRANCH   1  17
ATOM     17  C   UNL     1       2.071   4.208  21.093  0.00  0.00    +0.000 C 
BRANCH  17  18
ATOM     18  C   UNL     1       1.132   3.015  20.960  0.00  0.00    +0.000 C 
BRANCH  18  19
ATOM     19  C   UNL     1       0.729   2.803  19.507  0.00  0.00    +0.000 C 
BRANCH  19  20
ATOM     20  C   UNL     1       1.771   1.970  18.779  0.00  0.00    +0.000 C 
BRANCH  20  21
ATOM     21  C   UNL     1       2.273   2.713  17.557  0.00  0.00    +0.000 C 
BRANCH  21  22
ATOM     22  C   UNL     1       3.789   2.550  17.423  0.00  0.00    +0.000 C 
BRANCH  22  23
ATOM     23  C   UNL     1       4.499   3.759  18.010  0.00  0.00    +0.000 C 
BRANCH  23  24
ATOM     24  C   UNL     1       5.734   4.092  17.203  0.00  0.00    +0.000 C 
BRANCH  24  25
ATOM     25  C   UNL     1       5.683   5.535  16.707  0.00  0.00    +0.000 C 
BRANCH  25  26
ATOM     26  C   UNL     1       5.236   5.586  15.254  0.00  0.00    +0.000 C 
BRANCH  26  27
ATOM     27  C   UNL     1       5.586   4.288  14.542  0.00  0.00    +0.000 C 
BRANCH  27  28
ATOM     28  C   UNL     1       6.552   4.549  13.392  0.00  0.00    +0.000 C 
BRANCH  28  29
ATOM     29  C   UNL     1       6.441   3.452  12.340  0.00  0.00    +0.000 C 
BRANCH  29  31
ATOM     30  C   UNL     1       4.279   3.657  11.088  0.00  0.00    +0.000 C 
ATOM     31  C   UNL     1       5.006   2.949  12.218  0.00  0.00    +0.000 C 
ENDBRANCH  29  31
ENDBRANCH  28  29
ENDBRANCH  27  28
ENDBRANCH  26  27
ENDBRANCH  25  26
ENDBRANCH  24  25
ENDBRANCH  23  24
ENDBRANCH  22  23
ENDBRANCH  21  22
ENDBRANCH  20  21
ENDBRANCH  19  20
ENDBRANCH  18  19
ENDBRANCH  17  18
ENDBRANCH   1  17
TORSDOF 18
ENDMDL
MODEL 4
REMARK VINA RESULT:      -5.8      4.844      7.756
REMARK  Name = 
REMARK  22 active torsions:
REMARK  status: ('A' for Active; 'I' for Inactive)
REMARK    1  A    between atoms: C_1  and  C_2
REMARK    2  A    between atoms: C_2  and  C_3
REMARK    3  A    between atoms: C_3  and  C_4
REMARK    4  A    between atoms: C_4  and  C_5
REMARK    5  A    between atoms: C_5  and  C_6
REMARK    6  A    between atoms: C_6  and  C_7
REMARK    7  A    between atoms: C_7  and  C_8
REMARK    8  A    between atoms: C_8  and  C_9
REMARK    9  A    between atoms: C_9  and  C_10
REMARK   10  A    between atoms: C_10  and  C_11
REMARK   11  A    between atoms: C_11  and  C_12
REMARK   12  A    between atoms: C_12  and  C_13
REMARK   13  A    between atoms: C_13  and  C_14
REMARK   14  A    between atoms: C_14  and  C_15
REMARK   15  A    between atoms: C_15  and  C_16
REMARK   16  A    between atoms: C_16  and  C_17
REMARK   17  A    between atoms: C_17  and  C_18
REMARK   18  A    between atoms: N_20  and  C_21
REMARK   19  A    between atoms: C_24  and  N_25
REMARK   20  A    between atoms: N_25  and  C_26
REMARK   21  A    between atoms: N_25  and  C_27
REMARK   22  A    between atoms: N_25  and  C_28
REMARK                            x       y       z     vdW  Elec       q    Type
REMARK                         _______ _______ _______ _____ _____    ______ ____
ROOT
ATOM      1  C   UNL     1       7.629   6.007  16.879  0.00  0.00    +0.000 C 
ENDROOT
BRANCH   1   2
ATOM      2  C   UNL     1       7.542   6.762  18.204  0.00  0.00    +0.000 C 
BRANCH   2   3
ATOM      3  C   UNL     1       7.956   8.201  17.995  0.00  0.00    +0.000 C 
ATOM      4  O   UNL     1       7.555   8.848  17.047  0.00  0.00    +0.000 OA
ATOM      5  N   UNL     1       8.830   8.665  18.973  0.00  0.00    +0.000 N 
ATOM      6  H   UNL     1       9.246   7.981  19.599  0.00  0.00    +0.000 HD
BRANCH   5   7
ATOM      7  C   UNL     1       9.262   9.998  19.077  0.00  0.00    +0.000 A 
ATOM      8  C   UNL     1       9.696  10.714  17.962  0.00  0.00    +0.000 A 
ATOM      9  C   UNL     1       9.964  12.075  18.039  0.00  0.00    +0.000 A 
ATOM     10  C   UNL     1       9.677  12.768  19.217  0.00  0.00    +0.000 A 
ATOM     11  C   UNL     1       9.449  12.024  20.381  0.00  0.00    +0.000 A 
ATOM     12  C   UNL     1       9.204  10.647  20.309  0.00  0.00    +0.000 A 
BRANCH  10  13
ATOM     13  N   UNL     1       9.164  14.207  19.107  0.00  0.00    +0.000 NA
ATOM     14  C   UNL     1      10.106  14.930  18.129  0.00  0.00    +0.000 C 
ATOM     15  C   UNL     1       9.109  14.921  20.440  0.00  0.00    +0.000 C 
ATOM     16  C   UNL     1       7.761  14.244  18.492  0.00  0.00    +0.000 C 
ENDBRANCH  10  13
ENDBRANCH   5   7
ENDBRANCH   2   3
ENDBRANCH   1   2
BRANCH   1  17
ATOM     17  C   UNL     1       6.317   6.028  16.117  0.00  0.00    +0.000 C 
BRANCH  17  18
ATOM     18  C   UNL     1       5.149   6.139  17.092  0.00  0.00    +0.000 C 
BRANCH  18  19
ATOM     19  C   UNL     1       4.191   4.969  16.924  0.00  0.00    +0.000 C 
BRANCH  19  20
ATOM     20  C   UNL     1       4.888   3.657  17.248  0.00  0.00    +0.000 C 
BRANCH  20  21
ATOM     21  C   UNL     1       4.230   2.999  18.446  0.00  0.00    +0.000 C 
BRANCH  21  22
ATOM     22  C   UNL     1       3.354   1.830  17.992  0.00  0.00    +0.000 C 
BRANCH  22  23
ATOM     23  C   UNL     1       1.968   1.945  18.605  0.00  0.00    +0.000 C 
BRANCH  23  24
ATOM     24  C   UNL     1       2.038   2.621  19.955  0.00  0.00    +0.000 C 
BRANCH  24  25
ATOM     25  C   UNL     1       0.721   3.319  20.280  0.00  0.00    +0.000 C 
BRANCH  25  26
ATOM     26  C   UNL     1       0.924   4.823  20.387  0.00  0.00    +0.000 C 
BRANCH  26  27
ATOM     27  C   UNL     1       2.341   5.140  20.839  0.00  0.00    +0.000 C 
BRANCH  27  28
ATOM     28  C   UNL     1       2.996   6.140  19.894  0.00  0.00    +0.000 C 
BRANCH  28  29
ATOM     29  C   UNL     1       2.094   7.351  19.687  0.00  0.00    +0.000 C 
BRANCH  29  31
ATOM     30  C   UNL     1       1.410   9.175  18.109  0.00  0.00    +0.000 C 
ATOM     31  C   UNL     1       2.322   7.978  18.315  0.00  0.00    +0.000 C 
ENDBRANCH  29  31
ENDBRANCH  28  29
ENDBRANCH  27  28
ENDBRANCH  26  27
ENDBRANCH  25  26
ENDBRANCH  24  25
ENDBRANCH  23  24
ENDBRANCH  22  23
ENDBRANCH  21  22
ENDBRANCH  20  21
ENDBRANCH  19  20
ENDBRANCH  18  19
ENDBRANCH  17  18
ENDBRANCH   1  17
TORSDOF 18
ENDMDL
MODEL 5
REMARK VINA RESULT:      -5.7      5.476      7.820
REMARK  Name = 
REMARK  22 active torsions:
REMARK  status: ('A' for Active; 'I' for Inactive)
REMARK    1  A    between atoms: C_1  and  C_2
REMARK    2  A    between atoms: C_2  and  C_3
REMARK    3  A    between atoms: C_3  and  C_4
REMARK    4  A    between atoms: C_4  and  C_5
REMARK    5  A    between atoms: C_5  and  C_6
REMARK    6  A    between atoms: C_6  and  C_7
REMARK    7  A    between atoms: C_7  and  C_8
REMARK    8  A    between atoms: C_8  and  C_9
REMARK    9  A    between atoms: C_9  and  C_10
REMARK   10  A    between atoms: C_10  and  C_11
REMARK   11  A    between atoms: C_11  and  C_12
REMARK   12  A    between atoms: C_12  and  C_13
REMARK   13  A    between atoms: C_13  and  C_14
REMARK   14  A    between atoms: C_14  and  C_15
REMARK   15  A    between atoms: C_15  and  C_16
REMARK   16  A    between atoms: C_16  and  C_17
REMARK   17  A    between atoms: C_17  and  C_18
REMARK   18  A    between atoms: N_20  and  C_21
REMARK   19  A    between atoms: C_24  and  N_25
REMARK   20  A    between atoms: N_25  and  C_26
REMARK   21  A    between atoms: N_25  and  C_27
REMARK   22  A    between atoms: N_25  and  C_28
REMARK                            x       y       z     vdW  Elec       q    Type
REMARK                         _______ _______ _______ _____ _____    ______ ____
ROOT
ATOM      1  C   UNL     1       8.247   7.487  18.870  0.00  0.00    +0.000 C 
ENDROOT
BRANCH   1   2
ATOM      2  C   UNL     1       8.150   8.496  17.728  0.00  0.00    +0.000 C 
BRANCH   2   3
ATOM      3  C   UNL     1       8.495   9.876  18.241  0.00  0.00    +0.000 C 
ATOM      4  O   UNL     1       8.140  10.881  17.656  0.00  0.00    +0.000 OA
ATOM      5  N   UNL     1       9.255   9.851  19.407  0.00  0.00    +0.000 N 
ATOM      6  H   UNL     1       9.655   8.962  19.692  0.00  0.00    +0.000 HD
BRANCH   5   7
ATOM      7  C   UNL     1       9.598  10.994  20.149  0.00  0.00    +0.000 A 
ATOM      8  C   UNL     1      10.569  11.890  19.704  0.00  0.00    +0.000 A 
ATOM      9  C   UNL     1      10.788  13.098  20.354  0.00  0.00    +0.000 A 
ATOM     10  C   UNL     1       9.941  13.482  21.396  0.00  0.00    +0.000 A 
ATOM     11  C   UNL     1       9.118  12.507  21.971  0.00  0.00    +0.000 A 
ATOM     12  C   UNL     1       8.916  11.278  21.331  0.00  0.00    +0.000 A 
BRANCH  10  13
ATOM     13  N   UNL     1       9.595  14.968  21.539  0.00  0.00    +0.000 NA
ATOM     14  C   UNL     1       8.375  15.041  22.473  0.00  0.00    +0.000 C 
ATOM     15  C   UNL     1       9.309  15.640  20.213  0.00  0.00    +0.000 C 
ATOM     16  C   UNL     1      10.733  15.733  22.222  0.00  0.00    +0.000 C 
ENDBRANCH  10  13
ENDBRANCH   5   7
ENDBRANCH   2   3
ENDBRANCH   1   2
BRANCH   1  17
ATOM     17  C   UNL     1       7.845   6.089  18.438  0.00  0.00    +0.000 C 
BRANCH  17  18
ATOM     18  C   UNL     1       6.733   5.564  19.339  0.00  0.00    +0.000 C 
BRANCH  18  19
ATOM     19  C   UNL     1       5.865   4.558  18.597  0.00  0.00    +0.000 C 
BRANCH  19  20
ATOM     20  C   UNL     1       5.492   5.085  17.221  0.00  0.00    +0.000 C 
BRANCH  20  21
ATOM     21  C   UNL     1       4.028   4.812  16.936  0.00  0.00    +0.000 C 
BRANCH  21  22
ATOM     22  C   UNL     1       3.816   3.327  16.635  0.00  0.00    +0.000 C 
BRANCH  22  23
ATOM     23  C   UNL     1       2.584   2.815  17.365  0.00  0.00    +0.000 C 
BRANCH  23  24
ATOM     24  C   UNL     1       2.984   1.937  18.529  0.00  0.00    +0.000 C 
BRANCH  24  25
ATOM     25  C   UNL     1       1.851   1.840  19.548  0.00  0.00    +0.000 C 
BRANCH  25  26
ATOM     26  C   UNL     1       1.057   3.137  19.589  0.00  0.00    +0.000 C 
BRANCH  26  27
ATOM     27  C   UNL     1       1.267   3.851  20.916  0.00  0.00    +0.000 C 
BRANCH  27  28
ATOM     28  C   UNL     1       2.205   5.040  20.743  0.00  0.00    +0.000 C 
BRANCH  28  29
ATOM     29  C   UNL     1       1.781   5.888  19.550  0.00  0.00    +0.000 C 
BRANCH  29  31
ATOM     30  C   UNL     1       2.328   7.881  18.132  0.00  0.00    +0.000 C 
ATOM     31  C   UNL     1       2.730   7.065  19.348  0.00  0.00    +0.000 C 
ENDBRANCH  29  31
ENDBRANCH  28  29
ENDBRANCH  27  28
ENDBRANCH  26  27
ENDBRANCH  25  26
ENDBRANCH  24  25
ENDBRANCH  23  24
ENDBRANCH  22  23
ENDBRANCH  21  22
ENDBRANCH  20  21
ENDBRANCH  19  20
ENDBRANCH  18  19
ENDBRANCH  17  18
ENDBRANCH   1  17
TORSDOF 18
ENDMDL
MODEL 6
REMARK VINA RESULT:      -5.7      4.884      8.175
REMARK  Name = 
REMARK  22 active torsions:
REMARK  status: ('A' for Active; 'I' for Inactive)
REMARK    1  A    between atoms: C_1  and  C_2
REMARK    2  A    between atoms: C_2  and  C_3
REMARK    3  A    between atoms: C_3  and  C_4
REMARK    4  A    between atoms: C_4  and  C_5
REMARK    5  A    between atoms: C_5  and  C_6
REMARK    6  A    between atoms: C_6  and  C_7
REMARK    7  A    between atoms: C_7  and  C_8
REMARK    8  A    between atoms: C_8  and  C_9
REMARK    9  A    between atoms: C_9  and  C_10
REMARK   10  A    between atoms: C_10  and  C_11
REMARK   11  A    between atoms: C_11  and  C_12
REMARK   12  A    between atoms: C_12  and  C_13
REMARK   13  A    between atoms: C_13  and  C_14
REMARK   14  A    between atoms: C_14  and  C_15
REMARK   15  A    between atoms: C_15  and  C_16
REMARK   16  A    between atoms: C_16  and  C_17
REMARK   17  A    between atoms: C_17  and  C_18
REMARK   18  A    between atoms: N_20  and  C_21
REMARK   19  A    between atoms: C_24  and  N_25
REMARK   20  A    between atoms: N_25  and  C_26
REMARK   21  A    between atoms: N_25  and  C_27
REMARK   22  A    between atoms: N_25  and  C_28
REMARK                            x       y       z     vdW  Elec       q    Type
REMARK                         _______ _______ _______ _____ _____    ______ ____
ROOT
ATOM      1  C   UNL     1       7.576   5.753  18.616  0.00  0.00    +0.000 C 
ENDROOT
BRANCH   1   2
ATOM      2  C   UNL     1       7.481   6.562  17.325  0.00  0.00    +0.000 C 
BRANCH   2   3
ATOM      3  C   UNL     1       7.417   8.036  17.654  0.00  0.00    +0.000 C 
ATOM      4  O   UNL     1       6.387   8.671  17.539  0.00  0.00    +0.000 OA
ATOM      5  N   UNL     1       8.640   8.557  18.069  0.00  0.00    +0.000 N 
ATOM      6  H   UNL     1       9.468   7.982  17.938  0.00  0.00    +0.000 HD
BRANCH   5   7
ATOM      7  C   UNL     1       8.818   9.865  18.550  0.00  0.00    +0.000 A 
ATOM      8  C   UNL     1       9.235  10.111  19.858  0.00  0.00    +0.000 A 
ATOM      9  C   UNL     1       9.568  11.393  20.278  0.00  0.00    +0.000 A 
ATOM     10  C   UNL     1       9.608  12.435  19.349  0.00  0.00    +0.000 A 
ATOM     11  C   UNL     1       8.994  12.234  18.107  0.00  0.00    +0.000 A 
ATOM     12  C   UNL     1       8.633  10.946  17.691  0.00  0.00    +0.000 A 
BRANCH  10  13
ATOM     13  N   UNL     1      10.680  13.515  19.516  0.00  0.00    +0.000 NA
ATOM     14  C   UNL     1      12.036  12.788  19.499  0.00  0.00    +0.000 C 
ATOM     15  C   UNL     1      10.512  14.327  20.782  0.00  0.00    +0.000 C 
ATOM     16  C   UNL     1      10.674  14.484  18.328  0.00  0.00    +0.000 C 
ENDBRANCH  10  13
ENDBRANCH   5   7
ENDBRANCH   2   3
ENDBRANCH   1   2
BRANCH   1  17
ATOM     17  C   UNL     1       6.232   5.614  19.308  0.00  0.00    +0.000 C 
BRANCH  17  18
ATOM     18  C   UNL     1       5.616   4.258  18.982  0.00  0.00    +0.000 C 
BRANCH  18  19
ATOM     19  C   UNL     1       4.629   4.375  17.829  0.00  0.00    +0.000 C 
BRANCH  19  20
ATOM     20  C   UNL     1       3.962   3.036  17.558  0.00  0.00    +0.000 C 
BRANCH  20  21
ATOM     21  C   UNL     1       2.478   3.232  17.316  0.00  0.00    +0.000 C 
BRANCH  21  22
ATOM     22  C   UNL     1       1.666   2.338  18.255  0.00  0.00    +0.000 C 
BRANCH  22  23
ATOM     23  C   UNL     1       2.301   2.312  19.635  0.00  0.00    +0.000 C 
BRANCH  23  24
ATOM     24  C   UNL     1       1.337   2.839  20.673  0.00  0.00    +0.000 C 
BRANCH  24  25
ATOM     25  C   UNL     1       0.853   4.238  20.302  0.00  0.00    +0.000 C 
BRANCH  25  26
ATOM     26  C   UNL     1       1.782   5.296  20.879  0.00  0.00    +0.000 C 
BRANCH  26  27
ATOM     27  C   UNL     1       2.493   6.048  19.765  0.00  0.00    +0.000 C 
BRANCH  27  28
ATOM     28  C   UNL     1       2.091   7.518  19.767  0.00  0.00    +0.000 C 
BRANCH  28  29
ATOM     29  C   UNL     1       1.274   7.848  21.010  0.00  0.00    +0.000 C 
BRANCH  29  31
ATOM     30  C   UNL     1      -0.340   9.749  20.752  0.00  0.00    +0.000 C 
ATOM     31  C   UNL     1       1.071   9.354  21.151  0.00  0.00    +0.000 C 
ENDBRANCH  29  31
ENDBRANCH  28  29
ENDBRANCH  27  28
ENDBRANCH  26  27
ENDBRANCH  25  26
ENDBRANCH  24  25
ENDBRANCH  23  24
ENDBRANCH  22  23
ENDBRANCH  21  22
ENDBRANCH  20  21
ENDBRANCH  19  20
ENDBRANCH  18  19
ENDBRANCH  17  18
ENDBRANCH   1  17
TORSDOF 18
ENDMDL
MODEL 7
REMARK VINA RESULT:      -5.6      2.632      3.544
REMARK  Name = 
REMARK  22 active torsions:
REMARK  status: ('A' for Active; 'I' for Inactive)
REMARK    1  A    between atoms: C_1  and  C_2
REMARK    2  A    between atoms: C_2  and  C_3
REMARK    3  A    between atoms: C_3  and  C_4
REMARK    4  A    between atoms: C_4  and  C_5
REMARK    5  A    between atoms: C_5  and  C_6
REMARK    6  A    between atoms: C_6  and  C_7
REMARK    7  A    between atoms: C_7  and  C_8
REMARK    8  A    between atoms: C_8  and  C_9
REMARK    9  A    between atoms: C_9  and  C_10
REMARK   10  A    between atoms: C_10  and  C_11
REMARK   11  A    between atoms: C_11  and  C_12
REMARK   12  A    between atoms: C_12  and  C_13
REMARK   13  A    between atoms: C_13  and  C_14
REMARK   14  A    between atoms: C_14  and  C_15
REMARK   15  A    between atoms: C_15  and  C_16
REMARK   16  A    between atoms: C_16  and  C_17
REMARK   17  A    between atoms: C_17  and  C_18
REMARK   18  A    between atoms: N_20  and  C_21
REMARK   19  A    between atoms: C_24  and  N_25
REMARK   20  A    between atoms: N_25  and  C_26
REMARK   21  A    between atoms: N_25  and  C_27
REMARK   22  A    between atoms: N_25  and  C_28
REMARK                            x       y       z     vdW  Elec       q    Type
REMARK                         _______ _______ _______ _____ _____    ______ ____
ROOT
ATOM      1  C   UNL     1       1.114   8.849  22.100  0.00  0.00    +0.000 C 
ENDROOT
BRANCH   1   2
ATOM      2  C   UNL     1      -0.147   9.611  22.500  0.00  0.00    +0.000 C 
BRANCH   2   3
ATOM      3  C   UNL     1      -0.064  11.031  21.990  0.00  0.00    +0.000 C 
ATOM      4  O   UNL     1      -0.356  11.979  22.693  0.00  0.00    +0.000 OA
ATOM      5  N   UNL     1       0.353  11.112  20.664  0.00  0.00    +0.000 N 
ATOM      6  H   UNL     1       0.379  10.253  20.123  0.00  0.00    +0.000 HD
BRANCH   5   7
ATOM      7  C   UNL     1       0.631  12.317  19.997  0.00  0.00    +0.000 A 
ATOM      8  C   UNL     1      -0.305  12.919  19.156  0.00  0.00    +0.000 A 
ATOM      9  C   UNL     1      -0.091  14.187  18.631  0.00  0.00    +0.000 A 
ATOM     10  C   UNL     1       1.018  14.927  19.047  0.00  0.00    +0.000 A 
ATOM     11  C   UNL     1       2.050  14.253  19.711  0.00  0.00    +0.000 A 
ATOM     12  C   UNL     1       1.845  12.964  20.219  0.00  0.00    +0.000 A 
BRANCH  10  13
ATOM     13  N   UNL     1       0.865  16.444  19.196  0.00  0.00    +0.000 NA
ATOM     14  C   UNL     1       0.570  16.706  20.683  0.00  0.00    +0.000 C 
ATOM     15  C   UNL     1      -0.223  17.019  18.314  0.00  0.00    +0.000 C 
ATOM     16  C   UNL     1       2.175  17.164  18.861  0.00  0.00    +0.000 C 
ENDBRANCH  10  13
ENDBRANCH   5   7
ENDBRANCH   2   3
ENDBRANCH   1   2
BRANCH   1  17
ATOM     17  C   UNL     1       0.827   7.747  21.096  0.00  0.00    +0.000 C 
BRANCH  17  18
ATOM     18  C   UNL     1       1.981   7.627  20.108  0.00  0.00    +0.000 C 
BRANCH  18  19
ATOM     19  C   UNL     1       2.263   6.167  19.780  0.00  0.00    +0.000 C 
BRANCH  19  20
ATOM     20  C   UNL     1       1.887   5.274  20.951  0.00  0.00    +0.000 C 
BRANCH  20  21
ATOM     21  C   UNL     1       1.079   4.087  20.463  0.00  0.00    +0.000 C 
BRANCH  21  22
ATOM     22  C   UNL     1       1.323   3.859  18.970  0.00  0.00    +0.000 C 
BRANCH  22  23
ATOM     23  C   UNL     1       1.452   2.372  18.681  0.00  0.00    +0.000 C 
BRANCH  23  24
ATOM     24  C   UNL     1       2.796   2.067  18.060  0.00  0.00    +0.000 C 
BRANCH  24  25
ATOM     25  C   UNL     1       3.749   3.247  18.225  0.00  0.00    +0.000 C 
BRANCH  25  26
ATOM     26  C   UNL     1       4.085   3.857  16.872  0.00  0.00    +0.000 C 
BRANCH  26  27
ATOM     27  C   UNL     1       4.767   5.205  17.049  0.00  0.00    +0.000 C 
BRANCH  27  28
ATOM     28  C   UNL     1       5.583   5.561  15.812  0.00  0.00    +0.000 C 
BRANCH  28  29
ATOM     29  C   UNL     1       7.048   5.768  16.177  0.00  0.00    +0.000 C 
BRANCH  29  31
ATOM     30  C   UNL     1       7.665   7.753  17.579  0.00  0.00    +0.000 C 
ATOM     31  C   UNL     1       7.189   6.311  17.596  0.00  0.00    +0.000 C 
ENDBRANCH  29  31
ENDBRANCH  28  29
ENDBRANCH  27  28
ENDBRANCH  26  27
ENDBRANCH  25  26
ENDBRANCH  24  25
ENDBRANCH  23  24
ENDBRANCH  22  23
ENDBRANCH  21  22
ENDBRANCH  20  21
ENDBRANCH  19  20
ENDBRANCH  18  19
ENDBRANCH  17  18
ENDBRANCH   1  17
TORSDOF 18
ENDMDL
MODEL 8
REMARK VINA RESULT:      -5.6      1.510      4.167
REMARK  Name = 
REMARK  22 active torsions:
REMARK  status: ('A' for Active; 'I' for Inactive)
REMARK    1  A    between atoms: C_1  and  C_2
REMARK    2  A    between atoms: C_2  and  C_3
REMARK    3  A    between atoms: C_3  and  C_4
REMARK    4  A    between atoms: C_4  and  C_5
REMARK    5  A    between atoms: C_5  and  C_6
REMARK    6  A    between atoms: C_6  and  C_7
REMARK    7  A    between atoms: C_7  and  C_8
REMARK    8  A    between atoms: C_8  and  C_9
REMARK    9  A    between atoms: C_9  and  C_10
REMARK   10  A    between atoms: C_10  and  C_11
REMARK   11  A    between atoms: C_11  and  C_12
REMARK   12  A    between atoms: C_12  and  C_13
REMARK   13  A    between atoms: C_13  and  C_14
REMARK   14  A    between atoms: C_14  and  C_15
REMARK   15  A    between atoms: C_15  and  C_16
REMARK   16  A    between atoms: C_16  and  C_17
REMARK   17  A    between atoms: C_17  and  C_18
REMARK   18  A    between atoms: N_20  and  C_21
REMARK   19  A    between atoms: C_24  and  N_25
REMARK   20  A    between atoms: N_25  and  C_26
REMARK   21  A    between atoms: N_25  and  C_27
REMARK   22  A    between atoms: N_25  and  C_28
REMARK                            x       y       z     vdW  Elec       q    Type
REMARK                         _______ _______ _______ _____ _____    ______ ____
ROOT
ATOM      1  C   UNL     1       3.882   7.255  17.969  0.00  0.00    +0.000 C 
ENDROOT
BRANCH   1   2
ATOM      2  C   UNL     1       2.684   7.936  17.312  0.00  0.00    +0.000 C 
BRANCH   2   3
ATOM      3  C   UNL     1       1.878   8.666  18.362  0.00  0.00    +0.000 C 
ATOM      4  O   UNL     1       1.815   8.268  19.510  0.00  0.00    +0.000 OA
ATOM      5  N   UNL     1       1.230   9.794  17.867  0.00  0.00    +0.000 N 
ATOM      6  H   UNL     1       1.197   9.916  16.859  0.00  0.00    +0.000 HD
BRANCH   5   7
ATOM      7  C   UNL     1       0.523  10.712  18.663  0.00  0.00    +0.000 A 
ATOM      8  C   UNL     1      -0.865  10.661  18.777  0.00  0.00    +0.000 A 
ATOM      9  C   UNL     1      -1.543  11.460  19.690  0.00  0.00    +0.000 A 
ATOM     10  C   UNL     1      -0.818  12.238  20.596  0.00  0.00    +0.000 A 
ATOM     11  C   UNL     1       0.543  12.448  20.345  0.00  0.00    +0.000 A 
ATOM     12  C   UNL     1       1.223  11.661  19.406  0.00  0.00    +0.000 A 
BRANCH  10  13
ATOM     13  N   UNL     1      -1.379  12.415  22.011  0.00  0.00    +0.000 NA
ATOM     14  C   UNL     1      -0.895  11.203  22.825  0.00  0.00    +0.000 C 
ATOM     15  C   UNL     1      -2.889  12.525  22.040  0.00  0.00    +0.000 C 
ATOM     16  C   UNL     1      -0.801  13.667  22.678  0.00  0.00    +0.000 C 
ENDBRANCH  10  13
ENDBRANCH   5   7
ENDBRANCH   2   3
ENDBRANCH   1   2
BRANCH   1  17
ATOM     17  C   UNL     1       5.139   7.362  17.125  0.00  0.00    +0.000 C 
BRANCH  17  18
ATOM     18  C   UNL     1       4.976   6.553  15.843  0.00  0.00    +0.000 C 
BRANCH  18  19
ATOM     19  C   UNL     1       6.154   5.609  15.646  0.00  0.00    +0.000 C 
BRANCH  19  20
ATOM     20  C   UNL     1       7.263   5.923  16.636  0.00  0.00    +0.000 C 
BRANCH  20  21
ATOM     21  C   UNL     1       7.518   4.727  17.532  0.00  0.00    +0.000 C 
BRANCH  21  22
ATOM     22  C   UNL     1       6.211   3.979  17.801  0.00  0.00    +0.000 C 
BRANCH  22  23
ATOM     23  C   UNL     1       5.652   4.370  19.159  0.00  0.00    +0.000 C 
BRANCH  23  24
ATOM     24  C   UNL     1       4.262   3.807  19.343  0.00  0.00    +0.000 C 
BRANCH  24  25
ATOM     25  C   UNL     1       4.312   2.295  19.544  0.00  0.00    +0.000 C 
BRANCH  25  26
ATOM     26  C   UNL     1       3.521   1.584  18.456  0.00  0.00    +0.000 C 
BRANCH  26  27
ATOM     27  C   UNL     1       2.304   2.405  18.057  0.00  0.00    +0.000 C 
BRANCH  27  28
ATOM     28  C   UNL     1       1.119   2.082  18.958  0.00  0.00    +0.000 C 
BRANCH  28  29
ATOM     29  C   UNL     1       0.513   3.360  19.526  0.00  0.00    +0.000 C 
BRANCH  29  31
ATOM     30  C   UNL     1       1.396   2.601  21.747  0.00  0.00    +0.000 C 
ATOM     31  C   UNL     1       1.225   3.783  20.807  0.00  0.00    +0.000 C 
ENDBRANCH  29  31
ENDBRANCH  28  29
ENDBRANCH  27  28
ENDBRANCH  26  27
ENDBRANCH  25  26
ENDBRANCH  24  25
ENDBRANCH  23  24
ENDBRANCH  22  23
ENDBRANCH  21  22
ENDBRANCH  20  21
ENDBRANCH  19  20
ENDBRANCH  18  19
ENDBRANCH  17  18
ENDBRANCH   1  17
TORSDOF 18
ENDMDL
MODEL 9
REMARK VINA RESULT:      -5.6      1.480      2.204
REMARK  Name = 
REMARK  22 active torsions:
REMARK  status: ('A' for Active; 'I' for Inactive)
REMARK    1  A    between atoms: C_1  and  C_2
REMARK    2  A    between atoms: C_2  and  C_3
REMARK    3  A    between atoms: C_3  and  C_4
REMARK    4  A    between atoms: C_4  and  C_5
REMARK    5  A    between atoms: C_5  and  C_6
REMARK    6  A    between atoms: C_6  and  C_7
REMARK    7  A    between atoms: C_7  and  C_8
REMARK    8  A    between atoms: C_8  and  C_9
REMARK    9  A    between atoms: C_9  and  C_10
REMARK   10  A    between atoms: C_10  and  C_11
REMARK   11  A    between atoms: C_11  and  C_12
REMARK   12  A    between atoms: C_12  and  C_13
REMARK   13  A    between atoms: C_13  and  C_14
REMARK   14  A    between atoms: C_14  and  C_15
REMARK   15  A    between atoms: C_15  and  C_16
REMARK   16  A    between atoms: C_16  and  C_17
REMARK   17  A    between atoms: C_17  and  C_18
REMARK   18  A    between atoms: N_20  and  C_21
REMARK   19  A    between atoms: C_24  and  N_25
REMARK   20  A    between atoms: N_25  and  C_26
REMARK   21  A    between atoms: N_25  and  C_27
REMARK   22  A    between atoms: N_25  and  C_28
REMARK                            x       y       z     vdW  Elec       q    Type
REMARK                         _______ _______ _______ _____ _____    ______ ____
ROOT
ATOM      1  C   UNL     1       1.044   8.787  18.777  0.00  0.00    +0.000 C 
ENDROOT
BRANCH   1   2
ATOM      2  C   UNL     1       1.409  10.192  18.304  0.00  0.00    +0.000 C 
BRANCH   2   3
ATOM      3  C   UNL     1       0.957  11.205  19.331  0.00  0.00    +0.000 C 
ATOM      4  O   UNL     1       1.664  12.139  19.660  0.00  0.00    +0.000 OA
ATOM      5  N   UNL     1      -0.309  10.936  19.843  0.00  0.00    +0.000 N 
ATOM      6  H   UNL     1      -0.718  10.028  19.640  0.00  0.00    +0.000 HD
BRANCH   5   7
ATOM      7  C   UNL     1      -1.006  11.791  20.714  0.00  0.00    +0.000 A 
ATOM      8  C   UNL     1      -1.889  12.758  20.235  0.00  0.00    +0.000 A 
ATOM      9  C   UNL     1      -2.697  13.486  21.099  0.00  0.00    +0.000 A 
ATOM     10  C   UNL     1      -2.721  13.162  22.458  0.00  0.00    +0.000 A 
ATOM     11  C   UNL     1      -1.696  12.352  22.961  0.00  0.00    +0.000 A 
ATOM     12  C   UNL     1      -0.863  11.637  22.091  0.00  0.00    +0.000 A 
BRANCH  10  13
ATOM     13  N   UNL     1      -4.050  13.284  23.210  0.00  0.00    +0.000 NA
ATOM     14  C   UNL     1      -4.228  14.776  23.538  0.00  0.00    +0.000 C 
ATOM     15  C   UNL     1      -4.100  12.439  24.465  0.00  0.00    +0.000 C 
ATOM     16  C   UNL     1      -5.226  12.875  22.317  0.00  0.00    +0.000 C 
ENDBRANCH  10  13
ENDBRANCH   5   7
ENDBRANCH   2   3
ENDBRANCH   1   2
BRANCH   1  17
ATOM     17  C   UNL     1       2.262   7.889  18.907  0.00  0.00    +0.000 C 
BRANCH  17  18
ATOM     18  C   UNL     1       2.211   7.129  20.227  0.00  0.00    +0.000 C 
BRANCH  18  19
ATOM     19  C   UNL     1       1.818   5.676  20.000  0.00  0.00    +0.000 C 
BRANCH  19  20
ATOM     20  C   UNL     1       2.539   4.767  20.983  0.00  0.00    +0.000 C 
BRANCH  20  21
ATOM     21  C   UNL     1       2.018   3.349  20.860  0.00  0.00    +0.000 C 
BRANCH  21  22
ATOM     22  C   UNL     1       0.664   3.341  20.148  0.00  0.00    +0.000 C 
BRANCH  22  23
ATOM     23  C   UNL     1       0.777   2.619  18.815  0.00  0.00    +0.000 C 
BRANCH  23  24
ATOM     24  C   UNL     1       2.214   2.244  18.534  0.00  0.00    +0.000 C 
BRANCH  24  25
ATOM     25  C   UNL     1       2.692   2.875  17.229  0.00  0.00    +0.000 C 
BRANCH  25  26
ATOM     26  C   UNL     1       4.100   3.429  17.388  0.00  0.00    +0.000 C 
BRANCH  26  27
ATOM     27  C   UNL     1       4.086   4.949  17.329  0.00  0.00    +0.000 C 
BRANCH  27  28
ATOM     28  C   UNL     1       5.425   5.481  16.834  0.00  0.00    +0.000 C 
BRANCH  28  29
ATOM     29  C   UNL     1       5.405   5.659  15.320  0.00  0.00    +0.000 C 
BRANCH  29  31
ATOM     30  C   UNL     1       6.207   3.798  13.846  0.00  0.00    +0.000 C 
ATOM     31  C   UNL     1       6.620   5.003  14.673  0.00  0.00    +0.000 C 
ENDBRANCH  29  31
ENDBRANCH  28  29
ENDBRANCH  27  28
ENDBRANCH  26  27
ENDBRANCH  25  26
ENDBRANCH  24  25
ENDBRANCH  23  24
ENDBRANCH  22  23
ENDBRANCH  21  22
ENDBRANCH  20  21
ENDBRANCH  19  20
ENDBRANCH  18  19
ENDBRANCH  17  18
ENDBRANCH   1  17
TORSDOF 18
ENDMDL
