MODEL 1
REMARK VINA RESULT:      -7.4      0.000      0.000
REMARK  Name = 
REMARK  2 active torsions:
REMARK  status: ('A' for Active; 'I' for Inactive)
REMARK    1  A    between atoms: C_2  and  C_3
REMARK    2  A    between atoms: C_18  and  C_20
REMARK                            x       y       z     vdW  Elec       q    Type
REMARK                         _______ _______ _______ _____ _____    ______ ____
ROOT
ATOM      1  O   UNL     1       1.146  11.499  21.378  0.00  0.00    +0.000 OA
ATOM      2  C   UNL     1       0.793  12.105  20.366  0.00  0.00    +0.000 C 
ATOM      3  N   UNL     1       1.530  13.250  19.944  0.00  0.00    +0.000 N 
ATOM      4  C   UNL     1       1.332  13.995  18.691  0.00  0.00    +0.000 C 
ATOM      5  C   UNL     1       0.547  15.298  18.870  0.00  0.00    +0.000 C 
ATOM      6  C   UNL     1       1.088  16.275  19.906  0.00  0.00    +0.000 C 
ATOM      7  N   UNL     1       2.500  16.095  20.212  0.00  0.00    +0.000 N 
ATOM      8  C   UNL     1       3.426  16.835  19.448  0.00  0.00    +0.000 C 
ATOM      9  O   UNL     1       2.999  17.611  18.589  0.00  0.00    +0.000 OA
ATOM     10  C   UNL     1       2.771  15.057  21.226  0.00  0.00    +0.000 C 
ATOM     11  C   UNL     1       2.749  13.610  20.684  0.00  0.00    +0.000 C 
ENDROOT
BRANCH   2  12
ATOM     12  C   UNL     1      -0.332  11.651  19.561  0.00  0.00    +0.000 A 
ATOM     13  S   UNL     1      -1.922  12.153  19.916  0.00  0.00    +0.000 S 
ATOM     14  C   UNL     1      -2.559  11.472  18.488  0.00  0.00    +0.000 A 
ATOM     15  C   UNL     1      -3.840  11.694  17.955  0.00  0.00    +0.000 A 
ATOM     16  C   UNL     1      -4.255  10.919  16.875  0.00  0.00    +0.000 A 
ATOM     17  C   UNL     1      -3.415   9.952  16.343  0.00  0.00    +0.000 A 
ATOM     18  C   UNL     1      -2.115   9.786  16.841  0.00  0.00    +0.000 A 
ATOM     19  C   UNL     1      -1.650  10.579  17.922  0.00  0.00    +0.000 A 
ATOM     20  C   UNL     1      -0.360  10.682  18.576  0.00  0.00    +0.000 A 
ATOM     21 CL   UNL     1       0.984   9.743  18.067  0.00  0.00    +0.000 Cl
ENDBRANCH   2  12
BRANCH   8  22
ATOM     22  C   UNL     1       4.860  16.714  19.667  0.00  0.00    +0.000 A 
ATOM     23  S   UNL     1       5.652  17.593  20.893  0.00  0.00    +0.000 S 
ATOM     24  C   UNL     1       7.189  16.990  20.483  0.00  0.00    +0.000 A 
ATOM     25  C   UNL     1       8.416  17.434  21.006  0.00  0.00    +0.000 A 
ATOM     26  C   UNL     1       9.570  16.727  20.680  0.00  0.00    +0.000 A 
ATOM     27  C   UNL     1       9.502  15.610  19.860  0.00  0.00    +0.000 A 
ATOM     28  C   UNL     1       8.282  15.216  19.295  0.00  0.00    +0.000 A 
ATOM     29  C   UNL     1       7.091  15.932  19.584  0.00  0.00    +0.000 A 
ATOM     30  C   UNL     1       5.735  15.798  19.103  0.00  0.00    +0.000 A 
ATOM     31 CL   UNL     1       5.320  14.633  17.907  0.00  0.00    +0.000 Cl
ENDBRANCH   8  22
TORSDOF 2
ENDMDL
MODEL 2
REMARK VINA RESULT:      -7.2      1.247      1.557
REMARK  Name = 
REMARK  2 active torsions:
REMARK  status: ('A' for Active; 'I' for Inactive)
REMARK    1  A    between atoms: C_2  and  C_3
REMARK    2  A    between atoms: C_18  and  C_20
REMARK                            x       y       z     vdW  Elec       q    Type
REMARK                         _______ _______ _______ _____ _____    ______ ____
ROOT
ATOM      1  O   UNL     1       1.202  11.518  21.338  0.00  0.00    +0.000 OA
ATOM      2  C   UNL     1       0.852  12.066  20.293  0.00  0.00    +0.000 C 
ATOM      3  N   UNL     1       1.674  13.085  19.729  0.00  0.00    +0.000 N 
ATOM      4  C   UNL     1       1.479  13.734  18.423  0.00  0.00    +0.000 C 
ATOM      5  C   UNL     1       0.842  15.123  18.519  0.00  0.00    +0.000 C 
ATOM      6  C   UNL     1       1.540  16.125  19.430  0.00  0.00    +0.000 C 
ATOM      7  N   UNL     1       2.943  15.823  19.680  0.00  0.00    +0.000 N 
ATOM      8  C   UNL     1       3.892  16.390  18.805  0.00  0.00    +0.000 C 
ATOM      9  O   UNL     1       3.495  17.129  17.898  0.00  0.00    +0.000 OA
ATOM     10  C   UNL     1       3.167  14.855  20.771  0.00  0.00    +0.000 C 
ATOM     11  C   UNL     1       2.966  13.377  20.370  0.00  0.00    +0.000 C 
ENDROOT
BRANCH   2  12
ATOM     12  C   UNL     1      -0.359  11.666  19.591  0.00  0.00    +0.000 A 
ATOM     13  S   UNL     1      -1.885  12.258  20.070  0.00  0.00    +0.000 S 
ATOM     14  C   UNL     1      -2.675  11.597  18.710  0.00  0.00    +0.000 A 
ATOM     15  C   UNL     1      -3.983  11.882  18.282  0.00  0.00    +0.000 A 
ATOM     16  C   UNL     1      -4.527  11.119  17.253  0.00  0.00    +0.000 A 
ATOM     17  C   UNL     1      -3.787  10.102  16.668  0.00  0.00    +0.000 A 
ATOM     18  C   UNL     1      -2.461   9.871  17.058  0.00  0.00    +0.000 A 
ATOM     19  C   UNL     1      -1.866  10.650  18.084  0.00  0.00    +0.000 A 
ATOM     20  C   UNL     1      -0.522  10.689  18.627  0.00  0.00    +0.000 A 
ATOM     21 CL   UNL     1       0.723   9.673  18.022  0.00  0.00    +0.000 Cl
ENDBRANCH   2  12
BRANCH   8  22
ATOM     22  C   UNL     1       5.316  16.136  18.962  0.00  0.00    +0.000 A 
ATOM     23  S   UNL     1       6.100  14.893  18.101  0.00  0.00    +0.000 S 
ATOM     24  C   UNL     1       7.607  15.188  18.831  0.00  0.00    +0.000 A 
ATOM     25  C   UNL     1       8.755  14.386  18.708  0.00  0.00    +0.000 A 
ATOM     26  C   UNL     1       9.952  14.853  19.245  0.00  0.00    +0.000 A 
ATOM     27  C   UNL     1      10.001  16.085  19.883  0.00  0.00    +0.000 A 
ATOM     28  C   UNL     1       8.837  16.844  20.055  0.00  0.00    +0.000 A 
ATOM     29  C   UNL     1       7.596  16.383  19.545  0.00  0.00    +0.000 A 
ATOM     30  C   UNL     1       6.253  16.911  19.629  0.00  0.00    +0.000 A 
ATOM     31 CL   UNL     1       5.905  18.336  20.529  0.00  0.00    +0.000 Cl
ENDBRANCH   8  22
TORSDOF 2
ENDMDL
MODEL 3
REMARK VINA RESULT:      -7.1      1.506      1.926
REMARK  Name = 
REMARK  2 active torsions:
REMARK  status: ('A' for Active; 'I' for Inactive)
REMARK    1  A    between atoms: C_2  and  C_3
REMARK    2  A    between atoms: C_18  and  C_20
REMARK                            x       y       z     vdW  Elec       q    Type
REMARK                         _______ _______ _______ _____ _____    ______ ____
ROOT
ATOM      1  O   UNL     1       0.704  11.792  21.666  0.00  0.00    +0.000 OA
ATOM      2  C   UNL     1       0.270  12.410  20.694  0.00  0.00    +0.000 C 
ATOM      3  N   UNL     1       1.104  13.367  20.045  0.00  0.00    +0.000 N 
ATOM      4  C   UNL     1       0.797  14.081  18.796  0.00  0.00    +0.000 C 
ATOM      5  C   UNL     1       0.318  15.519  19.013  0.00  0.00    +0.000 C 
ATOM      6  C   UNL     1       1.228  16.415  19.843  0.00  0.00    +0.000 C 
ATOM      7  N   UNL     1       2.615  15.975  19.888  0.00  0.00    +0.000 N 
ATOM      8  C   UNL     1       3.487  16.484  18.903  0.00  0.00    +0.000 C 
ATOM      9  O   UNL     1       3.044  17.290  18.079  0.00  0.00    +0.000 OA
ATOM     10  C   UNL     1       2.891  14.949  20.913  0.00  0.00    +0.000 C 
ATOM     11  C   UNL     1       2.494  13.513  20.507  0.00  0.00    +0.000 C 
ENDROOT
BRANCH   2  12
ATOM     12  C   UNL     1      -1.058  12.151  20.158  0.00  0.00    +0.000 A 
ATOM     13  S   UNL     1      -2.451  12.730  20.953  0.00  0.00    +0.000 S 
ATOM     14  C   UNL     1      -3.485  12.285  19.671  0.00  0.00    +0.000 A 
ATOM     15  C   UNL     1      -4.826  12.673  19.504  0.00  0.00    +0.000 A 
ATOM     16  C   UNL     1      -5.571  12.074  18.493  0.00  0.00    +0.000 A 
ATOM     17  C   UNL     1      -4.994  11.117  17.671  0.00  0.00    +0.000 A 
ATOM     18  C   UNL     1      -3.638  10.787  17.804  0.00  0.00    +0.000 A 
ATOM     19  C   UNL     1      -2.843  11.400  18.806  0.00  0.00    +0.000 A 
ATOM     20  C   UNL     1      -1.429  11.317  19.119  0.00  0.00    +0.000 A 
ATOM     21 CL   UNL     1      -0.358  10.344  18.194  0.00  0.00    +0.000 Cl
ENDBRANCH   2  12
BRANCH   8  22
ATOM     22  C   UNL     1       4.888  16.092  18.853  0.00  0.00    +0.000 A 
ATOM     23  S   UNL     1       5.417  14.795  17.883  0.00  0.00    +0.000 S 
ATOM     24  C   UNL     1       7.034  14.931  18.392  0.00  0.00    +0.000 A 
ATOM     25  C   UNL     1       8.070  14.026  18.102  0.00  0.00    +0.000 A 
ATOM     26  C   UNL     1       9.370  14.367  18.465  0.00  0.00    +0.000 A 
ATOM     27  C   UNL     1       9.629  15.575  19.096  0.00  0.00    +0.000 A 
ATOM     28  C   UNL     1       8.580  16.439  19.436  0.00  0.00    +0.000 A 
ATOM     29  C   UNL     1       7.240  16.109  19.106  0.00  0.00    +0.000 A 
ATOM     30  C   UNL     1       5.981  16.761  19.384  0.00  0.00    +0.000 A 
ATOM     31 CL   UNL     1       5.904  18.195  20.332  0.00  0.00    +0.000 Cl
ENDBRANCH   8  22
TORSDOF 2
ENDMDL
MODEL 4
REMARK VINA RESULT:      -6.8      1.259      1.574
REMARK  Name = 
REMARK  2 active torsions:
REMARK  status: ('A' for Active; 'I' for Inactive)
REMARK    1  A    between atoms: C_2  and  C_3
REMARK    2  A    between atoms: C_18  and  C_20
REMARK                            x       y       z     vdW  Elec       q    Type
REMARK                         _______ _______ _______ _____ _____    ______ ____
ROOT
ATOM      1  O   UNL     1       1.183  11.384  21.236  0.00  0.00    +0.000 OA
ATOM      2  C   UNL     1       0.770  12.063  20.295  0.00  0.00    +0.000 C 
ATOM      3  N   UNL     1       1.420  13.292  19.982  0.00  0.00    +0.000 N 
ATOM      4  C   UNL     1       1.149  14.145  18.814  0.00  0.00    +0.000 C 
ATOM      5  C   UNL     1       0.282  15.366  19.134  0.00  0.00    +0.000 C 
ATOM      6  C   UNL     1       0.777  16.269  20.257  0.00  0.00    +0.000 C 
ATOM      7  N   UNL     1       2.204  16.156  20.525  0.00  0.00    +0.000 N 
ATOM      8  C   UNL     1       3.064  17.030  19.828  0.00  0.00    +0.000 C 
ATOM      9  O   UNL     1       2.568  17.858  19.057  0.00  0.00    +0.000 OA
ATOM     10  C   UNL     1       2.564  15.042  21.424  0.00  0.00    +0.000 C 
ATOM     11  C   UNL     1       2.628  13.659  20.739  0.00  0.00    +0.000 C 
ENDROOT
BRANCH   2  12
ATOM     12  C   UNL     1      -0.338  11.617  19.463  0.00  0.00    +0.000 A 
ATOM     13  S   UNL     1      -1.933  12.132  19.777  0.00  0.00    +0.000 S 
ATOM     14  C   UNL     1      -2.538  11.454  18.334  0.00  0.00    +0.000 A 
ATOM     15  C   UNL     1      -3.804  11.685  17.768  0.00  0.00    +0.000 A 
ATOM     16  C   UNL     1      -4.198  10.911  16.680  0.00  0.00    +0.000 A 
ATOM     17  C   UNL     1      -3.352   9.936  16.171  0.00  0.00    +0.000 A 
ATOM     18  C   UNL     1      -2.067   9.760  16.702  0.00  0.00    +0.000 A 
ATOM     19  C   UNL     1      -1.623  10.552  17.793  0.00  0.00    +0.000 A 
ATOM     20  C   UNL     1      -0.349  10.646  18.479  0.00  0.00    +0.000 A 
ATOM     21 CL   UNL     1       1.000   9.695  18.005  0.00  0.00    +0.000 Cl
ENDBRANCH   2  12
BRANCH   8  22
ATOM     22  C   UNL     1       4.507  16.985  20.015  0.00  0.00    +0.000 A 
ATOM     23  S   UNL     1       5.540  16.349  18.819  0.00  0.00    +0.000 S 
ATOM     24  C   UNL     1       6.942  16.582  19.754  0.00  0.00    +0.000 A 
ATOM     25  C   UNL     1       8.229  16.109  19.442  0.00  0.00    +0.000 A 
ATOM     26  C   UNL     1       9.297  16.520  20.236  0.00  0.00    +0.000 A 
ATOM     27  C   UNL     1       9.087  17.379  21.305  0.00  0.00    +0.000 A 
ATOM     28  C   UNL     1       7.791  17.791  21.643  0.00  0.00    +0.000 A 
ATOM     29  C   UNL     1       6.678  17.367  20.872  0.00  0.00    +0.000 A 
ATOM     30  C   UNL     1       5.256  17.576  21.022  0.00  0.00    +0.000 A 
ATOM     31 CL   UNL     1       4.612  18.433  22.367  0.00  0.00    +0.000 Cl
ENDBRANCH   8  22
TORSDOF 2
ENDMDL
MODEL 5
REMARK VINA RESULT:      -6.8      1.977      2.534
REMARK  Name = 
REMARK  2 active torsions:
REMARK  status: ('A' for Active; 'I' for Inactive)
REMARK    1  A    between atoms: C_2  and  C_3
REMARK    2  A    between atoms: C_18  and  C_20
REMARK                            x       y       z     vdW  Elec       q    Type
REMARK                         _______ _______ _______ _____ _____    ______ ____
ROOT
ATOM      1  O   UNL     1       0.551  11.530  21.121  0.00  0.00    +0.000 OA
ATOM      2  C   UNL     1       0.105  12.316  20.285  0.00  0.00    +0.000 C 
ATOM      3  N   UNL     1       0.948  13.347  19.776  0.00  0.00    +0.000 N 
ATOM      4  C   UNL     1       0.622  14.271  18.678  0.00  0.00    +0.000 C 
ATOM      5  C   UNL     1       0.200  15.663  19.155  0.00  0.00    +0.000 C 
ATOM      6  C   UNL     1       1.167  16.380  20.087  0.00  0.00    +0.000 C 
ATOM      7  N   UNL     1       2.540  15.901  20.002  0.00  0.00    +0.000 N 
ATOM      8  C   UNL     1       3.395  16.546  19.084  0.00  0.00    +0.000 C 
ATOM      9  O   UNL     1       2.951  17.492  18.427  0.00  0.00    +0.000 OA
ATOM     10  C   UNL     1       2.815  14.708  20.827  0.00  0.00    +0.000 C 
ATOM     11  C   UNL     1       2.356  13.374  20.200  0.00  0.00    +0.000 C 
ENDROOT
BRANCH   2  12
ATOM     12  C   UNL     1      -1.249  12.189  19.766  0.00  0.00    +0.000 A 
ATOM     13  S   UNL     1      -1.544  11.451  18.258  0.00  0.00    +0.000 S 
ATOM     14  C   UNL     1      -3.235  11.451  18.479  0.00  0.00    +0.000 A 
ATOM     15  C   UNL     1      -4.180  10.757  17.704  0.00  0.00    +0.000 A 
ATOM     16  C   UNL     1      -5.532  11.011  17.918  0.00  0.00    +0.000 A 
ATOM     17  C   UNL     1      -5.928  11.930  18.879  0.00  0.00    +0.000 A 
ATOM     18  C   UNL     1      -4.979  12.567  19.691  0.00  0.00    +0.000 A 
ATOM     19  C   UNL     1      -3.594  12.308  19.518  0.00  0.00    +0.000 A 
ATOM     20  C   UNL     1      -2.420  12.748  20.246  0.00  0.00    +0.000 A 
ATOM     21 CL   UNL     1      -2.542  13.774  21.617  0.00  0.00    +0.000 Cl
ENDBRANCH   2  12
BRANCH   8  22
ATOM     22  C   UNL     1       4.779  16.130  18.914  0.00  0.00    +0.000 A 
ATOM     23  S   UNL     1       5.208  14.881  17.837  0.00  0.00    +0.000 S 
ATOM     24  C   UNL     1       6.859  14.955  18.238  0.00  0.00    +0.000 A 
ATOM     25  C   UNL     1       7.850  14.048  17.825  0.00  0.00    +0.000 A 
ATOM     26  C   UNL     1       9.180  14.341  18.114  0.00  0.00    +0.000 A 
ATOM     27  C   UNL     1       9.511  15.507  18.791  0.00  0.00    +0.000 A 
ATOM     28  C   UNL     1       8.509  16.370  19.252  0.00  0.00    +0.000 A 
ATOM     29  C   UNL     1       7.143  16.086  19.000  0.00  0.00    +0.000 A 
ATOM     30  C   UNL     1       5.921  16.746  19.402  0.00  0.00    +0.000 A 
ATOM     31 CL   UNL     1       5.945  18.124  20.431  0.00  0.00    +0.000 Cl
ENDBRANCH   8  22
TORSDOF 2
ENDMDL
MODEL 6
REMARK VINA RESULT:      -6.7      1.500      9.568
REMARK  Name = 
REMARK  2 active torsions:
REMARK  status: ('A' for Active; 'I' for Inactive)
REMARK    1  A    between atoms: C_2  and  C_3
REMARK    2  A    between atoms: C_18  and  C_20
REMARK                            x       y       z     vdW  Elec       q    Type
REMARK                         _______ _______ _______ _____ _____    ______ ____
ROOT
ATOM      1  O   UNL     1       3.341  17.065  17.799  0.00  0.00    +0.000 OA
ATOM      2  C   UNL     1       3.766  16.367  18.719  0.00  0.00    +0.000 C 
ATOM      3  N   UNL     1       2.934  15.346  19.265  0.00  0.00    +0.000 N 
ATOM      4  C   UNL     1       3.335  14.338  20.258  0.00  0.00    +0.000 C 
ATOM      5  C   UNL     1       2.868  14.660  21.681  0.00  0.00    +0.000 C 
ATOM      6  C   UNL     1       1.377  14.914  21.860  0.00  0.00    +0.000 C 
ATOM      7  N   UNL     1       0.545  14.340  20.812  0.00  0.00    +0.000 N 
ATOM      8  C   UNL     1       0.057  13.033  21.017  0.00  0.00    +0.000 C 
ATOM      9  O   UNL     1       0.330  12.459  22.075  0.00  0.00    +0.000 OA
ATOM     10  C   UNL     1       0.423  15.185  19.607  0.00  0.00    +0.000 C 
ATOM     11  C   UNL     1       1.624  15.102  18.640  0.00  0.00    +0.000 C 
ENDROOT
BRANCH   2  12
ATOM     12  C   UNL     1       5.120  16.524  19.232  0.00  0.00    +0.000 A 
ATOM     13  S   UNL     1       5.510  17.797  20.297  0.00  0.00    +0.000 S 
ATOM     14  C   UNL     1       7.069  17.181  20.615  0.00  0.00    +0.000 A 
ATOM     15  C   UNL     1       7.942  17.601  21.633  0.00  0.00    +0.000 A 
ATOM     16  C   UNL     1       9.245  17.110  21.637  0.00  0.00    +0.000 A 
ATOM     17  C   UNL     1       9.662  16.225  20.654  0.00  0.00    +0.000 A 
ATOM     18  C   UNL     1       8.763  15.762  19.683  0.00  0.00    +0.000 A 
ATOM     19  C   UNL     1       7.420  16.221  19.668  0.00  0.00    +0.000 A 
ATOM     20  C   UNL     1       6.275  15.865  18.854  0.00  0.00    +0.000 A 
ATOM     21 CL   UNL     1       6.379  14.665  17.629  0.00  0.00    +0.000 Cl
ENDBRANCH   2  12
BRANCH   8  22
ATOM     22  C   UNL     1      -0.769  12.367  20.021  0.00  0.00    +0.000 A 
ATOM     23  S   UNL     1      -0.186  11.042  19.122  0.00  0.00    +0.000 S 
ATOM     24  C   UNL     1      -1.615  10.893  18.210  0.00  0.00    +0.000 A 
ATOM     25  C   UNL     1      -1.799  10.056  17.096  0.00  0.00    +0.000 A 
ATOM     26  C   UNL     1      -3.078   9.938  16.559  0.00  0.00    +0.000 A 
ATOM     27  C   UNL     1      -4.141  10.630  17.120  0.00  0.00    +0.000 A 
ATOM     28  C   UNL     1      -3.932  11.510  18.190  0.00  0.00    +0.000 A 
ATOM     29  C   UNL     1      -2.636  11.675  18.742  0.00  0.00    +0.000 A 
ATOM     30  C   UNL     1      -2.124  12.542  19.780  0.00  0.00    +0.000 A 
ATOM     31 CL   UNL     1      -3.133  13.694  20.564  0.00  0.00    +0.000 Cl
ENDBRANCH   8  22
TORSDOF 2
ENDMDL
MODEL 7
REMARK VINA RESULT:      -6.7      1.429      9.571
REMARK  Name = 
REMARK  2 active torsions:
REMARK  status: ('A' for Active; 'I' for Inactive)
REMARK    1  A    between atoms: C_2  and  C_3
REMARK    2  A    between atoms: C_18  and  C_20
REMARK                            x       y       z     vdW  Elec       q    Type
REMARK                         _______ _______ _______ _____ _____    ______ ____
ROOT
ATOM      1  O   UNL     1       3.428  16.635  17.318  0.00  0.00    +0.000 OA
ATOM      2  C   UNL     1       3.913  15.892  18.171  0.00  0.00    +0.000 C 
ATOM      3  N   UNL     1       3.090  14.910  18.794  0.00  0.00    +0.000 N 
ATOM      4  C   UNL     1       3.540  13.858  19.718  0.00  0.00    +0.000 C 
ATOM      5  C   UNL     1       3.260  14.174  21.190  0.00  0.00    +0.000 C 
ATOM      6  C   UNL     1       1.818  14.510  21.545  0.00  0.00    +0.000 C 
ATOM      7  N   UNL     1       0.838  14.009  20.591  0.00  0.00    +0.000 N 
ATOM      8  C   UNL     1       0.299  12.728  20.831  0.00  0.00    +0.000 C 
ATOM      9  O   UNL     1       0.657  12.115  21.841  0.00  0.00    +0.000 OA
ATOM     10  C   UNL     1       0.629  14.886  19.422  0.00  0.00    +0.000 C 
ATOM     11  C   UNL     1       1.704  14.755  18.321  0.00  0.00    +0.000 C 
ENDROOT
BRANCH   2  12
ATOM     12  C   UNL     1       5.324  15.960  18.526  0.00  0.00    +0.000 A 
ATOM     13  S   UNL     1       6.454  14.888  17.833  0.00  0.00    +0.000 S 
ATOM     14  C   UNL     1       7.790  15.717  18.494  0.00  0.00    +0.000 A 
ATOM     15  C   UNL     1       9.141  15.535  18.150  0.00  0.00    +0.000 A 
ATOM     16  C   UNL     1      10.114  16.171  18.916  0.00  0.00    +0.000 A 
ATOM     17  C   UNL     1       9.749  16.966  19.993  0.00  0.00    +0.000 A 
ATOM     18  C   UNL     1       8.397  17.193  20.285  0.00  0.00    +0.000 A 
ATOM     19  C   UNL     1       7.379  16.582  19.506  0.00  0.00    +0.000 A 
ATOM     20  C   UNL     1       5.934  16.696  19.525  0.00  0.00    +0.000 A 
ATOM     21 CL   UNL     1       5.126  17.733  20.630  0.00  0.00    +0.000 Cl
ENDBRANCH   2  12
BRANCH   8  22
ATOM     22  C   UNL     1      -0.674  12.132  19.927  0.00  0.00    +0.000 A 
ATOM     23  S   UNL     1      -2.278  12.701  19.845  0.00  0.00    +0.000 S 
ATOM     24  C   UNL     1      -2.747  11.537  18.697  0.00  0.00    +0.000 A 
ATOM     25  C   UNL     1      -4.060  11.293  18.259  0.00  0.00    +0.000 A 
ATOM     26  C   UNL     1      -4.253  10.411  17.199  0.00  0.00    +0.000 A 
ATOM     27  C   UNL     1      -3.168   9.794  16.594  0.00  0.00    +0.000 A 
ATOM     28  C   UNL     1      -1.870   9.997  17.082  0.00  0.00    +0.000 A 
ATOM     29  C   UNL     1      -1.643  10.868  18.178  0.00  0.00    +0.000 A 
ATOM     30  C   UNL     1      -0.449  11.209  18.918  0.00  0.00    +0.000 A 
ATOM     31 CL   UNL     1       1.064  10.468  18.569  0.00  0.00    +0.000 Cl
ENDBRANCH   8  22
TORSDOF 2
ENDMDL
MODEL 8
REMARK VINA RESULT:      -6.7      4.509      7.043
REMARK  Name = 
REMARK  2 active torsions:
REMARK  status: ('A' for Active; 'I' for Inactive)
REMARK    1  A    between atoms: C_2  and  C_3
REMARK    2  A    between atoms: C_18  and  C_20
REMARK                            x       y       z     vdW  Elec       q    Type
REMARK                         _______ _______ _______ _____ _____    ______ ____
ROOT
ATOM      1  O   UNL     1       1.691   7.781  21.669  0.00  0.00    +0.000 OA
ATOM      2  C   UNL     1       1.720   8.030  20.463  0.00  0.00    +0.000 C 
ATOM      3  N   UNL     1       1.230   9.284  19.996  0.00  0.00    +0.000 N 
ATOM      4  C   UNL     1       1.323   9.794  18.619  0.00  0.00    +0.000 C 
ATOM      5  C   UNL     1       0.021   9.657  17.826  0.00  0.00    +0.000 C 
ATOM      6  C   UNL     1      -1.223  10.268  18.459  0.00  0.00    +0.000 C 
ATOM      7  N   UNL     1      -0.942  11.306  19.441  0.00  0.00    +0.000 N 
ATOM      8  C   UNL     1      -0.874  12.635  18.975  0.00  0.00    +0.000 C 
ATOM      9  O   UNL     1      -1.083  12.854  17.778  0.00  0.00    +0.000 OA
ATOM     10  C   UNL     1      -0.650  10.794  20.794  0.00  0.00    +0.000 C 
ATOM     11  C   UNL     1       0.794  10.279  20.988  0.00  0.00    +0.000 C 
ENDROOT
BRANCH   2  12
ATOM     12  C   UNL     1       2.288   7.092  19.506  0.00  0.00    +0.000 A 
ATOM     13  S   UNL     1       3.122   7.646  18.126  0.00  0.00    +0.000 S 
ATOM     14  C   UNL     1       3.658   6.083  17.703  0.00  0.00    +0.000 A 
ATOM     15  C   UNL     1       4.639   5.765  16.748  0.00  0.00    +0.000 A 
ATOM     16  C   UNL     1       4.826   4.429  16.406  0.00  0.00    +0.000 A 
ATOM     17  C   UNL     1       4.057   3.439  17.000  0.00  0.00    +0.000 A 
ATOM     18  C   UNL     1       3.129   3.763  17.999  0.00  0.00    +0.000 A 
ATOM     19  C   UNL     1       2.934   5.112  18.392  0.00  0.00    +0.000 A 
ATOM     20  C   UNL     1       2.122   5.721  19.428  0.00  0.00    +0.000 A 
ATOM     21 CL   UNL     1       1.152   4.776  20.484  0.00  0.00    +0.000 Cl
ENDBRANCH   2  12
BRANCH   8  22
ATOM     22  C   UNL     1      -0.583  13.741  19.875  0.00  0.00    +0.000 A 
ATOM     23  S   UNL     1      -1.822  14.563  20.707  0.00  0.00    +0.000 S 
ATOM     24  C   UNL     1      -0.751  15.664  21.437  0.00  0.00    +0.000 A 
ATOM     25  C   UNL     1      -1.115  16.800  22.180  0.00  0.00    +0.000 A 
ATOM     26  C   UNL     1      -0.116  17.509  22.841  0.00  0.00    +0.000 A 
ATOM     27  C   UNL     1       1.206  17.094  22.766  0.00  0.00    +0.000 A 
ATOM     28  C   UNL     1       1.564  15.998  21.970  0.00  0.00    +0.000 A 
ATOM     29  C   UNL     1       0.573  15.271  21.261  0.00  0.00    +0.000 A 
ATOM     30  C   UNL     1       0.655  14.165  20.333  0.00  0.00    +0.000 A 
ATOM     31 CL   UNL     1       2.172  13.518  19.843  0.00  0.00    +0.000 Cl
ENDBRANCH   8  22
TORSDOF 2
ENDMDL
MODEL 9
REMARK VINA RESULT:      -6.6      0.950      9.418
REMARK  Name = 
REMARK  2 active torsions:
REMARK  status: ('A' for Active; 'I' for Inactive)
REMARK    1  A    between atoms: C_2  and  C_3
REMARK    2  A    between atoms: C_18  and  C_20
REMARK                            x       y       z     vdW  Elec       q    Type
REMARK                         _______ _______ _______ _____ _____    ______ ____
ROOT
ATOM      1  O   UNL     1       3.336  16.943  17.730  0.00  0.00    +0.000 OA
ATOM      2  C   UNL     1       3.761  16.259  18.661  0.00  0.00    +0.000 C 
ATOM      3  N   UNL     1       2.916  15.272  19.247  0.00  0.00    +0.000 N 
ATOM      4  C   UNL     1       3.311  14.281  20.260  0.00  0.00    +0.000 C 
ATOM      5  C   UNL     1       2.875  14.649  21.681  0.00  0.00    +0.000 C 
ATOM      6  C   UNL     1       1.393  14.941  21.877  0.00  0.00    +0.000 C 
ATOM      7  N   UNL     1       0.532  14.358  20.857  0.00  0.00    +0.000 N 
ATOM      8  C   UNL     1       0.019  13.068  21.104  0.00  0.00    +0.000 C 
ATOM      9  O   UNL     1       0.297  12.515  22.172  0.00  0.00    +0.000 OA
ATOM     10  C   UNL     1       0.408  15.174  19.633  0.00  0.00    +0.000 C 
ATOM     11  C   UNL     1       1.591  15.040  18.649  0.00  0.00    +0.000 C 
ENDROOT
BRANCH   2  12
ATOM     12  C   UNL     1       5.126  16.400  19.149  0.00  0.00    +0.000 A 
ATOM     13  S   UNL     1       5.560  17.690  20.176  0.00  0.00    +0.000 S 
ATOM     14  C   UNL     1       7.110  17.049  20.484  0.00  0.00    +0.000 A 
ATOM     15  C   UNL     1       8.009  17.475  21.478  0.00  0.00    +0.000 A 
ATOM     16  C   UNL     1       9.301  16.956  21.473  0.00  0.00    +0.000 A 
ATOM     17  C   UNL     1       9.684  16.039  20.505  0.00  0.00    +0.000 A 
ATOM     18  C   UNL     1       8.760  15.573  19.560  0.00  0.00    +0.000 A 
ATOM     19  C   UNL     1       7.426  16.059  19.555  0.00  0.00    +0.000 A 
ATOM     20  C   UNL     1       6.261  15.708  18.768  0.00  0.00    +0.000 A 
ATOM     21 CL   UNL     1       6.320  14.478  17.571  0.00  0.00    +0.000 Cl
ENDBRANCH   2  12
BRANCH   8  22
ATOM     22  C   UNL     1      -0.837  12.394  20.139  0.00  0.00    +0.000 A 
ATOM     23  S   UNL     1      -2.452  12.877  19.891  0.00  0.00    +0.000 S 
ATOM     24  C   UNL     1      -2.757  11.653  18.750  0.00  0.00    +0.000 A 
ATOM     25  C   UNL     1      -4.011  11.328  18.204  0.00  0.00    +0.000 A 
ATOM     26  C   UNL     1      -4.063  10.402  17.165  0.00  0.00    +0.000 A 
ATOM     27  C   UNL     1      -2.898   9.822  16.684  0.00  0.00    +0.000 A 
ATOM     28  C   UNL     1      -1.662  10.108  17.279  0.00  0.00    +0.000 A 
ATOM     29  C   UNL     1      -1.578  11.024  18.358  0.00  0.00    +0.000 A 
ATOM     30  C   UNL     1      -0.475  11.451  19.189  0.00  0.00    +0.000 A 
ATOM     31 CL   UNL     1       1.097  10.777  19.006  0.00  0.00    +0.000 Cl
ENDBRANCH   8  22
TORSDOF 2
ENDMDL
