MODEL 1
REMARK VINA RESULT:      -7.7      0.000      0.000
REMARK  Name = 
REMARK  9 active torsions:
REMARK  status: ('A' for Active; 'I' for Inactive)
REMARK    1  A    between atoms: C_1  and  C_2
REMARK    2  A    between atoms: C_2  and  O_3
REMARK    3  A    between atoms: O_3  and  N_4
REMARK    4  A    between atoms: N_7  and  C_8
REMARK    5  A    between atoms: C_17  and  C_18
REMARK    6  A    between atoms: C_18  and  O_20
REMARK    7  A    between atoms: N_22  and  C_23
REMARK    8  A    between atoms: C_27  and  C_28
REMARK    9  A    between atoms: C_28  and  N_29
REMARK                            x       y       z     vdW  Elec       q    Type
REMARK                         _______ _______ _______ _____ _____    ______ ____
ROOT
ATOM      1  C   UNL     1       1.746   8.037  19.744  0.00  0.00    +0.000 A 
ATOM      2  N   UNL     1       2.571   7.444  18.843  0.00  0.00    +0.000 NA
ATOM      3  C   UNL     1       2.866   6.122  18.971  0.00  0.00    +0.000 A 
ATOM      4  C   UNL     1       2.369   5.366  20.037  0.00  0.00    +0.000 A 
ATOM      5  C   UNL     1       1.515   5.959  20.962  0.00  0.00    +0.000 A 
ATOM      6  C   UNL     1       1.192   7.295  20.797  0.00  0.00    +0.000 A 
ATOM      7  F   UNL     1       0.360   7.862  21.685  0.00  0.00    +0.000 F 
ATOM      8  C   UNL     1       2.775   3.953  20.192  0.00  0.00    +0.000 A 
ATOM      9  O   UNL     1       2.369   3.272  21.132  0.00  0.00    +0.000 OA
ATOM     10  C   UNL     1       3.714   3.373  19.207  0.00  0.00    +0.000 A 
ATOM     11  C   UNL     1       4.108   4.169  18.201  0.00  0.00    +0.000 A 
ATOM     12  N   UNL     1       3.705   5.480  18.014  0.00  0.00    +0.000 N 
ENDROOT
BRANCH   1  16
ATOM     13  N   UNL     1      -0.887  11.221  18.162  0.00  0.00    +0.000 NA
ATOM     14  C   UNL     1       0.054  10.630  18.811  0.00  0.00    +0.000 C 
ATOM     15  C   UNL     1       1.389  10.129  18.347  0.00  0.00    +0.000 C 
ATOM     16  N   UNL     1       1.466   9.420  19.615  0.00  0.00    +0.000 N 
ATOM     17  C   UNL     1       0.285  10.089  20.199  0.00  0.00    +0.000 C 
BRANCH  13  18
ATOM     18  O   UNL     1      -1.991  11.444  18.995  0.00  0.00    +0.000 OA
BRANCH  18  20
ATOM     19  C   UNL     1      -3.356  10.043  17.593  0.00  0.00    +0.000 C 
ATOM     20  C   UNL     1      -3.161  11.429  18.171  0.00  0.00    +0.000 C 
ENDBRANCH  18  20
ENDBRANCH  13  18
BRANCH  17  21
ATOM     21  C   UNL     1       0.670  11.161  21.225  0.00  0.00    +0.000 C 
BRANCH  21  22
ATOM     22  N   UNL     1       0.007  10.991  22.522  0.00  0.00    +0.000 NA
ATOM     23  H   UNL     1      -0.953  11.324  22.463  0.00  0.00    +0.000 HD
ATOM     24  H   UNL     1      -0.041  10.002  22.758  0.00  0.00    +0.000 HD
ENDBRANCH  21  22
ENDBRANCH  17  21
ENDBRANCH   1  16
BRANCH  12  25
ATOM     25  C   UNL     1       4.325   6.297  16.955  0.00  0.00    +0.000 C 
ATOM     26  C   UNL     1       5.371   5.697  16.042  0.00  0.00    +0.000 C 
ATOM     27  C   UNL     1       5.740   6.803  16.970  0.00  0.00    +0.000 C 
ATOM     28  F   UNL     1       6.552   6.481  18.041  0.00  0.00    +0.000 F 
ENDBRANCH  12  25
BRANCH  10  29
ATOM     29  C   UNL     1       4.237   1.993  19.289  0.00  0.00    +0.000 C 
ATOM     30  O   UNL     1       3.902   1.102  18.524  0.00  0.00    +0.000 OA
BRANCH  29  31
ATOM     31  O   UNL     1       5.141   1.793  20.273  0.00  0.00    +0.000 OA
ATOM     32  H   UNL     1       4.946   2.275  21.114  0.00  0.00    +0.000 HD
ENDBRANCH  29  31
ENDBRANCH  10  29
TORSDOF 8
ENDMDL
MODEL 2
REMARK VINA RESULT:      -7.7      2.619      4.139
REMARK  Name = 
REMARK  9 active torsions:
REMARK  status: ('A' for Active; 'I' for Inactive)
REMARK    1  A    between atoms: C_1  and  C_2
REMARK    2  A    between atoms: C_2  and  O_3
REMARK    3  A    between atoms: O_3  and  N_4
REMARK    4  A    between atoms: N_7  and  C_8
REMARK    5  A    between atoms: C_17  and  C_18
REMARK    6  A    between atoms: C_18  and  O_20
REMARK    7  A    between atoms: N_22  and  C_23
REMARK    8  A    between atoms: C_27  and  C_28
REMARK    9  A    between atoms: C_28  and  N_29
REMARK                            x       y       z     vdW  Elec       q    Type
REMARK                         _______ _______ _______ _____ _____    ______ ____
ROOT
ATOM      1  C   UNL     1       1.150   8.528  19.564  0.00  0.00    +0.000 A 
ATOM      2  N   UNL     1       1.565   7.315  20.010  0.00  0.00    +0.000 NA
ATOM      3  C   UNL     1       2.590   6.681  19.377  0.00  0.00    +0.000 A 
ATOM      4  C   UNL     1       3.201   7.236  18.249  0.00  0.00    +0.000 A 
ATOM      5  C   UNL     1       2.792   8.483  17.788  0.00  0.00    +0.000 A 
ATOM      6  C   UNL     1       1.776   9.134  18.465  0.00  0.00    +0.000 A 
ATOM      7  F   UNL     1       1.389  10.342  18.024  0.00  0.00    +0.000 F 
ATOM      8  C   UNL     1       4.256   6.484  17.537  0.00  0.00    +0.000 A 
ATOM      9  O   UNL     1       4.797   6.940  16.530  0.00  0.00    +0.000 OA
ATOM     10  C   UNL     1       4.634   5.146  18.039  0.00  0.00    +0.000 A 
ATOM     11  C   UNL     1       4.014   4.715  19.148  0.00  0.00    +0.000 A 
ATOM     12  N   UNL     1       3.056   5.421  19.854  0.00  0.00    +0.000 N 
ENDROOT
BRANCH   1  16
ATOM     13  N   UNL     1      -0.312  10.939  22.974  0.00  0.00    +0.000 NA
ATOM     14  C   UNL     1      -0.283  10.309  21.852  0.00  0.00    +0.000 C 
ATOM     15  C   UNL     1      -0.395   8.842  21.558  0.00  0.00    +0.000 C 
ATOM     16  N   UNL     1       0.066   9.167  20.216  0.00  0.00    +0.000 N 
ATOM     17  C   UNL     1      -0.054  10.628  20.397  0.00  0.00    +0.000 C 
BRANCH  13  18
ATOM     18  O   UNL     1      -0.097  12.309  22.772  0.00  0.00    +0.000 OA
BRANCH  18  20
ATOM     19  C   UNL     1      -1.106  14.325  23.615  0.00  0.00    +0.000 C 
ATOM     20  C   UNL     1      -1.348  12.973  22.976  0.00  0.00    +0.000 C 
ENDBRANCH  18  20
ENDBRANCH  13  18
BRANCH  17  21
ATOM     21  C   UNL     1      -1.285  11.204  19.689  0.00  0.00    +0.000 C 
BRANCH  21  22
ATOM     22  N   UNL     1      -0.990  12.394  18.883  0.00  0.00    +0.000 NA
ATOM     23  H   UNL     1      -1.512  12.355  18.010  0.00  0.00    +0.000 HD
ATOM     24  H   UNL     1      -1.303  13.229  19.373  0.00  0.00    +0.000 HD
ENDBRANCH  21  22
ENDBRANCH  17  21
ENDBRANCH   1  16
BRANCH  12  25
ATOM     25  C   UNL     1       2.339   4.778  20.970  0.00  0.00    +0.000 C 
ATOM     26  C   UNL     1       2.492   3.293  21.220  0.00  0.00    +0.000 C 
ATOM     27  C   UNL     1       1.167   3.848  20.825  0.00  0.00    +0.000 C 
ATOM     28  F   UNL     1       0.711   3.544  19.556  0.00  0.00    +0.000 F 
ENDBRANCH  12  25
BRANCH  10  29
ATOM     29  C   UNL     1       5.631   4.275  17.380  0.00  0.00    +0.000 C 
ATOM     30  O   UNL     1       5.443   3.737  16.300  0.00  0.00    +0.000 OA
BRANCH  29  31
ATOM     31  O   UNL     1       6.789   4.132  18.062  0.00  0.00    +0.000 OA
ATOM     32  H   UNL     1       7.354   4.943  18.086  0.00  0.00    +0.000 HD
ENDBRANCH  29  31
ENDBRANCH  10  29
TORSDOF 8
ENDMDL
MODEL 3
REMARK VINA RESULT:      -7.6      0.790      1.084
REMARK  Name = 
REMARK  9 active torsions:
REMARK  status: ('A' for Active; 'I' for Inactive)
REMARK    1  A    between atoms: C_1  and  C_2
REMARK    2  A    between atoms: C_2  and  O_3
REMARK    3  A    between atoms: O_3  and  N_4
REMARK    4  A    between atoms: N_7  and  C_8
REMARK    5  A    between atoms: C_17  and  C_18
REMARK    6  A    between atoms: C_18  and  O_20
REMARK    7  A    between atoms: N_22  and  C_23
REMARK    8  A    between atoms: C_27  and  C_28
REMARK    9  A    between atoms: C_28  and  N_29
REMARK                            x       y       z     vdW  Elec       q    Type
REMARK                         _______ _______ _______ _____ _____    ______ ____
ROOT
ATOM      1  C   UNL     1       1.882   7.718  19.554  0.00  0.00    +0.000 A 
ATOM      2  N   UNL     1       2.745   7.094  18.712  0.00  0.00    +0.000 NA
ATOM      3  C   UNL     1       3.079   5.794  18.935  0.00  0.00    +0.000 A 
ATOM      4  C   UNL     1       2.581   5.094  20.039  0.00  0.00    +0.000 A 
ATOM      5  C   UNL     1       1.688   5.720  20.904  0.00  0.00    +0.000 A 
ATOM      6  C   UNL     1       1.326   7.030  20.642  0.00  0.00    +0.000 A 
ATOM      7  F   UNL     1       0.457   7.627  21.473  0.00  0.00    +0.000 F 
ATOM      8  C   UNL     1       3.027   3.709  20.298  0.00  0.00    +0.000 A 
ATOM      9  O   UNL     1       2.620   3.079  21.272  0.00  0.00    +0.000 OA
ATOM     10  C   UNL     1       4.006   3.096  19.374  0.00  0.00    +0.000 A 
ATOM     11  C   UNL     1       4.398   3.835  18.325  0.00  0.00    +0.000 A 
ATOM     12  N   UNL     1       3.959   5.117  18.041  0.00  0.00    +0.000 N 
ENDROOT
BRANCH   1  16
ATOM     13  N   UNL     1      -0.976  10.710  17.988  0.00  0.00    +0.000 NA
ATOM     14  C   UNL     1       0.044  10.193  18.577  0.00  0.00    +0.000 C 
ATOM     15  C   UNL     1       1.328   9.661  18.013  0.00  0.00    +0.000 C 
ATOM     16  N   UNL     1       1.562   9.080  19.326  0.00  0.00    +0.000 N 
ATOM     17  C   UNL     1       0.441   9.792  19.975  0.00  0.00    +0.000 C 
BRANCH  13  18
ATOM     18  O   UNL     1      -1.983  11.004  18.917  0.00  0.00    +0.000 OA
BRANCH  18  20
ATOM     19  C   UNL     1      -2.679  12.751  20.418  0.00  0.00    +0.000 C 
ATOM     20  C   UNL     1      -1.984  12.421  19.114  0.00  0.00    +0.000 C 
ENDBRANCH  18  20
ENDBRANCH  13  18
BRANCH  17  21
ATOM     21  C   UNL     1       0.920  10.962  20.842  0.00  0.00    +0.000 C 
BRANCH  21  22
ATOM     22  N   UNL     1       0.165  11.108  22.092  0.00  0.00    +0.000 NA
ATOM     23  H   UNL     1      -0.180  10.198  22.391  0.00  0.00    +0.000 HD
ATOM     24  H   UNL     1       0.781  11.444  22.829  0.00  0.00    +0.000 HD
ENDBRANCH  21  22
ENDBRANCH  17  21
ENDBRANCH   1  16
BRANCH  12  25
ATOM     25  C   UNL     1       4.578   5.882  16.944  0.00  0.00    +0.000 C 
ATOM     26  C   UNL     1       5.749   5.306  16.178  0.00  0.00    +0.000 C 
ATOM     27  C   UNL     1       5.931   6.536  17.000  0.00  0.00    +0.000 C 
ATOM     28  F   UNL     1       6.682   6.416  18.153  0.00  0.00    +0.000 F 
ENDBRANCH  12  25
BRANCH  10  29
ATOM     29  C   UNL     1       4.571   1.742  19.560  0.00  0.00    +0.000 C 
ATOM     30  O   UNL     1       5.272   1.432  20.511  0.00  0.00    +0.000 OA
BRANCH  29  31
ATOM     31  O   UNL     1       4.232   0.857  18.597  0.00  0.00    +0.000 OA
ATOM     32  H   UNL     1       3.598   1.204  17.924  0.00  0.00    +0.000 HD
ENDBRANCH  29  31
ENDBRANCH  10  29
TORSDOF 8
ENDMDL
MODEL 4
REMARK VINA RESULT:      -7.6      1.053      1.257
REMARK  Name = 
REMARK  9 active torsions:
REMARK  status: ('A' for Active; 'I' for Inactive)
REMARK    1  A    between atoms: C_1  and  C_2
REMARK    2  A    between atoms: C_2  and  O_3
REMARK    3  A    between atoms: O_3  and  N_4
REMARK    4  A    between atoms: N_7  and  C_8
REMARK    5  A    between atoms: C_17  and  C_18
REMARK    6  A    between atoms: C_18  and  O_20
REMARK    7  A    between atoms: N_22  and  C_23
REMARK    8  A    between atoms: C_27  and  C_28
REMARK    9  A    between atoms: C_28  and  N_29
REMARK                            x       y       z     vdW  Elec       q    Type
REMARK                         _______ _______ _______ _____ _____    ______ ____
ROOT
ATOM      1  C   UNL     1       2.111   7.456  19.681  0.00  0.00    +0.000 A 
ATOM      2  N   UNL     1       3.164   6.891  19.036  0.00  0.00    +0.000 NA
ATOM      3  C   UNL     1       3.463   5.582  19.258  0.00  0.00    +0.000 A 
ATOM      4  C   UNL     1       2.732   4.813  20.169  0.00  0.00    +0.000 A 
ATOM      5  C   UNL     1       1.645   5.378  20.829  0.00  0.00    +0.000 A 
ATOM      6  C   UNL     1       1.328   6.699  20.564  0.00  0.00    +0.000 A 
ATOM      7  F   UNL     1       0.272   7.239  21.195  0.00  0.00    +0.000 F 
ATOM      8  C   UNL     1       3.134   3.418  20.448  0.00  0.00    +0.000 A 
ATOM      9  O   UNL     1       2.520   2.727  21.259  0.00  0.00    +0.000 OA
ATOM     10  C   UNL     1       4.318   2.870  19.752  0.00  0.00    +0.000 A 
ATOM     11  C   UNL     1       4.932   3.674  18.871  0.00  0.00    +0.000 A 
ATOM     12  N   UNL     1       4.545   4.967  18.564  0.00  0.00    +0.000 N 
ENDROOT
BRANCH   1  16
ATOM     13  N   UNL     1      -0.468  10.515  17.793  0.00  0.00    +0.000 NA
ATOM     14  C   UNL     1       0.444   9.973  18.520  0.00  0.00    +0.000 C 
ATOM     15  C   UNL     1       1.806   9.464  18.152  0.00  0.00    +0.000 C 
ATOM     16  N   UNL     1       1.825   8.827  19.461  0.00  0.00    +0.000 N 
ATOM     17  C   UNL     1       0.609   9.512  19.946  0.00  0.00    +0.000 C 
BRANCH  13  18
ATOM     18  O   UNL     1      -1.615  10.770  18.556  0.00  0.00    +0.000 OA
BRANCH  18  20
ATOM     19  C   UNL     1      -2.598  10.070  16.474  0.00  0.00    +0.000 C 
ATOM     20  C   UNL     1      -2.687  10.014  17.985  0.00  0.00    +0.000 C 
ENDBRANCH  18  20
ENDBRANCH  13  18
BRANCH  17  21
ATOM     21  C   UNL     1       0.932  10.644  20.928  0.00  0.00    +0.000 C 
BRANCH  21  22
ATOM     22  N   UNL     1       0.415  10.406  22.281  0.00  0.00    +0.000 NA
ATOM     23  H   UNL     1       0.769   9.519  22.632  0.00  0.00    +0.000 HD
ATOM     24  H   UNL     1       0.757  11.127  22.912  0.00  0.00    +0.000 HD
ENDBRANCH  21  22
ENDBRANCH  17  21
ENDBRANCH   1  16
BRANCH  12  25
ATOM     25  C   UNL     1       5.392   5.801  17.691  0.00  0.00    +0.000 C 
ATOM     26  C   UNL     1       4.885   6.246  16.336  0.00  0.00    +0.000 C 
ATOM     27  C   UNL     1       6.060   5.333  16.429  0.00  0.00    +0.000 C 
ATOM     28  F   UNL     1       5.873   4.026  16.021  0.00  0.00    +0.000 F 
ENDBRANCH  12  25
BRANCH  10  29
ATOM     29  C   UNL     1       4.851   1.511  19.990  0.00  0.00    +0.000 C 
ATOM     30  O   UNL     1       5.477   1.202  20.992  0.00  0.00    +0.000 OA
BRANCH  29  31
ATOM     31  O   UNL     1       4.574   0.621  19.012  0.00  0.00    +0.000 OA
ATOM     32  H   UNL     1       4.101  -0.191  19.318  0.00  0.00    +0.000 HD
ENDBRANCH  29  31
ENDBRANCH  10  29
TORSDOF 8
ENDMDL
MODEL 5
REMARK VINA RESULT:      -7.6      2.579      4.135
REMARK  Name = 
REMARK  9 active torsions:
REMARK  status: ('A' for Active; 'I' for Inactive)
REMARK    1  A    between atoms: C_1  and  C_2
REMARK    2  A    between atoms: C_2  and  O_3
REMARK    3  A    between atoms: O_3  and  N_4
REMARK    4  A    between atoms: N_7  and  C_8
REMARK    5  A    between atoms: C_17  and  C_18
REMARK    6  A    between atoms: C_18  and  O_20
REMARK    7  A    between atoms: N_22  and  C_23
REMARK    8  A    between atoms: C_27  and  C_28
REMARK    9  A    between atoms: C_28  and  N_29
REMARK                            x       y       z     vdW  Elec       q    Type
REMARK                         _______ _______ _______ _____ _____    ______ ____
ROOT
ATOM      1  C   UNL     1       1.820   8.172  19.102  0.00  0.00    +0.000 A 
ATOM      2  N   UNL     1       2.294   6.957  19.478  0.00  0.00    +0.000 NA
ATOM      3  C   UNL     1       3.325   6.396  18.790  0.00  0.00    +0.000 A 
ATOM      4  C   UNL     1       3.882   7.026  17.673  0.00  0.00    +0.000 A 
ATOM      5  C   UNL     1       3.411   8.276  17.282  0.00  0.00    +0.000 A 
ATOM      6  C   UNL     1       2.390   8.853  18.017  0.00  0.00    +0.000 A 
ATOM      7  F   UNL     1       1.944  10.064  17.643  0.00  0.00    +0.000 F 
ATOM      8  C   UNL     1       4.944   6.351  16.898  0.00  0.00    +0.000 A 
ATOM      9  O   UNL     1       5.437   6.875  15.900  0.00  0.00    +0.000 OA
ATOM     10  C   UNL     1       5.388   5.007  17.326  0.00  0.00    +0.000 A 
ATOM     11  C   UNL     1       4.817   4.501  18.429  0.00  0.00    +0.000 A 
ATOM     12  N   UNL     1       3.853   5.135  19.194  0.00  0.00    +0.000 N 
ENDROOT
BRANCH   1  16
ATOM     13  N   UNL     1       0.397  10.865  22.311  0.00  0.00    +0.000 NA
ATOM     14  C   UNL     1       0.395  10.069  21.301  0.00  0.00    +0.000 C 
ATOM     15  C   UNL     1       0.507   8.574  21.241  0.00  0.00    +0.000 C 
ATOM     16  N   UNL     1       0.731   8.736  19.812  0.00  0.00    +0.000 N 
ATOM     17  C   UNL     1       0.380  10.171  19.797  0.00  0.00    +0.000 C 
BRANCH  13  18
ATOM     18  O   UNL     1       0.339  12.198  21.883  0.00  0.00    +0.000 OA
BRANCH  18  20
ATOM     19  C   UNL     1      -0.753  14.101  22.873  0.00  0.00    +0.000 C 
ATOM     20  C   UNL     1      -0.934  12.721  22.277  0.00  0.00    +0.000 C 
ENDBRANCH  18  20
ENDBRANCH  13  18
BRANCH  17  21
ATOM     21  C   UNL     1      -1.013  10.424  19.208  0.00  0.00    +0.000 C 
BRANCH  21  22
ATOM     22  N   UNL     1      -0.980  10.998  17.858  0.00  0.00    +0.000 NA
ATOM     23  H   UNL     1      -0.779  11.994  17.914  0.00  0.00    +0.000 HD
ATOM     24  H   UNL     1      -0.224  10.577  17.323  0.00  0.00    +0.000 HD
ENDBRANCH  21  22
ENDBRANCH  17  21
ENDBRANCH   1  16
BRANCH  12  25
ATOM     25  C   UNL     1       3.194   4.412  20.297  0.00  0.00    +0.000 C 
ATOM     26  C   UNL     1       3.052   2.907  20.245  0.00  0.00    +0.000 C 
ATOM     27  C   UNL     1       1.838   3.770  20.222  0.00  0.00    +0.000 C 
ATOM     28  F   UNL     1       1.134   3.833  19.034  0.00  0.00    +0.000 F 
ENDBRANCH  12  25
BRANCH  10  29
ATOM     29  C   UNL     1       6.399   4.209  16.600  0.00  0.00    +0.000 C 
ATOM     30  O   UNL     1       7.599   4.429  16.662  0.00  0.00    +0.000 OA
BRANCH  29  31
ATOM     31  O   UNL     1       5.892   3.192  15.870  0.00  0.00    +0.000 OA
ATOM     32  H   UNL     1       5.146   2.708  16.301  0.00  0.00    +0.000 HD
ENDBRANCH  29  31
ENDBRANCH  10  29
TORSDOF 8
ENDMDL
MODEL 6
REMARK VINA RESULT:      -7.4      3.580      7.879
REMARK  Name = 
REMARK  9 active torsions:
REMARK  status: ('A' for Active; 'I' for Inactive)
REMARK    1  A    between atoms: C_1  and  C_2
REMARK    2  A    between atoms: C_2  and  O_3
REMARK    3  A    between atoms: O_3  and  N_4
REMARK    4  A    between atoms: N_7  and  C_8
REMARK    5  A    between atoms: C_17  and  C_18
REMARK    6  A    between atoms: C_18  and  O_20
REMARK    7  A    between atoms: N_22  and  C_23
REMARK    8  A    between atoms: C_27  and  C_28
REMARK    9  A    between atoms: C_28  and  N_29
REMARK                            x       y       z     vdW  Elec       q    Type
REMARK                         _______ _______ _______ _____ _____    ______ ____
ROOT
ATOM      1  C   UNL     1       4.236   5.810  17.709  0.00  0.00    +0.000 A 
ATOM      2  N   UNL     1       3.559   5.475  18.837  0.00  0.00    +0.000 NA
ATOM      3  C   UNL     1       2.672   6.356  19.374  0.00  0.00    +0.000 A 
ATOM      4  C   UNL     1       2.471   7.620  18.811  0.00  0.00    +0.000 A 
ATOM      5  C   UNL     1       3.151   7.972  17.649  0.00  0.00    +0.000 A 
ATOM      6  C   UNL     1       4.020   7.050  17.091  0.00  0.00    +0.000 A 
ATOM      7  F   UNL     1       4.668   7.389  15.965  0.00  0.00    +0.000 F 
ATOM      8  C   UNL     1       1.561   8.584  19.466  0.00  0.00    +0.000 A 
ATOM      9  O   UNL     1       1.382   9.709  19.003  0.00  0.00    +0.000 OA
ATOM     10  C   UNL     1       0.887   8.183  20.720  0.00  0.00    +0.000 A 
ATOM     11  C   UNL     1       1.119   6.937  21.163  0.00  0.00    +0.000 A 
ATOM     12  N   UNL     1       1.931   6.005  20.541  0.00  0.00    +0.000 N 
ENDROOT
BRANCH   1  16
ATOM     13  N   UNL     1       6.666   4.487  14.257  0.00  0.00    +0.000 NA
ATOM     14  C   UNL     1       6.190   4.572  15.449  0.00  0.00    +0.000 C 
ATOM     15  C   UNL     1       4.920   4.027  16.031  0.00  0.00    +0.000 C 
ATOM     16  N   UNL     1       5.175   4.894  17.172  0.00  0.00    +0.000 N 
ATOM     17  C   UNL     1       6.542   5.257  16.745  0.00  0.00    +0.000 C 
BRANCH  13  18
ATOM     18  O   UNL     1       7.858   5.214  14.151  0.00  0.00    +0.000 OA
BRANCH  18  20
ATOM     19  C   UNL     1       7.357   4.441  11.927  0.00  0.00    +0.000 C 
ATOM     20  C   UNL     1       8.076   5.481  12.762  0.00  0.00    +0.000 C 
ENDBRANCH  18  20
ENDBRANCH  13  18
BRANCH  17  21
ATOM     21  C   UNL     1       7.619   4.529  17.558  0.00  0.00    +0.000 C 
BRANCH  21  22
ATOM     22  N   UNL     1       7.891   5.155  18.857  0.00  0.00    +0.000 NA
ATOM     23  H   UNL     1       7.307   4.727  19.572  0.00  0.00    +0.000 HD
ATOM     24  H   UNL     1       8.857   4.983  19.127  0.00  0.00    +0.000 HD
ENDBRANCH  21  22
ENDBRANCH  17  21
ENDBRANCH   1  16
BRANCH  12  25
ATOM     25  C   UNL     1       2.224   4.722  21.206  0.00  0.00    +0.000 C 
ATOM     26  C   UNL     1       2.715   3.540  20.399  0.00  0.00    +0.000 C 
ATOM     27  C   UNL     1       1.393   3.476  21.085  0.00  0.00    +0.000 C 
ATOM     28  F   UNL     1       0.267   3.499  20.284  0.00  0.00    +0.000 F 
ENDBRANCH  12  25
BRANCH  10  29
ATOM     29  C   UNL     1       0.003   9.077  21.497  0.00  0.00    +0.000 C 
ATOM     30  O   UNL     1      -0.062   9.062  22.717  0.00  0.00    +0.000 OA
BRANCH  29  31
ATOM     31  O   UNL     1      -0.722   9.937  20.749  0.00  0.00    +0.000 OA
ATOM     32  H   UNL     1      -0.226  10.351  20.002  0.00  0.00    +0.000 HD
ENDBRANCH  29  31
ENDBRANCH  10  29
TORSDOF 8
ENDMDL
MODEL 7
REMARK VINA RESULT:      -7.4      2.561      4.200
REMARK  Name = 
REMARK  9 active torsions:
REMARK  status: ('A' for Active; 'I' for Inactive)
REMARK    1  A    between atoms: C_1  and  C_2
REMARK    2  A    between atoms: C_2  and  O_3
REMARK    3  A    between atoms: O_3  and  N_4
REMARK    4  A    between atoms: N_7  and  C_8
REMARK    5  A    between atoms: C_17  and  C_18
REMARK    6  A    between atoms: C_18  and  O_20
REMARK    7  A    between atoms: N_22  and  C_23
REMARK    8  A    between atoms: C_27  and  C_28
REMARK    9  A    between atoms: C_28  and  N_29
REMARK                            x       y       z     vdW  Elec       q    Type
REMARK                         _______ _______ _______ _____ _____    ______ ____
ROOT
ATOM      1  C   UNL     1       1.328   9.016  19.173  0.00  0.00    +0.000 A 
ATOM      2  N   UNL     1       1.579   7.783  19.683  0.00  0.00    +0.000 NA
ATOM      3  C   UNL     1       2.550   7.011  19.125  0.00  0.00    +0.000 A 
ATOM      4  C   UNL     1       3.271   7.444  18.008  0.00  0.00    +0.000 A 
ATOM      5  C   UNL     1       3.030   8.709  17.481  0.00  0.00    +0.000 A 
ATOM      6  C   UNL     1       2.067   9.500  18.084  0.00  0.00    +0.000 A 
ATOM      7  F   UNL     1       1.843  10.724  17.580  0.00  0.00    +0.000 F 
ATOM      8  C   UNL     1       4.262   6.547  17.376  0.00  0.00    +0.000 A 
ATOM      9  O   UNL     1       4.896   6.896  16.381  0.00  0.00    +0.000 OA
ATOM     10  C   UNL     1       4.461   5.197  17.945  0.00  0.00    +0.000 A 
ATOM     11  C   UNL     1       3.746   4.887  19.038  0.00  0.00    +0.000 A 
ATOM     12  N   UNL     1       2.847   5.727  19.670  0.00  0.00    +0.000 N 
ENDROOT
BRANCH   1  16
ATOM     13  N   UNL     1       0.168  12.389  21.790  0.00  0.00    +0.000 NA
ATOM     14  C   UNL     1       0.090  11.418  20.950  0.00  0.00    +0.000 C 
ATOM     15  C   UNL     1       0.064   9.936  21.177  0.00  0.00    +0.000 C 
ATOM     16  N   UNL     1       0.297   9.801  19.747  0.00  0.00    +0.000 N 
ATOM     17  C   UNL     1       0.079  11.233  19.454  0.00  0.00    +0.000 C 
BRANCH  13  18
ATOM     18  O   UNL     1       0.232  13.616  21.116  0.00  0.00    +0.000 OA
BRANCH  18  20
ATOM     19  C   UNL     1       2.432  14.163  20.307  0.00  0.00    +0.000 C 
ATOM     20  C   UNL     1       1.470  14.238  21.475  0.00  0.00    +0.000 C 
ENDBRANCH  18  20
ENDBRANCH  13  18
BRANCH  17  21
ATOM     21  C   UNL     1      -1.286  11.494  18.808  0.00  0.00    +0.000 C 
BRANCH  21  22
ATOM     22  N   UNL     1      -1.235  12.464  17.708  0.00  0.00    +0.000 NA
ATOM     23  H   UNL     1      -1.770  12.113  16.917  0.00  0.00    +0.000 HD
ATOM     24  H   UNL     1      -1.675  13.335  17.995  0.00  0.00    +0.000 HD
ENDBRANCH  21  22
ENDBRANCH  17  21
ENDBRANCH   1  16
BRANCH  12  25
ATOM     25  C   UNL     1       2.011   5.218  20.773  0.00  0.00    +0.000 C 
ATOM     26  C   UNL     1       2.247   3.831  21.331  0.00  0.00    +0.000 C 
ATOM     27  C   UNL     1       0.964   4.148  20.643  0.00  0.00    +0.000 C 
ATOM     28  F   UNL     1       0.754   3.568  19.406  0.00  0.00    +0.000 F 
ENDBRANCH  12  25
BRANCH  10  29
ATOM     29  C   UNL     1       5.378   4.191  17.369  0.00  0.00    +0.000 C 
ATOM     30  O   UNL     1       5.173   3.629  16.304  0.00  0.00    +0.000 OA
BRANCH  29  31
ATOM     31  O   UNL     1       6.483   3.951  18.107  0.00  0.00    +0.000 OA
ATOM     32  H   UNL     1       7.331   4.225  17.678  0.00  0.00    +0.000 HD
ENDBRANCH  29  31
ENDBRANCH  10  29
TORSDOF 8
ENDMDL
MODEL 8
REMARK VINA RESULT:      -7.1      2.769      8.034
REMARK  Name = 
REMARK  9 active torsions:
REMARK  status: ('A' for Active; 'I' for Inactive)
REMARK    1  A    between atoms: C_1  and  C_2
REMARK    2  A    between atoms: C_2  and  O_3
REMARK    3  A    between atoms: O_3  and  N_4
REMARK    4  A    between atoms: N_7  and  C_8
REMARK    5  A    between atoms: C_17  and  C_18
REMARK    6  A    between atoms: C_18  and  O_20
REMARK    7  A    between atoms: N_22  and  C_23
REMARK    8  A    between atoms: C_27  and  C_28
REMARK    9  A    between atoms: C_28  and  N_29
REMARK                            x       y       z     vdW  Elec       q    Type
REMARK                         _______ _______ _______ _____ _____    ______ ____
ROOT
ATOM      1  C   UNL     1       1.874   7.894  19.438  0.00  0.00    +0.000 A 
ATOM      2  N   UNL     1       1.587   9.203  19.224  0.00  0.00    +0.000 NA
ATOM      3  C   UNL     1       0.981   9.927  20.203  0.00  0.00    +0.000 A 
ATOM      4  C   UNL     1       0.609   9.340  21.416  0.00  0.00    +0.000 A 
ATOM      5  C   UNL     1       0.905   8.001  21.652  0.00  0.00    +0.000 A 
ATOM      6  C   UNL     1       1.558   7.287  20.662  0.00  0.00    +0.000 A 
ATOM      7  F   UNL     1       1.851   5.998  20.896  0.00  0.00    +0.000 F 
ATOM      8  C   UNL     1      -0.122  10.134  22.427  0.00  0.00    +0.000 A 
ATOM      9  O   UNL     1      -0.478   9.636  23.494  0.00  0.00    +0.000 OA
ATOM     10  C   UNL     1      -0.449  11.542  22.120  0.00  0.00    +0.000 A 
ATOM     11  C   UNL     1      -0.019  12.024  20.944  0.00  0.00    +0.000 A 
ATOM     12  N   UNL     1       0.704  11.311  20.004  0.00  0.00    +0.000 N 
ENDROOT
BRANCH   1  16
ATOM     13  N   UNL     1       5.572   6.293  17.611  0.00  0.00    +0.000 NA
ATOM     14  C   UNL     1       4.326   6.515  17.842  0.00  0.00    +0.000 C 
ATOM     15  C   UNL     1       3.459   7.678  17.462  0.00  0.00    +0.000 C 
ATOM     16  N   UNL     1       2.483   7.144  18.400  0.00  0.00    +0.000 N 
ATOM     17  C   UNL     1       3.198   5.868  18.605  0.00  0.00    +0.000 C 
BRANCH  13  18
ATOM     18  O   UNL     1       5.978   5.098  18.220  0.00  0.00    +0.000 OA
BRANCH  18  20
ATOM     19  C   UNL     1       7.020   4.613  16.106  0.00  0.00    +0.000 C 
ATOM     20  C   UNL     1       7.208   4.700  17.606  0.00  0.00    +0.000 C 
ENDBRANCH  18  20
ENDBRANCH  13  18
BRANCH  17  21
ATOM     21  C   UNL     1       2.536   4.703  17.860  0.00  0.00    +0.000 C 
BRANCH  21  22
ATOM     22  N   UNL     1       3.440   3.573  17.623  0.00  0.00    +0.000 NA
ATOM     23  H   UNL     1       4.076   3.797  16.860  0.00  0.00    +0.000 HD
ATOM     24  H   UNL     1       4.017   3.414  18.446  0.00  0.00    +0.000 HD
ENDBRANCH  21  22
ENDBRANCH  17  21
ENDBRANCH   1  16
BRANCH  12  25
ATOM     25  C   UNL     1       0.987  11.907  18.685  0.00  0.00    +0.000 C 
ATOM     26  C   UNL     1       2.342  12.517  18.399  0.00  0.00    +0.000 C 
ATOM     27  C   UNL     1       1.125  13.378  18.412  0.00  0.00    +0.000 C 
ATOM     28  F   UNL     1       0.995  14.267  19.463  0.00  0.00    +0.000 F 
ENDBRANCH  12  25
BRANCH  10  29
ATOM     29  C   UNL     1      -1.225  12.419  23.024  0.00  0.00    +0.000 C 
ATOM     30  O   UNL     1      -0.790  13.465  23.481  0.00  0.00    +0.000 OA
BRANCH  29  31
ATOM     31  O   UNL     1      -2.473  11.980  23.295  0.00  0.00    +0.000 OA
ATOM     32  H   UNL     1      -3.074  12.664  23.680  0.00  0.00    +0.000 HD
ENDBRANCH  29  31
ENDBRANCH  10  29
TORSDOF 8
ENDMDL
MODEL 9
REMARK VINA RESULT:      -7.1      2.624      4.114
REMARK  Name = 
REMARK  9 active torsions:
REMARK  status: ('A' for Active; 'I' for Inactive)
REMARK    1  A    between atoms: C_1  and  C_2
REMARK    2  A    between atoms: C_2  and  O_3
REMARK    3  A    between atoms: O_3  and  N_4
REMARK    4  A    between atoms: N_7  and  C_8
REMARK    5  A    between atoms: C_17  and  C_18
REMARK    6  A    between atoms: C_18  and  O_20
REMARK    7  A    between atoms: N_22  and  C_23
REMARK    8  A    between atoms: C_27  and  C_28
REMARK    9  A    between atoms: C_28  and  N_29
REMARK                            x       y       z     vdW  Elec       q    Type
REMARK                         _______ _______ _______ _____ _____    ______ ____
ROOT
ATOM      1  C   UNL     1       1.345   8.932  19.136  0.00  0.00    +0.000 A 
ATOM      2  N   UNL     1       1.608   7.706  19.658  0.00  0.00    +0.000 NA
ATOM      3  C   UNL     1       2.607   6.950  19.127  0.00  0.00    +0.000 A 
ATOM      4  C   UNL     1       3.346   7.392  18.025  0.00  0.00    +0.000 A 
ATOM      5  C   UNL     1       3.093   8.651  17.487  0.00  0.00    +0.000 A 
ATOM      6  C   UNL     1       2.101   9.425  18.063  0.00  0.00    +0.000 A 
ATOM      7  F   UNL     1       1.866  10.642  17.548  0.00  0.00    +0.000 F 
ATOM      8  C   UNL     1       4.369   6.512  17.422  0.00  0.00    +0.000 A 
ATOM      9  O   UNL     1       5.019   6.869  16.441  0.00  0.00    +0.000 OA
ATOM     10  C   UNL     1       4.579   5.168  18.002  0.00  0.00    +0.000 A 
ATOM     11  C   UNL     1       3.844   4.849  19.079  0.00  0.00    +0.000 A 
ATOM     12  N   UNL     1       2.914   5.675  19.685  0.00  0.00    +0.000 N 
ENDROOT
BRANCH   1  16
ATOM     13  N   UNL     1       0.037  12.123  21.907  0.00  0.00    +0.000 NA
ATOM     14  C   UNL     1       0.011  11.223  20.989  0.00  0.00    +0.000 C 
ATOM     15  C   UNL     1      -0.067   9.729  21.093  0.00  0.00    +0.000 C 
ATOM     16  N   UNL     1       0.286   9.700  19.681  0.00  0.00    +0.000 N 
ATOM     17  C   UNL     1       0.126  11.155  19.487  0.00  0.00    +0.000 C 
BRANCH  13  18
ATOM     18  O   UNL     1       0.187  13.396  21.342  0.00  0.00    +0.000 OA
BRANCH  18  20
ATOM     19  C   UNL     1      -0.837  15.573  21.273  0.00  0.00    +0.000 C 
ATOM     20  C   UNL     1      -1.048  14.095  21.527  0.00  0.00    +0.000 C 
ENDBRANCH  18  20
ENDBRANCH  13  18
BRANCH  17  21
ATOM     21  C   UNL     1      -1.172  11.506  18.750  0.00  0.00    +0.000 C 
BRANCH  21  22
ATOM     22  N   UNL     1      -1.033  12.642  17.833  0.00  0.00    +0.000 NA
ATOM     23  H   UNL     1      -0.205  13.181  18.078  0.00  0.00    +0.000 HD
ATOM     24  H   UNL     1      -0.891  12.304  16.884  0.00  0.00    +0.000 HD
ENDBRANCH  21  22
ENDBRANCH  17  21
ENDBRANCH   1  16
BRANCH  12  25
ATOM     25  C   UNL     1       2.063   5.154  20.770  0.00  0.00    +0.000 C 
ATOM     26  C   UNL     1       2.274   3.753  21.300  0.00  0.00    +0.000 C 
ATOM     27  C   UNL     1       1.001   4.102  20.608  0.00  0.00    +0.000 C 
ATOM     28  F   UNL     1       0.794   3.551  19.358  0.00  0.00    +0.000 F 
ENDBRANCH  12  25
BRANCH  10  29
ATOM     29  C   UNL     1       5.529   4.178  17.452  0.00  0.00    +0.000 C 
ATOM     30  O   UNL     1       6.741   4.332  17.464  0.00  0.00    +0.000 OA
BRANCH  29  31
ATOM     31  O   UNL     1       4.951   3.067  16.946  0.00  0.00    +0.000 OA
ATOM     32  H   UNL     1       4.501   2.496  17.616  0.00  0.00    +0.000 HD
ENDBRANCH  29  31
ENDBRANCH  10  29
TORSDOF 8
ENDMDL
