MODEL 1
REMARK VINA RESULT:      -7.1      0.000      0.000
REMARK  Name = 
REMARK  9 active torsions:
REMARK  status: ('A' for Active; 'I' for Inactive)
REMARK    1  A    between atoms: C_1  and  C_2
REMARK    2  A    between atoms: C_7  and  C_8
REMARK    3  A    between atoms: C_11  and  C_12
REMARK    4  A    between atoms: C_12  and  O_13
REMARK    5  A    between atoms: O_13  and  C_14
REMARK    6  A    between atoms: C_14  and  C_15
REMARK    7  A    between atoms: C_15  and  O_16
REMARK    8  A    between atoms: C_15  and  C_17
REMARK    9  A    between atoms: C_17  and  N_18
REMARK                            x       y       z     vdW  Elec       q    Type
REMARK                         _______ _______ _______ _____ _____    ______ ____
ROOT
ATOM      1  C   UNL     1       5.981   3.568  15.734  0.00  0.00    +0.000 C 
ATOM      2  C   UNL     1       5.105   4.481  16.546  0.00  0.00    +0.000 A 
ATOM      3  C   UNL     1       3.901   3.990  17.085  0.00  0.00    +0.000 A 
ATOM      4  C   UNL     1       3.019   4.811  17.816  0.00  0.00    +0.000 A 
ATOM      5  C   UNL     1       3.351   6.168  18.001  0.00  0.00    +0.000 A 
ATOM      6  C   UNL     1       4.585   6.635  17.497  0.00  0.00    +0.000 A 
ATOM      7  C   UNL     1       5.455   5.821  16.764  0.00  0.00    +0.000 A 
ATOM      8  C   UNL     1       6.717   6.414  16.209  0.00  0.00    +0.000 C 
ATOM      9  C   UNL     1       2.469   7.136  18.688  0.00  0.00    +0.000 C 
ATOM     10 CL   UNL     1       2.310   8.693  17.913  0.00  0.00    +0.000 Cl
ATOM     11  C   UNL     1       1.857   6.871  19.863  0.00  0.00    +0.000 C 
ATOM     12  C   UNL     1       1.995   5.516  20.521  0.00  0.00    +0.000 C 
ATOM     13  C   UNL     1       1.262   4.436  19.730  0.00  0.00    +0.000 C 
ATOM     14  C   UNL     1       1.701   4.220  18.273  0.00  0.00    +0.000 C 
ENDROOT
BRANCH  11  15
ATOM     15  C   UNL     1       1.045   7.912  20.594  0.00  0.00    +0.000 C 
BRANCH  15  16
ATOM     16  O   UNL     1       1.668   8.256  21.818  0.00  0.00    +0.000 OA
BRANCH  16  17
ATOM     17  C   UNL     1       1.363   9.599  22.205  0.00  0.00    +0.000 C 
BRANCH  17  18
ATOM     18  C   UNL     1      -0.040   9.614  22.812  0.00  0.00    +0.000 C 
BRANCH  18  19
ATOM     19  O   UNL     1       0.041   9.410  24.231  0.00  0.00    +0.000 OA
ATOM     20  H   UNL     1       0.031  10.281  24.659  0.00  0.00    +0.000 HD
ENDBRANCH  18  19
BRANCH  18  21
ATOM     21  C   UNL     1      -0.768  10.942  22.493  0.00  0.00    +0.000 C 
BRANCH  21  22
ATOM     22  N   UNL     1      -0.192  11.693  21.354  0.00  0.00    +0.000 NA
ATOM     23  C   UNL     1      -0.044  13.128  21.676  0.00  0.00    +0.000 C 
ATOM     24  C   UNL     1       0.649  13.952  20.585  0.00  0.00    +0.000 C 
ATOM     25  S   UNL     1      -0.278  13.941  19.026  0.00  0.00    +0.000 S 
ATOM     26  C   UNL     1      -0.433  12.136  18.880  0.00  0.00    +0.000 C 
ATOM     27  C   UNL     1      -1.025  11.504  20.147  0.00  0.00    +0.000 C 
ENDBRANCH  21  22
ENDBRANCH  18  21
ENDBRANCH  17  18
ENDBRANCH  16  17
ENDBRANCH  15  16
ENDBRANCH  11  15
TORSDOF 7
ENDMDL
MODEL 2
REMARK VINA RESULT:      -6.9      5.589      7.248
REMARK  Name = 
REMARK  9 active torsions:
REMARK  status: ('A' for Active; 'I' for Inactive)
REMARK    1  A    between atoms: C_1  and  C_2
REMARK    2  A    between atoms: C_7  and  C_8
REMARK    3  A    between atoms: C_11  and  C_12
REMARK    4  A    between atoms: C_12  and  O_13
REMARK    5  A    between atoms: O_13  and  C_14
REMARK    6  A    between atoms: C_14  and  C_15
REMARK    7  A    between atoms: C_15  and  O_16
REMARK    8  A    between atoms: C_15  and  C_17
REMARK    9  A    between atoms: C_17  and  N_18
REMARK                            x       y       z     vdW  Elec       q    Type
REMARK                         _______ _______ _______ _____ _____    ______ ____
ROOT
ATOM      1  C   UNL     1       1.005   2.723  18.725  0.00  0.00    +0.000 C 
ATOM      2  C   UNL     1       2.266   3.537  18.648  0.00  0.00    +0.000 A 
ATOM      3  C   UNL     1       2.931   3.674  17.416  0.00  0.00    +0.000 A 
ATOM      4  C   UNL     1       4.140   4.389  17.292  0.00  0.00    +0.000 A 
ATOM      5  C   UNL     1       4.703   4.973  18.444  0.00  0.00    +0.000 A 
ATOM      6  C   UNL     1       4.000   4.869  19.665  0.00  0.00    +0.000 A 
ATOM      7  C   UNL     1       2.805   4.153  19.787  0.00  0.00    +0.000 A 
ATOM      8  C   UNL     1       2.156   4.039  21.135  0.00  0.00    +0.000 C 
ATOM      9  C   UNL     1       6.000   5.682  18.446  0.00  0.00    +0.000 C 
ATOM     10 CL   UNL     1       7.063   5.307  19.781  0.00  0.00    +0.000 Cl
ATOM     11  C   UNL     1       6.341   6.600  17.515  0.00  0.00    +0.000 C 
ATOM     12  C   UNL     1       5.417   6.910  16.358  0.00  0.00    +0.000 C 
ATOM     13  C   UNL     1       5.332   5.739  15.383  0.00  0.00    +0.000 C 
ATOM     14  C   UNL     1       4.833   4.398  15.945  0.00  0.00    +0.000 C 
ENDROOT
BRANCH  11  15
ATOM     15  C   UNL     1       7.628   7.384  17.598  0.00  0.00    +0.000 C 
BRANCH  15  16
ATOM     16  O   UNL     1       7.358   8.756  17.814  0.00  0.00    +0.000 OA
BRANCH  16  17
ATOM     17  C   UNL     1       8.526   9.560  17.621  0.00  0.00    +0.000 C 
BRANCH  17  18
ATOM     18  C   UNL     1       8.692  10.461  18.845  0.00  0.00    +0.000 C 
BRANCH  18  19
ATOM     19  O   UNL     1       9.522   9.812  19.819  0.00  0.00    +0.000 OA
ATOM     20  H   UNL     1      10.442   9.869  19.515  0.00  0.00    +0.000 HD
ENDBRANCH  18  19
BRANCH  18  21
ATOM     21  C   UNL     1       9.291  11.832  18.446  0.00  0.00    +0.000 C 
BRANCH  21  22
ATOM     22  N   UNL     1       9.060  12.908  19.437  0.00  0.00    +0.000 NA
ATOM     23  C   UNL     1       8.271  14.014  18.856  0.00  0.00    +0.000 C 
ATOM     24  C   UNL     1       7.896  15.115  19.854  0.00  0.00    +0.000 C 
ATOM     25  S   UNL     1       9.358  15.933  20.551  0.00  0.00    +0.000 S 
ATOM     26  C   UNL     1      10.209  14.423  21.098  0.00  0.00    +0.000 C 
ATOM     27  C   UNL     1      10.351  13.398  19.964  0.00  0.00    +0.000 C 
ENDBRANCH  21  22
ENDBRANCH  18  21
ENDBRANCH  17  18
ENDBRANCH  16  17
ENDBRANCH  15  16
ENDBRANCH  11  15
TORSDOF 7
ENDMDL
MODEL 3
REMARK VINA RESULT:      -6.8      3.584      8.050
REMARK  Name = 
REMARK  9 active torsions:
REMARK  status: ('A' for Active; 'I' for Inactive)
REMARK    1  A    between atoms: C_1  and  C_2
REMARK    2  A    between atoms: C_7  and  C_8
REMARK    3  A    between atoms: C_11  and  C_12
REMARK    4  A    between atoms: C_12  and  O_13
REMARK    5  A    between atoms: O_13  and  C_14
REMARK    6  A    between atoms: C_14  and  C_15
REMARK    7  A    between atoms: C_15  and  O_16
REMARK    8  A    between atoms: C_15  and  C_17
REMARK    9  A    between atoms: C_17  and  N_18
REMARK                            x       y       z     vdW  Elec       q    Type
REMARK                         _______ _______ _______ _____ _____    ______ ____
ROOT
ATOM      1  C   UNL     1      -4.656  11.876  17.027  0.00  0.00    +0.000 C 
ATOM      2  C   UNL     1      -3.385  11.287  17.573  0.00  0.00    +0.000 A 
ATOM      3  C   UNL     1      -2.920  11.690  18.838  0.00  0.00    +0.000 A 
ATOM      4  C   UNL     1      -1.713  11.204  19.381  0.00  0.00    +0.000 A 
ATOM      5  C   UNL     1      -0.946  10.296  18.624  0.00  0.00    +0.000 A 
ATOM      6  C   UNL     1      -1.449   9.863  17.378  0.00  0.00    +0.000 A 
ATOM      7  C   UNL     1      -2.643  10.352  16.837  0.00  0.00    +0.000 A 
ATOM      8  C   UNL     1      -3.073   9.887  15.477  0.00  0.00    +0.000 C 
ATOM      9  C   UNL     1       0.368   9.779  19.062  0.00  0.00    +0.000 C 
ATOM     10 CL   UNL     1       1.611   9.740  17.834  0.00  0.00    +0.000 Cl
ATOM     11  C   UNL     1       0.601   9.315  20.310  0.00  0.00    +0.000 C 
ATOM     12  C   UNL     1      -0.480   9.362  21.367  0.00  0.00    +0.000 C 
ATOM     13  C   UNL     1      -0.776  10.796  21.799  0.00  0.00    +0.000 C 
ATOM     14  C   UNL     1      -1.244  11.770  20.706  0.00  0.00    +0.000 C 
ENDROOT
BRANCH  11  15
ATOM     15  C   UNL     1       1.921   8.697  20.701  0.00  0.00    +0.000 C 
BRANCH  15  16
ATOM     16  O   UNL     1       2.232   7.613  19.846  0.00  0.00    +0.000 OA
BRANCH  16  17
ATOM     17  C   UNL     1       1.951   6.355  20.468  0.00  0.00    +0.000 C 
BRANCH  17  18
ATOM     18  C   UNL     1       2.782   5.280  19.767  0.00  0.00    +0.000 C 
BRANCH  18  19
ATOM     19  O   UNL     1       2.584   4.013  20.412  0.00  0.00    +0.000 OA
ATOM     20  H   UNL     1       2.632   4.155  21.371  0.00  0.00    +0.000 HD
ENDBRANCH  18  19
BRANCH  18  21
ATOM     21  C   UNL     1       2.418   5.190  18.265  0.00  0.00    +0.000 C 
BRANCH  21  22
ATOM     22  N   UNL     1       3.582   5.262  17.352  0.00  0.00    +0.000 NA
ATOM     23  C   UNL     1       4.333   3.989  17.334  0.00  0.00    +0.000 C 
ATOM     24  C   UNL     1       5.487   3.951  16.327  0.00  0.00    +0.000 C 
ATOM     25  S   UNL     1       6.749   5.205  16.684  0.00  0.00    +0.000 S 
ATOM     26  C   UNL     1       5.622   6.628  16.763  0.00  0.00    +0.000 C 
ATOM     27  C   UNL     1       4.459   6.389  17.735  0.00  0.00    +0.000 C 
ENDBRANCH  21  22
ENDBRANCH  18  21
ENDBRANCH  17  18
ENDBRANCH  16  17
ENDBRANCH  15  16
ENDBRANCH  11  15
TORSDOF 7
ENDMDL
MODEL 4
REMARK VINA RESULT:      -6.8      2.833      4.574
REMARK  Name = 
REMARK  9 active torsions:
REMARK  status: ('A' for Active; 'I' for Inactive)
REMARK    1  A    between atoms: C_1  and  C_2
REMARK    2  A    between atoms: C_7  and  C_8
REMARK    3  A    between atoms: C_11  and  C_12
REMARK    4  A    between atoms: C_12  and  O_13
REMARK    5  A    between atoms: O_13  and  C_14
REMARK    6  A    between atoms: C_14  and  C_15
REMARK    7  A    between atoms: C_15  and  O_16
REMARK    8  A    between atoms: C_15  and  C_17
REMARK    9  A    between atoms: C_17  and  N_18
REMARK                            x       y       z     vdW  Elec       q    Type
REMARK                         _______ _______ _______ _____ _____    ______ ____
ROOT
ATOM      1  C   UNL     1       2.949   3.300  18.583  0.00  0.00    +0.000 C 
ATOM      2  C   UNL     1       2.492   4.647  19.067  0.00  0.00    +0.000 A 
ATOM      3  C   UNL     1       2.817   5.799  18.327  0.00  0.00    +0.000 A 
ATOM      4  C   UNL     1       2.452   7.091  18.755  0.00  0.00    +0.000 A 
ATOM      5  C   UNL     1       1.752   7.231  19.970  0.00  0.00    +0.000 A 
ATOM      6  C   UNL     1       1.391   6.064  20.678  0.00  0.00    +0.000 A 
ATOM      7  C   UNL     1       1.759   4.782  20.256  0.00  0.00    +0.000 A 
ATOM      8  C   UNL     1       1.389   3.600  21.102  0.00  0.00    +0.000 C 
ATOM      9  C   UNL     1       1.383   8.540  20.551  0.00  0.00    +0.000 C 
ATOM     10 CL   UNL     1       1.658   8.707  22.269  0.00  0.00    +0.000 Cl
ATOM     11  C   UNL     1       0.824   9.536  19.830  0.00  0.00    +0.000 C 
ATOM     12  C   UNL     1       0.599   9.384  18.342  0.00  0.00    +0.000 C 
ATOM     13  C   UNL     1       1.920   9.376  17.577  0.00  0.00    +0.000 C 
ATOM     14  C   UNL     1       2.931   8.278  17.943  0.00  0.00    +0.000 C 
ENDROOT
BRANCH  11  15
ATOM     15  C   UNL     1       0.362  10.824  20.468  0.00  0.00    +0.000 C 
BRANCH  15  16
ATOM     16  O   UNL     1      -0.953  11.139  20.051  0.00  0.00    +0.000 OA
BRANCH  16  17
ATOM     17  C   UNL     1      -1.106  12.539  19.802  0.00  0.00    +0.000 C 
BRANCH  17  18
ATOM     18  C   UNL     1      -0.213  12.913  18.618  0.00  0.00    +0.000 C 
BRANCH  18  19
ATOM     19  O   UNL     1      -0.990  12.945  17.412  0.00  0.00    +0.000 OA
ATOM     20  H   UNL     1      -0.857  13.811  16.994  0.00  0.00    +0.000 HD
ENDBRANCH  18  19
BRANCH  18  21
ATOM     21  C   UNL     1       0.481  14.276  18.856  0.00  0.00    +0.000 C 
BRANCH  21  22
ATOM     22  N   UNL     1       1.914  14.175  19.216  0.00  0.00    +0.000 NA
ATOM     23  C   UNL     1       2.199  14.868  20.490  0.00  0.00    +0.000 C 
ATOM     24  C   UNL     1       3.641  14.712  20.985  0.00  0.00    +0.000 C 
ATOM     25  S   UNL     1       4.844  15.412  19.820  0.00  0.00    +0.000 S 
ATOM     26  C   UNL     1       4.258  14.524  18.346  0.00  0.00    +0.000 C 
ATOM     27  C   UNL     1       2.751  14.710  18.122  0.00  0.00    +0.000 C 
ENDBRANCH  21  22
ENDBRANCH  18  21
ENDBRANCH  17  18
ENDBRANCH  16  17
ENDBRANCH  15  16
ENDBRANCH  11  15
TORSDOF 7
ENDMDL
MODEL 5
REMARK VINA RESULT:      -6.8      3.440      4.839
REMARK  Name = 
REMARK  9 active torsions:
REMARK  status: ('A' for Active; 'I' for Inactive)
REMARK    1  A    between atoms: C_1  and  C_2
REMARK    2  A    between atoms: C_7  and  C_8
REMARK    3  A    between atoms: C_11  and  C_12
REMARK    4  A    between atoms: C_12  and  O_13
REMARK    5  A    between atoms: O_13  and  C_14
REMARK    6  A    between atoms: C_14  and  C_15
REMARK    7  A    between atoms: C_15  and  O_16
REMARK    8  A    between atoms: C_15  and  C_17
REMARK    9  A    between atoms: C_17  and  N_18
REMARK                            x       y       z     vdW  Elec       q    Type
REMARK                         _______ _______ _______ _____ _____    ______ ____
ROOT
ATOM      1  C   UNL     1       3.400   2.481  19.197  0.00  0.00    +0.000 C 
ATOM      2  C   UNL     1       2.922   3.891  19.410  0.00  0.00    +0.000 A 
ATOM      3  C   UNL     1       3.471   4.935  18.643  0.00  0.00    +0.000 A 
ATOM      4  C   UNL     1       3.092   6.280  18.829  0.00  0.00    +0.000 A 
ATOM      5  C   UNL     1       2.144   6.585  19.825  0.00  0.00    +0.000 A 
ATOM      6  C   UNL     1       1.566   5.523  20.554  0.00  0.00    +0.000 A 
ATOM      7  C   UNL     1       1.947   4.190  20.374  0.00  0.00    +0.000 A 
ATOM      8  C   UNL     1       1.329   3.130  21.236  0.00  0.00    +0.000 C 
ATOM      9  C   UNL     1       1.728   7.965  20.157  0.00  0.00    +0.000 C 
ATOM     10 CL   UNL     1       1.614   8.330  21.862  0.00  0.00    +0.000 Cl
ATOM     11  C   UNL     1       1.404   8.884  19.220  0.00  0.00    +0.000 C 
ATOM     12  C   UNL     1       1.515   8.559  17.746  0.00  0.00    +0.000 C 
ATOM     13  C   UNL     1       2.972   8.420  17.314  0.00  0.00    +0.000 C 
ATOM     14  C   UNL     1       3.809   7.345  18.024  0.00  0.00    +0.000 C 
ENDROOT
BRANCH  11  15
ATOM     15  C   UNL     1       0.883  10.252  19.587  0.00  0.00    +0.000 C 
BRANCH  15  16
ATOM     16  O   UNL     1      -0.532  10.264  19.567  0.00  0.00    +0.000 OA
BRANCH  16  17
ATOM     17  C   UNL     1      -1.039  10.374  18.233  0.00  0.00    +0.000 C 
BRANCH  17  18
ATOM     18  C   UNL     1      -1.984  11.574  18.179  0.00  0.00    +0.000 C 
BRANCH  18  19
ATOM     19  O   UNL     1      -1.355  12.658  17.479  0.00  0.00    +0.000 OA
ATOM     20  H   UNL     1      -0.400  12.487  17.457  0.00  0.00    +0.000 HD
ENDBRANCH  18  19
BRANCH  18  21
ATOM     21  C   UNL     1      -3.324  11.195  17.504  0.00  0.00    +0.000 C 
BRANCH  21  22
ATOM     22  N   UNL     1      -4.508  11.876  18.076  0.00  0.00    +0.000 NA
ATOM     23  C   UNL     1      -4.265  12.297  19.472  0.00  0.00    +0.000 C 
ATOM     24  C   UNL     1      -5.405  13.109  20.095  0.00  0.00    +0.000 C 
ATOM     25  S   UNL     1      -6.951  12.162  20.180  0.00  0.00    +0.000 S 
ATOM     26  C   UNL     1      -6.999  11.669  18.431  0.00  0.00    +0.000 C 
ATOM     27  C   UNL     1      -5.692  10.997  17.986  0.00  0.00    +0.000 C 
ENDBRANCH  21  22
ENDBRANCH  18  21
ENDBRANCH  17  18
ENDBRANCH  16  17
ENDBRANCH  15  16
ENDBRANCH  11  15
TORSDOF 7
ENDMDL
MODEL 6
REMARK VINA RESULT:      -6.7      1.451      1.768
REMARK  Name = 
REMARK  9 active torsions:
REMARK  status: ('A' for Active; 'I' for Inactive)
REMARK    1  A    between atoms: C_1  and  C_2
REMARK    2  A    between atoms: C_7  and  C_8
REMARK    3  A    between atoms: C_11  and  C_12
REMARK    4  A    between atoms: C_12  and  O_13
REMARK    5  A    between atoms: O_13  and  C_14
REMARK    6  A    between atoms: C_14  and  C_15
REMARK    7  A    between atoms: C_15  and  O_16
REMARK    8  A    between atoms: C_15  and  C_17
REMARK    9  A    between atoms: C_17  and  N_18
REMARK                            x       y       z     vdW  Elec       q    Type
REMARK                         _______ _______ _______ _____ _____    ______ ____
ROOT
ATOM      1  C   UNL     1       5.936   3.631  15.620  0.00  0.00    +0.000 C 
ATOM      2  C   UNL     1       5.053   4.411  16.554  0.00  0.00    +0.000 A 
ATOM      3  C   UNL     1       3.889   3.815  17.071  0.00  0.00    +0.000 A 
ATOM      4  C   UNL     1       3.002   4.513  17.916  0.00  0.00    +0.000 A 
ATOM      5  C   UNL     1       3.289   5.854  18.240  0.00  0.00    +0.000 A 
ATOM      6  C   UNL     1       4.486   6.424  17.754  0.00  0.00    +0.000 A 
ATOM      7  C   UNL     1       5.361   5.733  16.910  0.00  0.00    +0.000 A 
ATOM      8  C   UNL     1       6.579   6.435  16.387  0.00  0.00    +0.000 C 
ATOM      9  C   UNL     1       2.395   6.703  19.057  0.00  0.00    +0.000 C 
ATOM     10 CL   UNL     1       2.150   8.329  18.465  0.00  0.00    +0.000 Cl
ATOM     11  C   UNL     1       1.834   6.286  20.214  0.00  0.00    +0.000 C 
ATOM     12  C   UNL     1       2.046   4.873  20.712  0.00  0.00    +0.000 C 
ATOM     13  C   UNL     1       1.327   3.857  19.828  0.00  0.00    +0.000 C 
ATOM     14  C   UNL     1       1.724   3.821  18.343  0.00  0.00    +0.000 C 
ENDROOT
BRANCH  11  15
ATOM     15  C   UNL     1       1.009   7.206  21.080  0.00  0.00    +0.000 C 
BRANCH  15  16
ATOM     16  O   UNL     1       1.670   8.445  21.255  0.00  0.00    +0.000 OA
BRANCH  16  17
ATOM     17  C   UNL     1       0.785   9.447  21.764  0.00  0.00    +0.000 C 
BRANCH  17  18
ATOM     18  C   UNL     1       0.546  10.478  20.661  0.00  0.00    +0.000 C 
BRANCH  18  19
ATOM     19  O   UNL     1      -0.573  10.079  19.854  0.00  0.00    +0.000 OA
ATOM     20  H   UNL     1      -1.098  10.871  19.658  0.00  0.00    +0.000 HD
ENDBRANCH  18  19
BRANCH  18  21
ATOM     21  C   UNL     1       0.311  11.886  21.259  0.00  0.00    +0.000 C 
BRANCH  21  22
ATOM     22  N   UNL     1       1.420  12.839  21.027  0.00  0.00    +0.000 NA
ATOM     23  C   UNL     1       1.106  14.175  21.574  0.00  0.00    +0.000 C 
ATOM     24  C   UNL     1       2.253  15.186  21.471  0.00  0.00    +0.000 C 
ATOM     25  S   UNL     1       2.724  15.513  19.749  0.00  0.00    +0.000 S 
ATOM     26  C   UNL     1       2.957  13.778  19.258  0.00  0.00    +0.000 C 
ATOM     27  C   UNL     1       1.729  12.917  19.584  0.00  0.00    +0.000 C 
ENDBRANCH  21  22
ENDBRANCH  18  21
ENDBRANCH  17  18
ENDBRANCH  16  17
ENDBRANCH  15  16
ENDBRANCH  11  15
TORSDOF 7
ENDMDL
MODEL 7
REMARK VINA RESULT:      -6.7      3.582      7.975
REMARK  Name = 
REMARK  9 active torsions:
REMARK  status: ('A' for Active; 'I' for Inactive)
REMARK    1  A    between atoms: C_1  and  C_2
REMARK    2  A    between atoms: C_7  and  C_8
REMARK    3  A    between atoms: C_11  and  C_12
REMARK    4  A    between atoms: C_12  and  O_13
REMARK    5  A    between atoms: O_13  and  C_14
REMARK    6  A    between atoms: C_14  and  C_15
REMARK    7  A    between atoms: C_15  and  O_16
REMARK    8  A    between atoms: C_15  and  C_17
REMARK    9  A    between atoms: C_17  and  N_18
REMARK                            x       y       z     vdW  Elec       q    Type
REMARK                         _______ _______ _______ _____ _____    ______ ____
ROOT
ATOM      1  C   UNL     1      -4.635  11.802  16.803  0.00  0.00    +0.000 C 
ATOM      2  C   UNL     1      -3.387  11.238  17.424  0.00  0.00    +0.000 A 
ATOM      3  C   UNL     1      -2.964  11.705  18.681  0.00  0.00    +0.000 A 
ATOM      4  C   UNL     1      -1.780  11.245  19.291  0.00  0.00    +0.000 A 
ATOM      5  C   UNL     1      -0.991  10.297  18.611  0.00  0.00    +0.000 A 
ATOM      6  C   UNL     1      -1.452   9.801  17.372  0.00  0.00    +0.000 A 
ATOM      7  C   UNL     1      -2.623  10.264  16.764  0.00  0.00    +0.000 A 
ATOM      8  C   UNL     1      -3.007   9.729  15.416  0.00  0.00    +0.000 C 
ATOM      9  C   UNL     1       0.305   9.799  19.121  0.00  0.00    +0.000 C 
ATOM     10 CL   UNL     1       1.590   9.693  17.942  0.00  0.00    +0.000 Cl
ATOM     11  C   UNL     1       0.491   9.400  20.399  0.00  0.00    +0.000 C 
ATOM     12  C   UNL     1      -0.626   9.506  21.414  0.00  0.00    +0.000 C 
ATOM     13  C   UNL     1      -0.930  10.961  21.759  0.00  0.00    +0.000 C 
ATOM     14  C   UNL     1      -1.354  11.878  20.601  0.00  0.00    +0.000 C 
ENDROOT
BRANCH  11  15
ATOM     15  C   UNL     1       1.794   8.800  20.868  0.00  0.00    +0.000 C 
BRANCH  15  16
ATOM     16  O   UNL     1       2.159   7.707  20.046  0.00  0.00    +0.000 OA
BRANCH  16  17
ATOM     17  C   UNL     1       1.654   6.471  20.559  0.00  0.00    +0.000 C 
BRANCH  17  18
ATOM     18  C   UNL     1       2.319   5.328  19.790  0.00  0.00    +0.000 C 
BRANCH  18  19
ATOM     19  O   UNL     1       1.508   4.147  19.875  0.00  0.00    +0.000 OA
ATOM     20  H   UNL     1       0.918   4.243  20.641  0.00  0.00    +0.000 HD
ENDBRANCH  18  19
BRANCH  18  21
ATOM     21  C   UNL     1       2.556   5.720  18.312  0.00  0.00    +0.000 C 
BRANCH  21  22
ATOM     22  N   UNL     1       3.932   5.462  17.827  0.00  0.00    +0.000 NA
ATOM     23  C   UNL     1       4.480   6.635  17.113  0.00  0.00    +0.000 C 
ATOM     24  C   UNL     1       5.941   6.484  16.679  0.00  0.00    +0.000 C 
ATOM     25  S   UNL     1       6.172   5.109  15.517  0.00  0.00    +0.000 S 
ATOM     26  C   UNL     1       5.358   3.835  16.526  0.00  0.00    +0.000 C 
ATOM     27  C   UNL     1       3.951   4.261  16.967  0.00  0.00    +0.000 C 
ENDBRANCH  21  22
ENDBRANCH  18  21
ENDBRANCH  17  18
ENDBRANCH  16  17
ENDBRANCH  15  16
ENDBRANCH  11  15
TORSDOF 7
ENDMDL
MODEL 8
REMARK VINA RESULT:      -6.5      2.580      4.433
REMARK  Name = 
REMARK  9 active torsions:
REMARK  status: ('A' for Active; 'I' for Inactive)
REMARK    1  A    between atoms: C_1  and  C_2
REMARK    2  A    between atoms: C_7  and  C_8
REMARK    3  A    between atoms: C_11  and  C_12
REMARK    4  A    between atoms: C_12  and  O_13
REMARK    5  A    between atoms: O_13  and  C_14
REMARK    6  A    between atoms: C_14  and  C_15
REMARK    7  A    between atoms: C_15  and  O_16
REMARK    8  A    between atoms: C_15  and  C_17
REMARK    9  A    between atoms: C_17  and  N_18
REMARK                            x       y       z     vdW  Elec       q    Type
REMARK                         _______ _______ _______ _____ _____    ______ ____
ROOT
ATOM      1  C   UNL     1       7.475   3.983  11.887  0.00  0.00    +0.000 C 
ATOM      2  C   UNL     1       6.705   4.210  13.159  0.00  0.00    +0.000 A 
ATOM      3  C   UNL     1       7.372   4.697  14.298  0.00  0.00    +0.000 A 
ATOM      4  C   UNL     1       6.711   4.887  15.528  0.00  0.00    +0.000 A 
ATOM      5  C   UNL     1       5.341   4.567  15.619  0.00  0.00    +0.000 A 
ATOM      6  C   UNL     1       4.674   4.126  14.455  0.00  0.00    +0.000 A 
ATOM      7  C   UNL     1       5.333   3.931  13.237  0.00  0.00    +0.000 A 
ATOM      8  C   UNL     1       4.561   3.398  12.066  0.00  0.00    +0.000 C 
ATOM      9  C   UNL     1       4.566   4.659  16.874  0.00  0.00    +0.000 C 
ATOM     10 CL   UNL     1       3.502   3.312  17.203  0.00  0.00    +0.000 Cl
ATOM     11  C   UNL     1       4.623   5.726  17.702  0.00  0.00    +0.000 C 
ATOM     12  C   UNL     1       5.555   6.882  17.411  0.00  0.00    +0.000 C 
ATOM     13  C   UNL     1       7.016   6.480  17.593  0.00  0.00    +0.000 C 
ATOM     14  C   UNL     1       7.533   5.321  16.725  0.00  0.00    +0.000 C 
ENDROOT
BRANCH  11  15
ATOM     15  C   UNL     1       3.744   5.839  18.923  0.00  0.00    +0.000 C 
BRANCH  15  16
ATOM     16  O   UNL     1       2.494   6.408  18.582  0.00  0.00    +0.000 OA
BRANCH  16  17
ATOM     17  C   UNL     1       2.197   7.551  19.390  0.00  0.00    +0.000 C 
BRANCH  17  18
ATOM     18  C   UNL     1       2.218   8.788  18.493  0.00  0.00    +0.000 C 
BRANCH  18  19
ATOM     19  O   UNL     1       2.380   8.394  17.122  0.00  0.00    +0.000 OA
ATOM     20  H   UNL     1       3.330   8.380  16.925  0.00  0.00    +0.000 HD
ENDBRANCH  18  19
BRANCH  18  21
ATOM     21  C   UNL     1       0.928   9.624  18.670  0.00  0.00    +0.000 C 
BRANCH  21  22
ATOM     22  N   UNL     1       0.786  10.249  20.006  0.00  0.00    +0.000 NA
ATOM     23  C   UNL     1      -0.246   9.565  20.813  0.00  0.00    +0.000 C 
ATOM     24  C   UNL     1      -0.372  10.085  22.249  0.00  0.00    +0.000 C 
ATOM     25  S   UNL     1      -0.853  11.834  22.304  0.00  0.00    +0.000 S 
ATOM     26  C   UNL     1       0.448  12.450  21.195  0.00  0.00    +0.000 C 
ATOM     27  C   UNL     1       0.479  11.688  19.863  0.00  0.00    +0.000 C 
ENDBRANCH  21  22
ENDBRANCH  18  21
ENDBRANCH  17  18
ENDBRANCH  16  17
ENDBRANCH  15  16
ENDBRANCH  11  15
TORSDOF 7
ENDMDL
MODEL 9
REMARK VINA RESULT:      -6.5      1.717      2.194
REMARK  Name = 
REMARK  9 active torsions:
REMARK  status: ('A' for Active; 'I' for Inactive)
REMARK    1  A    between atoms: C_1  and  C_2
REMARK    2  A    between atoms: C_7  and  C_8
REMARK    3  A    between atoms: C_11  and  C_12
REMARK    4  A    between atoms: C_12  and  O_13
REMARK    5  A    between atoms: O_13  and  C_14
REMARK    6  A    between atoms: C_14  and  C_15
REMARK    7  A    between atoms: C_15  and  O_16
REMARK    8  A    between atoms: C_15  and  C_17
REMARK    9  A    between atoms: C_17  and  N_18
REMARK                            x       y       z     vdW  Elec       q    Type
REMARK                         _______ _______ _______ _____ _____    ______ ____
ROOT
ATOM      1  C   UNL     1       6.680   4.006  15.998  0.00  0.00    +0.000 C 
ATOM      2  C   UNL     1       5.647   4.719  16.826  0.00  0.00    +0.000 A 
ATOM      3  C   UNL     1       4.473   4.043  17.206  0.00  0.00    +0.000 A 
ATOM      4  C   UNL     1       3.451   4.674  17.944  0.00  0.00    +0.000 A 
ATOM      5  C   UNL     1       3.610   6.029  18.299  0.00  0.00    +0.000 A 
ATOM      6  C   UNL     1       4.814   6.680  17.953  0.00  0.00    +0.000 A 
ATOM      7  C   UNL     1       5.823   6.055  17.214  0.00  0.00    +0.000 A 
ATOM      8  C   UNL     1       7.043   6.841  16.834  0.00  0.00    +0.000 C 
ATOM      9  C   UNL     1       2.574   6.810  19.009  0.00  0.00    +0.000 C 
ATOM     10 CL   UNL     1       2.290   8.421  18.393  0.00  0.00    +0.000 Cl
ATOM     11  C   UNL     1       1.914   6.348  20.093  0.00  0.00    +0.000 C 
ATOM     12  C   UNL     1       2.161   4.948  20.612  0.00  0.00    +0.000 C 
ATOM     13  C   UNL     1       1.617   3.894  19.652  0.00  0.00    +0.000 C 
ATOM     14  C   UNL     1       2.182   3.896  18.222  0.00  0.00    +0.000 C 
ENDROOT
BRANCH  11  15
ATOM     15  C   UNL     1       0.936   7.204  20.860  0.00  0.00    +0.000 C 
BRANCH  15  16
ATOM     16  O   UNL     1       1.542   8.425  21.243  0.00  0.00    +0.000 OA
BRANCH  16  17
ATOM     17  C   UNL     1       0.571   9.382  21.675  0.00  0.00    +0.000 C 
BRANCH  17  18
ATOM     18  C   UNL     1       0.505  10.498  20.632  0.00  0.00    +0.000 C 
BRANCH  18  19
ATOM     19  O   UNL     1      -0.424  10.143  19.596  0.00  0.00    +0.000 OA
ATOM     20  H   UNL     1      -0.856   9.313  19.853  0.00  0.00    +0.000 HD
ENDBRANCH  18  19
BRANCH  18  21
ATOM     21  C   UNL     1       0.105  11.844  21.284  0.00  0.00    +0.000 C 
BRANCH  21  22
ATOM     22  N   UNL     1      -1.342  11.973  21.574  0.00  0.00    +0.000 NA
ATOM     23  C   UNL     1      -1.961  13.042  20.763  0.00  0.00    +0.000 C 
ATOM     24  C   UNL     1      -3.480  13.161  20.927  0.00  0.00    +0.000 C 
ATOM     25  S   UNL     1      -3.954  13.566  22.630  0.00  0.00    +0.000 S 
ATOM     26  C   UNL     1      -3.027  12.227  23.437  0.00  0.00    +0.000 C 
ATOM     27  C   UNL     1      -1.551  12.215  23.017  0.00  0.00    +0.000 C 
ENDBRANCH  21  22
ENDBRANCH  18  21
ENDBRANCH  17  18
ENDBRANCH  16  17
ENDBRANCH  15  16
ENDBRANCH  11  15
TORSDOF 7
ENDMDL
