MODEL 1
REMARK VINA RESULT:      -7.1      0.000      0.000
REMARK  Name = 
REMARK  11 active torsions:
REMARK  status: ('A' for Active; 'I' for Inactive)
REMARK    1  A    between atoms: C_1  and  C_2
REMARK    2  A    between atoms: C_2  and  O_3
REMARK    3  A    between atoms: O_3  and  C_4
REMARK    4  A    between atoms: N_6  and  C_7
REMARK    5  A    between atoms: C_7  and  C_8
REMARK    6  A    between atoms: C_8  and  C_9
REMARK    7  A    between atoms: C_9  and  O_11
REMARK    8  A    between atoms: O_11  and  C_12
REMARK    9  A    between atoms: C_12  and  C_13
REMARK   10  A    between atoms: C_13  and  S_14
REMARK   11  A    between atoms: S_14  and  C_17
REMARK                            x       y       z     vdW  Elec       q    Type
REMARK                         _______ _______ _______ _____ _____    ______ ____
ROOT
ATOM      1  C   UNL     1       4.211   4.814  19.795  0.00  0.00    +0.000 C 
ENDROOT
BRANCH   1   2
ATOM      2  S   UNL     1       2.626   4.984  19.010  0.00  0.00    +0.000 S 
ATOM      3  O   UNL     1       2.818   4.802  17.582  0.00  0.00    +0.000 OA
ATOM      4  O   UNL     1       1.665   4.169  19.729  0.00  0.00    +0.000 OA
BRANCH   2   5
ATOM      5  C   UNL     1       2.163   6.689  19.249  0.00  0.00    +0.000 A 
ATOM      6  C   UNL     1       2.211   7.577  18.148  0.00  0.00    +0.000 A 
ATOM      7  C   UNL     1       1.837   8.916  18.304  0.00  0.00    +0.000 A 
ATOM      8  C   UNL     1       1.421   9.300  19.557  0.00  0.00    +0.000 A 
ATOM      9  N   UNL     1       1.005  10.514  20.023  0.00  0.00    +0.000 N 
ATOM     10  C   UNL     1       0.690  10.371  21.356  0.00  0.00    +0.000 A 
ATOM     11  O   UNL     1       0.291  11.271  22.079  0.00  0.00    +0.000 OA
ATOM     12  O   UNL     1       0.893   9.049  21.781  0.00  0.00    +0.000 OA
ATOM     13  C   UNL     1       1.348   8.431  20.626  0.00  0.00    +0.000 A 
ATOM     14  C   UNL     1       1.699   7.105  20.505  0.00  0.00    +0.000 A 
ATOM     15  H   UNL     1       0.930  11.382  19.521  0.00  0.00    +0.000 HD
ENDBRANCH   2   5
ENDBRANCH   1   2
BRANCH   1  16
ATOM     16  C   UNL     1       5.331   5.386  18.953  0.00  0.00    +0.000 C 
BRANCH  16  17
ATOM     17  O   UNL     1       6.392   4.417  18.831  0.00  0.00    +0.000 OA
BRANCH  17  18
ATOM     18  C   UNL     1       7.536   4.846  18.226  0.00  0.00    +0.000 C 
ATOM     19  O   UNL     1       8.420   4.109  17.807  0.00  0.00    +0.000 OA
BRANCH  18  20
ATOM     20  C   UNL     1       7.597   6.349  18.181  0.00  0.00    +0.000 C 
BRANCH  20  21
ATOM     21  C   UNL     1       7.406   6.838  16.748  0.00  0.00    +0.000 C 
BRANCH  21  24
ATOM     22  C   UNL     1       5.597   5.945  15.351  0.00  0.00    +0.000 C 
ATOM     23  O   UNL     1       4.909   6.952  15.415  0.00  0.00    +0.000 OA
ATOM     24  N   UNL     1       6.850   5.823  15.876  0.00  0.00    +0.000 N 
ATOM     25  H   UNL     1       7.189   4.871  15.932  0.00  0.00    +0.000 HD
BRANCH  22  26
ATOM     26  O   UNL     1       5.218   4.758  14.822  0.00  0.00    +0.000 OA
BRANCH  26  28
ATOM     27  C   UNL     1       6.114   3.605  12.931  0.00  0.00    +0.000 C 
ATOM     28  C   UNL     1       6.298   3.909  14.406  0.00  0.00    +0.000 C 
ENDBRANCH  26  28
ENDBRANCH  22  26
ENDBRANCH  21  24
ENDBRANCH  20  21
ENDBRANCH  18  20
ENDBRANCH  17  18
ENDBRANCH  16  17
ENDBRANCH   1  16
TORSDOF 10
ENDMDL
MODEL 2
REMARK VINA RESULT:      -6.8      2.008      3.791
REMARK  Name = 
REMARK  11 active torsions:
REMARK  status: ('A' for Active; 'I' for Inactive)
REMARK    1  A    between atoms: C_1  and  C_2
REMARK    2  A    between atoms: C_2  and  O_3
REMARK    3  A    between atoms: O_3  and  C_4
REMARK    4  A    between atoms: N_6  and  C_7
REMARK    5  A    between atoms: C_7  and  C_8
REMARK    6  A    between atoms: C_8  and  C_9
REMARK    7  A    between atoms: C_9  and  O_11
REMARK    8  A    between atoms: O_11  and  C_12
REMARK    9  A    between atoms: C_12  and  C_13
REMARK   10  A    between atoms: C_13  and  S_14
REMARK   11  A    between atoms: S_14  and  C_17
REMARK                            x       y       z     vdW  Elec       q    Type
REMARK                         _______ _______ _______ _____ _____    ______ ____
ROOT
ATOM      1  C   UNL     1       4.097   7.378  17.202  0.00  0.00    +0.000 C 
ENDROOT
BRANCH   1   2
ATOM      2  S   UNL     1       3.100   6.569  18.429  0.00  0.00    +0.000 S 
ATOM      3  O   UNL     1       2.167   5.697  17.737  0.00  0.00    +0.000 OA
ATOM      4  O   UNL     1       3.974   6.036  19.456  0.00  0.00    +0.000 OA
BRANCH   2   5
ATOM      5  C   UNL     1       2.129   7.864  19.176  0.00  0.00    +0.000 A 
ATOM      6  C   UNL     1       1.663   8.929  18.368  0.00  0.00    +0.000 A 
ATOM      7  C   UNL     1       0.885   9.950  18.925  0.00  0.00    +0.000 A 
ATOM      8  C   UNL     1       0.601   9.849  20.267  0.00  0.00    +0.000 A 
ATOM      9  N   UNL     1      -0.114  10.672  21.088  0.00  0.00    +0.000 N 
ATOM     10  C   UNL     1      -0.108  10.119  22.350  0.00  0.00    +0.000 A 
ATOM     11  O   UNL     1      -0.652  10.608  23.328  0.00  0.00    +0.000 OA
ATOM     12  O   UNL     1       0.614   8.916  22.368  0.00  0.00    +0.000 OA
ATOM     13  C   UNL     1       1.032   8.800  21.052  0.00  0.00    +0.000 A 
ATOM     14  C   UNL     1       1.791   7.774  20.534  0.00  0.00    +0.000 A 
ATOM     15  H   UNL     1      -0.575  11.534  20.859  0.00  0.00    +0.000 HD
ENDBRANCH   2   5
ENDBRANCH   1   2
BRANCH   1  16
ATOM     16  C   UNL     1       5.537   6.913  17.238  0.00  0.00    +0.000 C 
BRANCH  16  17
ATOM     17  O   UNL     1       5.908   6.376  15.951  0.00  0.00    +0.000 OA
BRANCH  17  18
ATOM     18  C   UNL     1       6.252   5.057  15.924  0.00  0.00    +0.000 C 
ATOM     19  O   UNL     1       7.395   4.639  15.781  0.00  0.00    +0.000 OA
BRANCH  18  20
ATOM     20  C   UNL     1       5.038   4.175  16.044  0.00  0.00    +0.000 C 
BRANCH  20  21
ATOM     21  C   UNL     1       5.172   3.263  17.260  0.00  0.00    +0.000 C 
BRANCH  21  24
ATOM     22  C   UNL     1       3.958   2.670  19.308  0.00  0.00    +0.000 C 
ATOM     23  O   UNL     1       4.959   2.370  19.940  0.00  0.00    +0.000 OA
ATOM     24  N   UNL     1       3.959   3.197  18.050  0.00  0.00    +0.000 N 
ATOM     25  H   UNL     1       3.058   3.180  17.589  0.00  0.00    +0.000 HD
BRANCH  22  26
ATOM     26  O   UNL     1       2.680   2.465  19.705  0.00  0.00    +0.000 OA
BRANCH  26  28
ATOM     27  C   UNL     1       0.985   3.962  20.478  0.00  0.00    +0.000 C 
ATOM     28  C   UNL     1       2.270   3.241  20.841  0.00  0.00    +0.000 C 
ENDBRANCH  26  28
ENDBRANCH  22  26
ENDBRANCH  21  24
ENDBRANCH  20  21
ENDBRANCH  18  20
ENDBRANCH  17  18
ENDBRANCH  16  17
ENDBRANCH   1  16
TORSDOF 10
ENDMDL
MODEL 3
REMARK VINA RESULT:      -6.7      1.400      1.615
REMARK  Name = 
REMARK  11 active torsions:
REMARK  status: ('A' for Active; 'I' for Inactive)
REMARK    1  A    between atoms: C_1  and  C_2
REMARK    2  A    between atoms: C_2  and  O_3
REMARK    3  A    between atoms: O_3  and  C_4
REMARK    4  A    between atoms: N_6  and  C_7
REMARK    5  A    between atoms: C_7  and  C_8
REMARK    6  A    between atoms: C_8  and  C_9
REMARK    7  A    between atoms: C_9  and  O_11
REMARK    8  A    between atoms: O_11  and  C_12
REMARK    9  A    between atoms: C_12  and  C_13
REMARK   10  A    between atoms: C_13  and  S_14
REMARK   11  A    between atoms: S_14  and  C_17
REMARK                            x       y       z     vdW  Elec       q    Type
REMARK                         _______ _______ _______ _____ _____    ______ ____
ROOT
ATOM      1  C   UNL     1       4.130   3.076  19.005  0.00  0.00    +0.000 C 
ENDROOT
BRANCH   1   2
ATOM      2  S   UNL     1       2.384   3.382  18.889  0.00  0.00    +0.000 S 
ATOM      3  O   UNL     1       1.974   3.095  17.526  0.00  0.00    +0.000 OA
ATOM      4  O   UNL     1       1.726   2.728  20.003  0.00  0.00    +0.000 OA
BRANCH   2   5
ATOM      5  C   UNL     1       2.198   5.140  19.117  0.00  0.00    +0.000 A 
ATOM      6  C   UNL     1       2.411   6.004  18.017  0.00  0.00    +0.000 A 
ATOM      7  C   UNL     1       2.255   7.387  18.165  0.00  0.00    +0.000 A 
ATOM      8  C   UNL     1       1.882   7.838  19.409  0.00  0.00    +0.000 A 
ATOM      9  N   UNL     1       1.659   9.105  19.866  0.00  0.00    +0.000 N 
ATOM     10  C   UNL     1       1.300   9.020  21.193  0.00  0.00    +0.000 A 
ATOM     11  O   UNL     1       1.037   9.975  21.907  0.00  0.00    +0.000 OA
ATOM     12  O   UNL     1       1.278   7.684  21.622  0.00  0.00    +0.000 OA
ATOM     13  C   UNL     1       1.650   6.997  20.477  0.00  0.00    +0.000 A 
ATOM     14  C   UNL     1       1.784   5.631  20.364  0.00  0.00    +0.000 A 
ATOM     15  H   UNL     1       1.735   9.972  19.362  0.00  0.00    +0.000 HD
ENDBRANCH   2   5
ENDBRANCH   1   2
BRANCH   1  16
ATOM     16  C   UNL     1       4.925   4.353  19.175  0.00  0.00    +0.000 C 
BRANCH  16  17
ATOM     17  O   UNL     1       6.328   4.084  18.976  0.00  0.00    +0.000 OA
BRANCH  17  18
ATOM     18  C   UNL     1       6.963   4.848  18.042  0.00  0.00    +0.000 C 
ATOM     19  O   UNL     1       8.039   4.567  17.529  0.00  0.00    +0.000 OA
BRANCH  18  20
ATOM     20  C   UNL     1       6.194   6.109  17.756  0.00  0.00    +0.000 C 
BRANCH  20  21
ATOM     21  C   UNL     1       5.996   6.272  16.252  0.00  0.00    +0.000 C 
BRANCH  21  24
ATOM     22  C   UNL     1       6.856   4.808  14.481  0.00  0.00    +0.000 C 
ATOM     23  O   UNL     1       7.749   5.569  14.141  0.00  0.00    +0.000 OA
ATOM     24  N   UNL     1       6.022   5.010  15.542  0.00  0.00    +0.000 N 
ATOM     25  H   UNL     1       5.209   4.408  15.553  0.00  0.00    +0.000 HD
BRANCH  22  26
ATOM     26  O   UNL     1       6.487   3.679  13.832  0.00  0.00    +0.000 OA
BRANCH  26  28
ATOM     27  C   UNL     1       5.426   2.831  11.866  0.00  0.00    +0.000 C 
ATOM     28  C   UNL     1       5.308   3.806  13.023  0.00  0.00    +0.000 C 
ENDBRANCH  26  28
ENDBRANCH  22  26
ENDBRANCH  21  24
ENDBRANCH  20  21
ENDBRANCH  18  20
ENDBRANCH  17  18
ENDBRANCH  16  17
ENDBRANCH   1  16
TORSDOF 10
ENDMDL
MODEL 4
REMARK VINA RESULT:      -6.7      2.730      7.047
REMARK  Name = 
REMARK  11 active torsions:
REMARK  status: ('A' for Active; 'I' for Inactive)
REMARK    1  A    between atoms: C_1  and  C_2
REMARK    2  A    between atoms: C_2  and  O_3
REMARK    3  A    between atoms: O_3  and  C_4
REMARK    4  A    between atoms: N_6  and  C_7
REMARK    5  A    between atoms: C_7  and  C_8
REMARK    6  A    between atoms: C_8  and  C_9
REMARK    7  A    between atoms: C_9  and  O_11
REMARK    8  A    between atoms: O_11  and  C_12
REMARK    9  A    between atoms: C_12  and  C_13
REMARK   10  A    between atoms: C_13  and  S_14
REMARK   11  A    between atoms: S_14  and  C_17
REMARK                            x       y       z     vdW  Elec       q    Type
REMARK                         _______ _______ _______ _____ _____    ______ ____
ROOT
ATOM      1  C   UNL     1       5.137   6.025  16.365  0.00  0.00    +0.000 C 
ENDROOT
BRANCH   1   2
ATOM      2  S   UNL     1       5.452   4.366  16.916  0.00  0.00    +0.000 S 
ATOM      3  O   UNL     1       5.440   3.501  15.750  0.00  0.00    +0.000 OA
ATOM      4  O   UNL     1       6.601   4.384  17.802  0.00  0.00    +0.000 OA
BRANCH   2   5
ATOM      5  C   UNL     1       4.032   3.918  17.897  0.00  0.00    +0.000 A 
ATOM      6  C   UNL     1       2.763   3.838  17.275  0.00  0.00    +0.000 A 
ATOM      7  C   UNL     1       1.635   3.472  18.017  0.00  0.00    +0.000 A 
ATOM      8  C   UNL     1       1.834   3.194  19.349  0.00  0.00    +0.000 A 
ATOM      9  N   UNL     1       0.951   2.823  20.322  0.00  0.00    +0.000 N 
ATOM     10  C   UNL     1       1.657   2.658  21.493  0.00  0.00    +0.000 A 
ATOM     11  O   UNL     1       1.166   2.334  22.564  0.00  0.00    +0.000 OA
ATOM     12  O   UNL     1       3.022   2.917  21.298  0.00  0.00    +0.000 OA
ATOM     13  C   UNL     1       3.074   3.247  19.953  0.00  0.00    +0.000 A 
ATOM     14  C   UNL     1       4.206   3.593  19.250  0.00  0.00    +0.000 A 
ATOM     15  H   UNL     1      -0.041   2.686  20.244  0.00  0.00    +0.000 HD
ENDBRANCH   2   5
ENDBRANCH   1   2
BRANCH   1  16
ATOM     16  C   UNL     1       4.658   6.920  17.488  0.00  0.00    +0.000 C 
BRANCH  16  17
ATOM     17  O   UNL     1       3.387   7.505  17.135  0.00  0.00    +0.000 OA
BRANCH  17  18
ATOM     18  C   UNL     1       2.663   8.040  18.159  0.00  0.00    +0.000 C 
ATOM     19  O   UNL     1       2.396   7.456  19.201  0.00  0.00    +0.000 OA
BRANCH  18  20
ATOM     20  C   UNL     1       2.192   9.430  17.823  0.00  0.00    +0.000 C 
BRANCH  20  21
ATOM     21  C   UNL     1       0.692   9.549  18.077  0.00  0.00    +0.000 C 
BRANCH  21  24
ATOM     22  C   UNL     1      -0.551  10.583  19.923  0.00  0.00    +0.000 C 
ATOM     23  O   UNL     1      -1.290  11.233  19.199  0.00  0.00    +0.000 OA
ATOM     24  N   UNL     1       0.368   9.677  19.484  0.00  0.00    +0.000 N 
ATOM     25  H   UNL     1       1.043   9.394  20.184  0.00  0.00    +0.000 HD
BRANCH  22  26
ATOM     26  O   UNL     1      -0.458  10.698  21.268  0.00  0.00    +0.000 OA
BRANCH  26  28
ATOM     27  C   UNL     1       0.058   9.498  23.268  0.00  0.00    +0.000 C 
ATOM     28  C   UNL     1       0.540   9.865  21.877  0.00  0.00    +0.000 C 
ENDBRANCH  26  28
ENDBRANCH  22  26
ENDBRANCH  21  24
ENDBRANCH  20  21
ENDBRANCH  18  20
ENDBRANCH  17  18
ENDBRANCH  16  17
ENDBRANCH   1  16
TORSDOF 10
ENDMDL
MODEL 5
REMARK VINA RESULT:      -6.7      2.212      3.962
REMARK  Name = 
REMARK  11 active torsions:
REMARK  status: ('A' for Active; 'I' for Inactive)
REMARK    1  A    between atoms: C_1  and  C_2
REMARK    2  A    between atoms: C_2  and  O_3
REMARK    3  A    between atoms: O_3  and  C_4
REMARK    4  A    between atoms: N_6  and  C_7
REMARK    5  A    between atoms: C_7  and  C_8
REMARK    6  A    between atoms: C_8  and  C_9
REMARK    7  A    between atoms: C_9  and  O_11
REMARK    8  A    between atoms: O_11  and  C_12
REMARK    9  A    between atoms: C_12  and  C_13
REMARK   10  A    between atoms: C_13  and  S_14
REMARK   11  A    between atoms: S_14  and  C_17
REMARK                            x       y       z     vdW  Elec       q    Type
REMARK                         _______ _______ _______ _____ _____    ______ ____
ROOT
ATOM      1  C   UNL     1       4.093   7.293  17.215  0.00  0.00    +0.000 C 
ENDROOT
BRANCH   1   2
ATOM      2  S   UNL     1       3.167   6.407  18.444  0.00  0.00    +0.000 S 
ATOM      3  O   UNL     1       2.276   5.492  17.754  0.00  0.00    +0.000 OA
ATOM      4  O   UNL     1       4.089   5.911  19.448  0.00  0.00    +0.000 OA
BRANCH   2   5
ATOM      5  C   UNL     1       2.134   7.631  19.228  0.00  0.00    +0.000 A 
ATOM      6  C   UNL     1       1.723   7.430  20.567  0.00  0.00    +0.000 A 
ATOM      7  C   UNL     1       0.927   8.383  21.212  0.00  0.00    +0.000 A 
ATOM      8  C   UNL     1       0.587   9.499  20.484  0.00  0.00    +0.000 A 
ATOM      9  N   UNL     1      -0.169  10.585  20.822  0.00  0.00    +0.000 N 
ATOM     10  C   UNL     1      -0.202  11.432  19.737  0.00  0.00    +0.000 A 
ATOM     11  O   UNL     1      -0.800  12.496  19.701  0.00  0.00    +0.000 OA
ATOM     12  O   UNL     1       0.544  10.910  18.669  0.00  0.00    +0.000 OA
ATOM     13  C   UNL     1       1.007   9.710  19.187  0.00  0.00    +0.000 A 
ATOM     14  C   UNL     1       1.800   8.798  18.527  0.00  0.00    +0.000 A 
ATOM     15  H   UNL     1      -0.639  10.771  21.691  0.00  0.00    +0.000 HD
ENDBRANCH   2   5
ENDBRANCH   1   2
BRANCH   1  16
ATOM     16  C   UNL     1       5.553   6.893  17.200  0.00  0.00    +0.000 C 
BRANCH  16  17
ATOM     17  O   UNL     1       5.905   6.381  15.897  0.00  0.00    +0.000 OA
BRANCH  17  18
ATOM     18  C   UNL     1       6.334   5.087  15.852  0.00  0.00    +0.000 C 
ATOM     19  O   UNL     1       7.498   4.747  15.688  0.00  0.00    +0.000 OA
BRANCH  18  20
ATOM     20  C   UNL     1       5.182   4.128  15.983  0.00  0.00    +0.000 C 
BRANCH  20  21
ATOM     21  C   UNL     1       5.306   3.334  17.280  0.00  0.00    +0.000 C 
BRANCH  21  24
ATOM     22  C   UNL     1       3.930   2.586  19.169  0.00  0.00    +0.000 C 
ATOM     23  O   UNL     1       4.859   2.536  19.961  0.00  0.00    +0.000 OA
ATOM     24  N   UNL     1       4.023   3.045  17.888  0.00  0.00    +0.000 N 
ATOM     25  H   UNL     1       3.229   2.815  17.304  0.00  0.00    +0.000 HD
BRANCH  22  26
ATOM     26  O   UNL     1       2.675   2.130  19.391  0.00  0.00    +0.000 OA
BRANCH  26  28
ATOM     27  C   UNL     1       1.141   3.640  20.428  0.00  0.00    +0.000 C 
ATOM     28  C   UNL     1       2.114   2.499  20.659  0.00  0.00    +0.000 C 
ENDBRANCH  26  28
ENDBRANCH  22  26
ENDBRANCH  21  24
ENDBRANCH  20  21
ENDBRANCH  18  20
ENDBRANCH  17  18
ENDBRANCH  16  17
ENDBRANCH   1  16
TORSDOF 10
ENDMDL
MODEL 6
REMARK VINA RESULT:      -6.6      1.200      1.280
REMARK  Name = 
REMARK  11 active torsions:
REMARK  status: ('A' for Active; 'I' for Inactive)
REMARK    1  A    between atoms: C_1  and  C_2
REMARK    2  A    between atoms: C_2  and  O_3
REMARK    3  A    between atoms: O_3  and  C_4
REMARK    4  A    between atoms: N_6  and  C_7
REMARK    5  A    between atoms: C_7  and  C_8
REMARK    6  A    between atoms: C_8  and  C_9
REMARK    7  A    between atoms: C_9  and  O_11
REMARK    8  A    between atoms: O_11  and  C_12
REMARK    9  A    between atoms: C_12  and  C_13
REMARK   10  A    between atoms: C_13  and  S_14
REMARK   11  A    between atoms: S_14  and  C_17
REMARK                            x       y       z     vdW  Elec       q    Type
REMARK                         _______ _______ _______ _____ _____    ______ ____
ROOT
ATOM      1  C   UNL     1       4.327   3.705  18.009  0.00  0.00    +0.000 C 
ENDROOT
BRANCH   1   2
ATOM      2  S   UNL     1       2.632   3.791  18.533  0.00  0.00    +0.000 S 
ATOM      3  O   UNL     1       1.798   3.460  17.391  0.00  0.00    +0.000 OA
ATOM      4  O   UNL     1       2.495   3.056  19.776  0.00  0.00    +0.000 OA
BRANCH   2   5
ATOM      5  C   UNL     1       2.338   5.511  18.896  0.00  0.00    +0.000 A 
ATOM      6  C   UNL     1       2.473   6.467  17.862  0.00  0.00    +0.000 A 
ATOM      7  C   UNL     1       2.232   7.821  18.115  0.00  0.00    +0.000 A 
ATOM      8  C   UNL     1       1.856   8.153  19.396  0.00  0.00    +0.000 A 
ATOM      9  N   UNL     1       1.562   9.366  19.951  0.00  0.00    +0.000 N 
ATOM     10  C   UNL     1       1.235   9.158  21.272  0.00  0.00    +0.000 A 
ATOM     11  O   UNL     1       0.927  10.038  22.061  0.00  0.00    +0.000 OA
ATOM     12  O   UNL     1       1.307   7.796  21.600  0.00  0.00    +0.000 OA
ATOM     13  C   UNL     1       1.700   7.221  20.401  0.00  0.00    +0.000 A 
ATOM     14  C   UNL     1       1.919   5.880  20.183  0.00  0.00    +0.000 A 
ATOM     15  H   UNL     1       1.572  10.270  19.513  0.00  0.00    +0.000 HD
ENDBRANCH   2   5
ENDBRANCH   1   2
BRANCH   1  16
ATOM     16  C   UNL     1       5.284   4.159  19.090  0.00  0.00    +0.000 C 
BRANCH  16  17
ATOM     17  O   UNL     1       6.617   4.262  18.550  0.00  0.00    +0.000 OA
BRANCH  17  18
ATOM     18  C   UNL     1       7.335   5.362  18.915  0.00  0.00    +0.000 C 
ATOM     19  O   UNL     1       8.282   5.348  19.691  0.00  0.00    +0.000 OA
BRANCH  18  20
ATOM     20  C   UNL     1       6.781   6.609  18.279  0.00  0.00    +0.000 C 
BRANCH  20  21
ATOM     21  C   UNL     1       7.373   6.792  16.885  0.00  0.00    +0.000 C 
BRANCH  21  24
ATOM     22  C   UNL     1       6.224   5.280  15.332  0.00  0.00    +0.000 C 
ATOM     23  O   UNL     1       5.290   6.038  15.120  0.00  0.00    +0.000 OA
ATOM     24  N   UNL     1       7.318   5.584  16.087  0.00  0.00    +0.000 N 
ATOM     25  H   UNL     1       7.883   4.784  16.343  0.00  0.00    +0.000 HD
BRANCH  22  26
ATOM     26  O   UNL     1       6.306   3.992  14.924  0.00  0.00    +0.000 OA
BRANCH  26  28
ATOM     27  C   UNL     1       7.216   4.633  12.810  0.00  0.00    +0.000 C 
ATOM     28  C   UNL     1       6.162   3.795  13.510  0.00  0.00    +0.000 C 
ENDBRANCH  26  28
ENDBRANCH  22  26
ENDBRANCH  21  24
ENDBRANCH  20  21
ENDBRANCH  18  20
ENDBRANCH  17  18
ENDBRANCH  16  17
ENDBRANCH   1  16
TORSDOF 10
ENDMDL
MODEL 7
REMARK VINA RESULT:      -6.6      2.599      7.845
REMARK  Name = 
REMARK  11 active torsions:
REMARK  status: ('A' for Active; 'I' for Inactive)
REMARK    1  A    between atoms: C_1  and  C_2
REMARK    2  A    between atoms: C_2  and  O_3
REMARK    3  A    between atoms: O_3  and  C_4
REMARK    4  A    between atoms: N_6  and  C_7
REMARK    5  A    between atoms: C_7  and  C_8
REMARK    6  A    between atoms: C_8  and  C_9
REMARK    7  A    between atoms: C_9  and  O_11
REMARK    8  A    between atoms: O_11  and  C_12
REMARK    9  A    between atoms: C_12  and  C_13
REMARK   10  A    between atoms: C_13  and  S_14
REMARK   11  A    between atoms: S_14  and  C_17
REMARK                            x       y       z     vdW  Elec       q    Type
REMARK                         _______ _______ _______ _____ _____    ______ ____
ROOT
ATOM      1  C   UNL     1       2.210   5.621  20.136  0.00  0.00    +0.000 C 
ENDROOT
BRANCH   1   2
ATOM      2  S   UNL     1       2.602   4.127  19.259  0.00  0.00    +0.000 S 
ATOM      3  O   UNL     1       2.888   3.098  20.242  0.00  0.00    +0.000 OA
ATOM      4  O   UNL     1       1.589   3.908  18.244  0.00  0.00    +0.000 OA
BRANCH   2   5
ATOM      5  C   UNL     1       4.136   4.466  18.414  0.00  0.00    +0.000 A 
ATOM      6  C   UNL     1       5.309   4.678  19.176  0.00  0.00    +0.000 A 
ATOM      7  C   UNL     1       6.529   4.928  18.539  0.00  0.00    +0.000 A 
ATOM      8  C   UNL     1       6.517   4.945  17.164  0.00  0.00    +0.000 A 
ATOM      9  N   UNL     1       7.524   5.163  16.268  0.00  0.00    +0.000 N 
ATOM     10  C   UNL     1       6.992   5.065  15.002  0.00  0.00    +0.000 A 
ATOM     11  O   UNL     1       7.623   5.213  13.967  0.00  0.00    +0.000 OA
ATOM     12  O   UNL     1       5.620   4.773  15.054  0.00  0.00    +0.000 OA
ATOM     13  C   UNL     1       5.380   4.713  16.418  0.00  0.00    +0.000 A 
ATOM     14  C   UNL     1       4.166   4.454  17.013  0.00  0.00    +0.000 A 
ATOM     15  H   UNL     1       8.491   5.365  16.454  0.00  0.00    +0.000 HD
ENDBRANCH   2   5
ENDBRANCH   1   2
BRANCH   1  16
ATOM     16  C   UNL     1       2.408   6.855  19.281  0.00  0.00    +0.000 C 
BRANCH  16  17
ATOM     17  O   UNL     1       1.881   8.011  19.965  0.00  0.00    +0.000 OA
BRANCH  17  18
ATOM     18  C   UNL     1       1.386   9.007  19.176  0.00  0.00    +0.000 C 
ATOM     19  O   UNL     1       1.631   9.135  17.983  0.00  0.00    +0.000 OA
BRANCH  18  20
ATOM     20  C   UNL     1       0.535   9.959  19.973  0.00  0.00    +0.000 C 
BRANCH  20  21
ATOM     21  C   UNL     1       0.592  11.353  19.356  0.00  0.00    +0.000 C 
BRANCH  21  24
ATOM     22  C   UNL     1      -1.505  11.924  18.216  0.00  0.00    +0.000 C 
ATOM     23  O   UNL     1      -2.030  12.415  19.204  0.00  0.00    +0.000 OA
ATOM     24  N   UNL     1      -0.219  11.473  18.161  0.00  0.00    +0.000 N 
ATOM     25  H   UNL     1      -0.012  10.901  17.352  0.00  0.00    +0.000 HD
BRANCH  22  26
ATOM     26  O   UNL     1      -2.119  11.671  17.036  0.00  0.00    +0.000 OA
BRANCH  26  28
ATOM     27  C   UNL     1      -3.247   9.634  17.572  0.00  0.00    +0.000 C 
ATOM     28  C   UNL     1      -2.201  10.282  16.684  0.00  0.00    +0.000 C 
ENDBRANCH  26  28
ENDBRANCH  22  26
ENDBRANCH  21  24
ENDBRANCH  20  21
ENDBRANCH  18  20
ENDBRANCH  17  18
ENDBRANCH  16  17
ENDBRANCH   1  16
TORSDOF 10
ENDMDL
MODEL 8
REMARK VINA RESULT:      -6.5      2.396      7.566
REMARK  Name = 
REMARK  11 active torsions:
REMARK  status: ('A' for Active; 'I' for Inactive)
REMARK    1  A    between atoms: C_1  and  C_2
REMARK    2  A    between atoms: C_2  and  O_3
REMARK    3  A    between atoms: O_3  and  C_4
REMARK    4  A    between atoms: N_6  and  C_7
REMARK    5  A    between atoms: C_7  and  C_8
REMARK    6  A    between atoms: C_8  and  C_9
REMARK    7  A    between atoms: C_9  and  O_11
REMARK    8  A    between atoms: O_11  and  C_12
REMARK    9  A    between atoms: C_12  and  C_13
REMARK   10  A    between atoms: C_13  and  S_14
REMARK   11  A    between atoms: S_14  and  C_17
REMARK                            x       y       z     vdW  Elec       q    Type
REMARK                         _______ _______ _______ _____ _____    ______ ____
ROOT
ATOM      1  C   UNL     1       1.871   3.953  19.201  0.00  0.00    +0.000 C 
ENDROOT
BRANCH   1   2
ATOM      2  S   UNL     1       3.295   2.893  19.242  0.00  0.00    +0.000 S 
ATOM      3  O   UNL     1       3.742   2.805  20.621  0.00  0.00    +0.000 OA
ATOM      4  O   UNL     1       2.995   1.688  18.493  0.00  0.00    +0.000 OA
BRANCH   2   5
ATOM      5  C   UNL     1       4.563   3.773  18.351  0.00  0.00    +0.000 A 
ATOM      6  C   UNL     1       5.458   4.603  19.066  0.00  0.00    +0.000 A 
ATOM      7  C   UNL     1       6.474   5.291  18.393  0.00  0.00    +0.000 A 
ATOM      8  C   UNL     1       6.550   5.107  17.033  0.00  0.00    +0.000 A 
ATOM      9  N   UNL     1       7.407   5.634  16.110  0.00  0.00    +0.000 N 
ATOM     10  C   UNL     1       7.066   5.126  14.876  0.00  0.00    +0.000 A 
ATOM     11  O   UNL     1       7.630   5.401  13.829  0.00  0.00    +0.000 OA
ATOM     12  O   UNL     1       5.974   4.250  14.978  0.00  0.00    +0.000 OA
ATOM     13  C   UNL     1       5.694   4.279  16.335  0.00  0.00    +0.000 A 
ATOM     14  C   UNL     1       4.691   3.579  16.968  0.00  0.00    +0.000 A 
ATOM     15  H   UNL     1       8.163   6.280  16.259  0.00  0.00    +0.000 HD
ENDBRANCH   2   5
ENDBRANCH   1   2
BRANCH   1  16
ATOM     16  C   UNL     1       1.728   4.770  20.467  0.00  0.00    +0.000 C 
BRANCH  16  17
ATOM     17  O   UNL     1       2.642   5.886  20.433  0.00  0.00    +0.000 OA
BRANCH  17  18
ATOM     18  C   UNL     1       2.145   7.059  19.949  0.00  0.00    +0.000 C 
ATOM     19  O   UNL     1       2.501   7.586  18.902  0.00  0.00    +0.000 OA
BRANCH  18  20
ATOM     20  C   UNL     1       1.133   7.652  20.892  0.00  0.00    +0.000 C 
BRANCH  20  21
ATOM     21  C   UNL     1       1.140   9.173  20.779  0.00  0.00    +0.000 C 
BRANCH  21  24
ATOM     22  C   UNL     1      -0.431  10.458  19.401  0.00  0.00    +0.000 C 
ATOM     23  O   UNL     1      -0.989  10.992  20.347  0.00  0.00    +0.000 OA
ATOM     24  N   UNL     1       0.659   9.644  19.496  0.00  0.00    +0.000 N 
ATOM     25  H   UNL     1       0.858   9.114  18.658  0.00  0.00    +0.000 HD
BRANCH  22  26
ATOM     26  O   UNL     1      -0.835  10.515  18.110  0.00  0.00    +0.000 OA
BRANCH  26  28
ATOM     27  C   UNL     1      -3.023   9.694  17.613  0.00  0.00    +0.000 C 
ATOM     28  C   UNL     1      -2.196  10.929  17.920  0.00  0.00    +0.000 C 
ENDBRANCH  26  28
ENDBRANCH  22  26
ENDBRANCH  21  24
ENDBRANCH  20  21
ENDBRANCH  18  20
ENDBRANCH  17  18
ENDBRANCH  16  17
ENDBRANCH   1  16
TORSDOF 10
ENDMDL
MODEL 9
REMARK VINA RESULT:      -6.5      2.023      2.524
REMARK  Name = 
REMARK  11 active torsions:
REMARK  status: ('A' for Active; 'I' for Inactive)
REMARK    1  A    between atoms: C_1  and  C_2
REMARK    2  A    between atoms: C_2  and  O_3
REMARK    3  A    between atoms: O_3  and  C_4
REMARK    4  A    between atoms: N_6  and  C_7
REMARK    5  A    between atoms: C_7  and  C_8
REMARK    6  A    between atoms: C_8  and  C_9
REMARK    7  A    between atoms: C_9  and  O_11
REMARK    8  A    between atoms: O_11  and  C_12
REMARK    9  A    between atoms: C_12  and  C_13
REMARK   10  A    between atoms: C_13  and  S_14
REMARK   11  A    between atoms: S_14  and  C_17
REMARK                            x       y       z     vdW  Elec       q    Type
REMARK                         _______ _______ _______ _____ _____    ______ ____
ROOT
ATOM      1  C   UNL     1       3.876   2.616  19.424  0.00  0.00    +0.000 C 
ENDROOT
BRANCH   1   2
ATOM      2  S   UNL     1       2.157   2.987  19.174  0.00  0.00    +0.000 S 
ATOM      3  O   UNL     1       1.826   2.650  17.801  0.00  0.00    +0.000 OA
ATOM      4  O   UNL     1       1.398   2.417  20.271  0.00  0.00    +0.000 OA
BRANCH   2   5
ATOM      5  C   UNL     1       2.035   4.761  19.308  0.00  0.00    +0.000 A 
ATOM      6  C   UNL     1       1.763   5.340  20.570  0.00  0.00    +0.000 A 
ATOM      7  C   UNL     1       1.679   6.730  20.706  0.00  0.00    +0.000 A 
ATOM      8  C   UNL     1       1.881   7.476  19.569  0.00  0.00    +0.000 A 
ATOM      9  N   UNL     1       1.859   8.827  19.376  0.00  0.00    +0.000 N 
ATOM     10  C   UNL     1       2.130   9.070  18.048  0.00  0.00    +0.000 A 
ATOM     11  O   UNL     1       2.180  10.178  17.537  0.00  0.00    +0.000 OA
ATOM     12  O   UNL     1       2.340   7.870  17.350  0.00  0.00    +0.000 OA
ATOM     13  C   UNL     1       2.171   6.916  18.341  0.00  0.00    +0.000 A 
ATOM     14  C   UNL     1       2.271   5.553  18.175  0.00  0.00    +0.000 A 
ATOM     15  H   UNL     1       1.678   9.550  20.050  0.00  0.00    +0.000 HD
ENDBRANCH   2   5
ENDBRANCH   1   2
BRANCH   1  16
ATOM     16  C   UNL     1       4.767   3.339  18.437  0.00  0.00    +0.000 C 
BRANCH  16  17
ATOM     17  O   UNL     1       5.967   3.788  19.101  0.00  0.00    +0.000 OA
BRANCH  17  18
ATOM     18  C   UNL     1       6.149   5.137  19.172  0.00  0.00    +0.000 C 
ATOM     19  O   UNL     1       5.325   5.928  19.612  0.00  0.00    +0.000 OA
BRANCH  18  20
ATOM     20  C   UNL     1       7.480   5.537  18.593  0.00  0.00    +0.000 C 
BRANCH  20  21
ATOM     21  C   UNL     1       7.273   6.360  17.324  0.00  0.00    +0.000 C 
BRANCH  21  24
ATOM     22  C   UNL     1       6.305   5.111  15.447  0.00  0.00    +0.000 C 
ATOM     23  O   UNL     1       5.154   5.440  15.685  0.00  0.00    +0.000 OA
ATOM     24  N   UNL     1       7.401   5.572  16.116  0.00  0.00    +0.000 N 
ATOM     25  H   UNL     1       8.246   5.040  15.948  0.00  0.00    +0.000 HD
BRANCH  22  26
ATOM     26  O   UNL     1       6.693   4.183  14.541  0.00  0.00    +0.000 OA
BRANCH  26  28
ATOM     27  C   UNL     1       6.227   3.086  12.469  0.00  0.00    +0.000 C 
ATOM     28  C   UNL     1       6.226   4.415  13.203  0.00  0.00    +0.000 C 
ENDBRANCH  26  28
ENDBRANCH  22  26
ENDBRANCH  21  24
ENDBRANCH  20  21
ENDBRANCH  18  20
ENDBRANCH  17  18
ENDBRANCH  16  17
ENDBRANCH   1  16
TORSDOF 10
ENDMDL
