MODEL 1
REMARK VINA RESULT:      -6.8      0.000      0.000
REMARK  Name = 
REMARK  6 active torsions:
REMARK  status: ('A' for Active; 'I' for Inactive)
REMARK    1  A    between atoms: C_1  and  C_2
REMARK    2  A    between atoms: C_2  and  O_3
REMARK    3  A    between atoms: O_3  and  C_4
REMARK    4  A    between atoms: C_6  and  C_7
REMARK    5  A    between atoms: C_11  and  N_12
REMARK    6  A    between atoms: C_17  and  C_18
REMARK                            x       y       z     vdW  Elec       q    Type
REMARK                         _______ _______ _______ _____ _____    ______ ____
ROOT
ATOM      1  C   UNL     1       2.424   4.988  19.748  0.00  0.00    +0.000 A 
ATOM      2  C   UNL     1       1.878   5.910  20.657  0.00  0.00    +0.000 A 
ATOM      3  C   UNL     1       1.795   7.264  20.339  0.00  0.00    +0.000 A 
ATOM      4  C   UNL     1       2.279   7.661  19.119  0.00  0.00    +0.000 A 
ATOM      5  N   UNL     1       2.773   6.800  18.213  0.00  0.00    +0.000 NA
ATOM      6  C   UNL     1       2.829   5.468  18.485  0.00  0.00    +0.000 A 
ENDROOT
BRANCH   6   7
ATOM      7  N   UNL     1       3.313   4.609  17.476  0.00  0.00    +0.000 N 
ATOM      8  C   UNL     1       4.657   4.494  17.054  0.00  0.00    +0.000 A 
ATOM      9  C   UNL     1       5.736   4.675  17.923  0.00  0.00    +0.000 A 
ATOM     10  C   UNL     1       7.036   4.733  17.435  0.00  0.00    +0.000 A 
ATOM     11  C   UNL     1       7.252   4.521  16.089  0.00  0.00    +0.000 A 
ATOM     12  C   UNL     1       6.156   4.248  15.281  0.00  0.00    +0.000 A 
ATOM     13  C   UNL     1       6.372   3.922  13.832  0.00  0.00    +0.000 C 
ATOM     14  N   UNL     1       4.872   4.239  15.743  0.00  0.00    +0.000 NA
ATOM     15  H   UNL     1       2.709   4.565  16.663  0.00  0.00    +0.000 HD
ENDBRANCH   6   7
BRANCH   3  16
ATOM     16  C   UNL     1       1.232   8.209  21.237  0.00  0.00    +0.000 C 
ATOM     17  N   UNL     1       0.770   8.971  21.972  0.00  0.00    +0.000 NA
ENDBRANCH   3  16
BRANCH   1  18
ATOM     18  O   UNL     1       2.547   3.642  20.027  0.00  0.00    +0.000 OA
BRANCH  18  20
ATOM     19  C   UNL     1       0.772   2.428  18.876  0.00  0.00    +0.000 C 
ATOM     20  C   UNL     1       1.303   2.939  20.200  0.00  0.00    +0.000 C 
ENDBRANCH  18  20
ENDBRANCH   1  18
TORSDOF 4
ENDMDL
MODEL 2
REMARK VINA RESULT:      -6.4      2.453      6.592
REMARK  Name = 
REMARK  6 active torsions:
REMARK  status: ('A' for Active; 'I' for Inactive)
REMARK    1  A    between atoms: C_1  and  C_2
REMARK    2  A    between atoms: C_2  and  O_3
REMARK    3  A    between atoms: O_3  and  C_4
REMARK    4  A    between atoms: C_6  and  C_7
REMARK    5  A    between atoms: C_11  and  N_12
REMARK    6  A    between atoms: C_17  and  C_18
REMARK                            x       y       z     vdW  Elec       q    Type
REMARK                         _______ _______ _______ _____ _____    ______ ____
ROOT
ATOM      1  C   UNL     1       6.363   4.311  17.011  0.00  0.00    +0.000 A 
ATOM      2  C   UNL     1       7.228   4.892  16.068  0.00  0.00    +0.000 A 
ATOM      3  C   UNL     1       6.940   4.837  14.706  0.00  0.00    +0.000 A 
ATOM      4  C   UNL     1       5.796   4.185  14.324  0.00  0.00    +0.000 A 
ATOM      5  N   UNL     1       4.931   3.651  15.202  0.00  0.00    +0.000 NA
ATOM      6  C   UNL     1       5.170   3.726  16.540  0.00  0.00    +0.000 A 
ENDROOT
BRANCH   6   7
ATOM      7  N   UNL     1       4.200   3.191  17.413  0.00  0.00    +0.000 N 
ATOM      8  C   UNL     1       3.430   3.919  18.348  0.00  0.00    +0.000 A 
ATOM      9  C   UNL     1       3.030   5.240  18.128  0.00  0.00    +0.000 A 
ATOM     10  C   UNL     1       2.433   5.979  19.143  0.00  0.00    +0.000 A 
ATOM     11  C   UNL     1       2.161   5.359  20.345  0.00  0.00    +0.000 A 
ATOM     12  C   UNL     1       2.489   4.016  20.483  0.00  0.00    +0.000 A 
ATOM     13  C   UNL     1       2.121   3.294  21.746  0.00  0.00    +0.000 C 
ATOM     14  N   UNL     1       3.121   3.298  19.510  0.00  0.00    +0.000 NA
ATOM     15  H   UNL     1       4.478   2.312  17.832  0.00  0.00    +0.000 HD
ENDBRANCH   6   7
BRANCH   3  16
ATOM     16  C   UNL     1       7.793   5.431  13.738  0.00  0.00    +0.000 C 
ATOM     17  N   UNL     1       8.481   5.912  12.944  0.00  0.00    +0.000 NA
ENDBRANCH   3  16
BRANCH   1  18
ATOM     18  O   UNL     1       6.617   4.321  18.368  0.00  0.00    +0.000 OA
BRANCH  18  20
ATOM     19  C   UNL     1       8.009   5.719  19.804  0.00  0.00    +0.000 C 
ATOM     20  C   UNL     1       6.759   5.629  18.952  0.00  0.00    +0.000 C 
ENDBRANCH  18  20
ENDBRANCH   1  18
TORSDOF 4
ENDMDL
MODEL 3
REMARK VINA RESULT:      -6.4      1.044      1.137
REMARK  Name = 
REMARK  6 active torsions:
REMARK  status: ('A' for Active; 'I' for Inactive)
REMARK    1  A    between atoms: C_1  and  C_2
REMARK    2  A    between atoms: C_2  and  O_3
REMARK    3  A    between atoms: O_3  and  C_4
REMARK    4  A    between atoms: C_6  and  C_7
REMARK    5  A    between atoms: C_11  and  N_12
REMARK    6  A    between atoms: C_17  and  C_18
REMARK                            x       y       z     vdW  Elec       q    Type
REMARK                         _______ _______ _______ _____ _____    ______ ____
ROOT
ATOM      1  C   UNL     1       2.247   6.042  19.927  0.00  0.00    +0.000 A 
ATOM      2  C   UNL     1       1.672   7.097  20.657  0.00  0.00    +0.000 A 
ATOM      3  C   UNL     1       1.529   8.362  20.091  0.00  0.00    +0.000 A 
ATOM      4  C   UNL     1       1.983   8.540  18.810  0.00  0.00    +0.000 A 
ATOM      5  N   UNL     1       2.504   7.544  18.073  0.00  0.00    +0.000 NA
ATOM      6  C   UNL     1       2.619   6.291  18.590  0.00  0.00    +0.000 A 
ENDROOT
BRANCH   6   7
ATOM      7  N   UNL     1       3.127   5.277  17.752  0.00  0.00    +0.000 N 
ATOM      8  C   UNL     1       4.491   5.037  17.468  0.00  0.00    +0.000 A 
ATOM      9  C   UNL     1       5.508   5.284  18.394  0.00  0.00    +0.000 A 
ATOM     10  C   UNL     1       6.843   5.210  18.018  0.00  0.00    +0.000 A 
ATOM     11  C   UNL     1       7.152   4.801  16.736  0.00  0.00    +0.000 A 
ATOM     12  C   UNL     1       6.108   4.472  15.880  0.00  0.00    +0.000 A 
ATOM     13  C   UNL     1       6.418   3.937  14.513  0.00  0.00    +0.000 C 
ATOM     14  N   UNL     1       4.793   4.591  16.226  0.00  0.00    +0.000 NA
ATOM     15  H   UNL     1       2.589   5.149  16.903  0.00  0.00    +0.000 HD
ENDBRANCH   6   7
BRANCH   3  16
ATOM     16  C   UNL     1       0.936   9.437  20.805  0.00  0.00    +0.000 C 
ATOM     17  N   UNL     1       0.461  10.312  21.391  0.00  0.00    +0.000 NA
ENDBRANCH   3  16
BRANCH   1  18
ATOM     18  O   UNL     1       2.429   4.779  20.453  0.00  0.00    +0.000 OA
BRANCH  18  20
ATOM     19  C   UNL     1       1.485   2.769  21.464  0.00  0.00    +0.000 C 
ATOM     20  C   UNL     1       1.223   4.020  20.649  0.00  0.00    +0.000 C 
ENDBRANCH  18  20
ENDBRANCH   1  18
TORSDOF 4
ENDMDL
MODEL 4
REMARK VINA RESULT:      -6.4      2.698      4.448
REMARK  Name = 
REMARK  6 active torsions:
REMARK  status: ('A' for Active; 'I' for Inactive)
REMARK    1  A    between atoms: C_1  and  C_2
REMARK    2  A    between atoms: C_2  and  O_3
REMARK    3  A    between atoms: O_3  and  C_4
REMARK    4  A    between atoms: C_6  and  C_7
REMARK    5  A    between atoms: C_11  and  N_12
REMARK    6  A    between atoms: C_17  and  C_18
REMARK                            x       y       z     vdW  Elec       q    Type
REMARK                         _______ _______ _______ _____ _____    ______ ____
ROOT
ATOM      1  C   UNL     1       2.964   5.922  17.884  0.00  0.00    +0.000 A 
ATOM      2  C   UNL     1       1.998   5.024  18.370  0.00  0.00    +0.000 A 
ATOM      3  C   UNL     1       2.058   3.669  18.052  0.00  0.00    +0.000 A 
ATOM      4  C   UNL     1       3.080   3.252  17.239  0.00  0.00    +0.000 A 
ATOM      5  N   UNL     1       4.039   4.077  16.788  0.00  0.00    +0.000 NA
ATOM      6  C   UNL     1       4.024   5.398  17.117  0.00  0.00    +0.000 A 
ENDROOT
BRANCH   6   7
ATOM      7  N   UNL     1       5.085   6.204  16.654  0.00  0.00    +0.000 N 
ATOM      8  C   UNL     1       6.270   6.509  17.362  0.00  0.00    +0.000 A 
ATOM      9  C   UNL     1       6.859   5.617  18.262  0.00  0.00    +0.000 A 
ATOM     10  C   UNL     1       7.915   6.019  19.071  0.00  0.00    +0.000 A 
ATOM     11  C   UNL     1       8.430   7.289  18.909  0.00  0.00    +0.000 A 
ATOM     12  C   UNL     1       7.874   8.107  17.933  0.00  0.00    +0.000 A 
ATOM     13  C   UNL     1       8.475   9.457  17.673  0.00  0.00    +0.000 C 
ATOM     14  N   UNL     1       6.805   7.737  17.170  0.00  0.00    +0.000 NA
ATOM     15  H   UNL     1       4.774   7.034  16.163  0.00  0.00    +0.000 HD
ENDBRANCH   6   7
BRANCH   3  16
ATOM     16  C   UNL     1       1.101   2.743  18.546  0.00  0.00    +0.000 C 
ATOM     17  N   UNL     1       0.328   1.988  18.955  0.00  0.00    +0.000 NA
ENDBRANCH   3  16
BRANCH   1  18
ATOM     18  O   UNL     1       2.933   7.275  18.155  0.00  0.00    +0.000 OA
BRANCH  18  20
ATOM     19  C   UNL     1       1.455   8.958  19.122  0.00  0.00    +0.000 C 
ATOM     20  C   UNL     1       2.186   7.646  19.327  0.00  0.00    +0.000 C 
ENDBRANCH  18  20
ENDBRANCH   1  18
TORSDOF 4
ENDMDL
MODEL 5
REMARK VINA RESULT:      -6.3      3.100      6.790
REMARK  Name = 
REMARK  6 active torsions:
REMARK  status: ('A' for Active; 'I' for Inactive)
REMARK    1  A    between atoms: C_1  and  C_2
REMARK    2  A    between atoms: C_2  and  O_3
REMARK    3  A    between atoms: O_3  and  C_4
REMARK    4  A    between atoms: C_6  and  C_7
REMARK    5  A    between atoms: C_11  and  N_12
REMARK    6  A    between atoms: C_17  and  C_18
REMARK                            x       y       z     vdW  Elec       q    Type
REMARK                         _______ _______ _______ _____ _____    ______ ____
ROOT
ATOM      1  C   UNL     1       7.225   4.536  17.378  0.00  0.00    +0.000 A 
ATOM      2  C   UNL     1       7.699   4.921  16.112  0.00  0.00    +0.000 A 
ATOM      3  C   UNL     1       6.917   4.742  14.972  0.00  0.00    +0.000 A 
ATOM      4  C   UNL     1       5.684   4.164  15.132  0.00  0.00    +0.000 A 
ATOM      5  N   UNL     1       5.188   3.817  16.332  0.00  0.00    +0.000 NA
ATOM      6  C   UNL     1       5.917   4.018  17.464  0.00  0.00    +0.000 A 
ENDROOT
BRANCH   6   7
ATOM      7  N   UNL     1       5.323   3.680  18.698  0.00  0.00    +0.000 N 
ATOM      8  C   UNL     1       4.053   3.085  18.876  0.00  0.00    +0.000 A 
ATOM      9  C   UNL     1       3.506   2.190  17.953  0.00  0.00    +0.000 A 
ATOM     10  C   UNL     1       2.187   1.769  18.070  0.00  0.00    +0.000 A 
ATOM     11  C   UNL     1       1.452   2.181  19.163  0.00  0.00    +0.000 A 
ATOM     12  C   UNL     1       2.070   2.993  20.105  0.00  0.00    +0.000 A 
ATOM     13  C   UNL     1       1.323   3.380  21.348  0.00  0.00    +0.000 C 
ATOM     14  N   UNL     1       3.349   3.452  19.972  0.00  0.00    +0.000 NA
ATOM     15  H   UNL     1       5.459   4.383  19.415  0.00  0.00    +0.000 HD
ENDBRANCH   6   7
BRANCH   3  16
ATOM     16  C   UNL     1       7.370   5.139  13.686  0.00  0.00    +0.000 C 
ATOM     17  N   UNL     1       7.740   5.471  12.644  0.00  0.00    +0.000 NA
ENDBRANCH   3  16
BRANCH   1  18
ATOM     18  O   UNL     1       7.972   4.674  18.531  0.00  0.00    +0.000 OA
BRANCH  18  20
ATOM     19  C   UNL     1       8.084   7.111  18.525  0.00  0.00    +0.000 C 
ATOM     20  C   UNL     1       7.701   5.862  19.295  0.00  0.00    +0.000 C 
ENDBRANCH  18  20
ENDBRANCH   1  18
TORSDOF 4
ENDMDL
MODEL 6
REMARK VINA RESULT:      -6.2      1.957      6.299
REMARK  Name = 
REMARK  6 active torsions:
REMARK  status: ('A' for Active; 'I' for Inactive)
REMARK    1  A    between atoms: C_1  and  C_2
REMARK    2  A    between atoms: C_2  and  O_3
REMARK    3  A    between atoms: O_3  and  C_4
REMARK    4  A    between atoms: C_6  and  C_7
REMARK    5  A    between atoms: C_11  and  N_12
REMARK    6  A    between atoms: C_17  and  C_18
REMARK                            x       y       z     vdW  Elec       q    Type
REMARK                         _______ _______ _______ _____ _____    ______ ____
ROOT
ATOM      1  C   UNL     1       3.824   4.635  17.196  0.00  0.00    +0.000 A 
ATOM      2  C   UNL     1       4.860   4.425  16.269  0.00  0.00    +0.000 A 
ATOM      3  C   UNL     1       5.795   5.424  16.006  0.00  0.00    +0.000 A 
ATOM      4  C   UNL     1       5.657   6.615  16.669  0.00  0.00    +0.000 A 
ATOM      5  N   UNL     1       4.700   6.835  17.587  0.00  0.00    +0.000 NA
ATOM      6  C   UNL     1       3.798   5.862  17.890  0.00  0.00    +0.000 A 
ENDROOT
BRANCH   6   7
ATOM      7  N   UNL     1       2.849   6.135  18.897  0.00  0.00    +0.000 N 
ATOM      8  C   UNL     1       2.136   7.344  19.064  0.00  0.00    +0.000 A 
ATOM      9  C   UNL     1       1.765   8.154  17.988  0.00  0.00    +0.000 A 
ATOM     10  C   UNL     1       1.229   9.418  18.203  0.00  0.00    +0.000 A 
ATOM     11  C   UNL     1       0.988   9.826  19.499  0.00  0.00    +0.000 A 
ATOM     12  C   UNL     1       1.284   8.946  20.533  0.00  0.00    +0.000 A 
ATOM     13  C   UNL     1       0.945   9.329  21.944  0.00  0.00    +0.000 C 
ATOM     14  N   UNL     1       1.856   7.724  20.333  0.00  0.00    +0.000 NA
ATOM     15  H   UNL     1       3.118   5.785  19.809  0.00  0.00    +0.000 HD
ENDBRANCH   6   7
BRANCH   3  16
ATOM     16  C   UNL     1       6.859   5.226  15.085  0.00  0.00    +0.000 C 
ATOM     17  N   UNL     1       7.724   5.075  14.336  0.00  0.00    +0.000 NA
ENDBRANCH   3  16
BRANCH   1  18
ATOM     18  O   UNL     1       2.863   3.684  17.474  0.00  0.00    +0.000 OA
BRANCH  18  20
ATOM     19  C   UNL     1       3.820   2.440  19.341  0.00  0.00    +0.000 C 
ATOM     20  C   UNL     1       3.372   2.406  17.894  0.00  0.00    +0.000 C 
ENDBRANCH  18  20
ENDBRANCH   1  18
TORSDOF 4
ENDMDL
MODEL 7
REMARK VINA RESULT:      -6.2      2.811      4.854
REMARK  Name = 
REMARK  6 active torsions:
REMARK  status: ('A' for Active; 'I' for Inactive)
REMARK    1  A    between atoms: C_1  and  C_2
REMARK    2  A    between atoms: C_2  and  O_3
REMARK    3  A    between atoms: O_3  and  C_4
REMARK    4  A    between atoms: C_6  and  C_7
REMARK    5  A    between atoms: C_11  and  N_12
REMARK    6  A    between atoms: C_17  and  C_18
REMARK                            x       y       z     vdW  Elec       q    Type
REMARK                         _______ _______ _______ _____ _____    ______ ____
ROOT
ATOM      1  C   UNL     1       4.451   4.180  16.760  0.00  0.00    +0.000 A 
ATOM      2  C   UNL     1       3.400   3.337  17.162  0.00  0.00    +0.000 A 
ATOM      3  C   UNL     1       2.302   3.845  17.854  0.00  0.00    +0.000 A 
ATOM      4  C   UNL     1       2.295   5.186  18.139  0.00  0.00    +0.000 A 
ATOM      5  N   UNL     1       3.266   6.024  17.737  0.00  0.00    +0.000 NA
ATOM      6  C   UNL     1       4.329   5.559  17.026  0.00  0.00    +0.000 A 
ENDROOT
BRANCH   6   7
ATOM      7  N   UNL     1       5.290   6.495  16.591  0.00  0.00    +0.000 N 
ATOM      8  C   UNL     1       6.456   6.880  17.291  0.00  0.00    +0.000 A 
ATOM      9  C   UNL     1       7.156   6.004  18.124  0.00  0.00    +0.000 A 
ATOM     10  C   UNL     1       8.187   6.466  18.934  0.00  0.00    +0.000 A 
ATOM     11  C   UNL     1       8.566   7.789  18.837  0.00  0.00    +0.000 A 
ATOM     12  C   UNL     1       7.903   8.599  17.923  0.00  0.00    +0.000 A 
ATOM     13  C   UNL     1       8.357  10.017  17.732  0.00  0.00    +0.000 C 
ATOM     14  N   UNL     1       6.858   8.165  17.161  0.00  0.00    +0.000 NA
ATOM     15  H   UNL     1       4.884   7.316  16.156  0.00  0.00    +0.000 HD
ENDBRANCH   6   7
BRANCH   3  16
ATOM     16  C   UNL     1       1.223   3.013  18.255  0.00  0.00    +0.000 C 
ATOM     17  N   UNL     1       0.347   2.339  18.590  0.00  0.00    +0.000 NA
ENDBRANCH   3  16
BRANCH   1  18
ATOM     18  O   UNL     1       5.567   3.720  16.092  0.00  0.00    +0.000 OA
BRANCH  18  20
ATOM     19  C   UNL     1       6.729   4.552  14.114  0.00  0.00    +0.000 C 
ATOM     20  C   UNL     1       5.511   3.832  14.659  0.00  0.00    +0.000 C 
ENDBRANCH  18  20
ENDBRANCH   1  18
TORSDOF 4
ENDMDL
MODEL 8
REMARK VINA RESULT:      -6.1      2.478      6.342
REMARK  Name = 
REMARK  6 active torsions:
REMARK  status: ('A' for Active; 'I' for Inactive)
REMARK    1  A    between atoms: C_1  and  C_2
REMARK    2  A    between atoms: C_2  and  O_3
REMARK    3  A    between atoms: O_3  and  C_4
REMARK    4  A    between atoms: C_6  and  C_7
REMARK    5  A    between atoms: C_11  and  N_12
REMARK    6  A    between atoms: C_17  and  C_18
REMARK                            x       y       z     vdW  Elec       q    Type
REMARK                         _______ _______ _______ _____ _____    ______ ____
ROOT
ATOM      1  C   UNL     1       5.005   5.348  16.727  0.00  0.00    +0.000 A 
ATOM      2  C   UNL     1       5.588   5.612  15.475  0.00  0.00    +0.000 A 
ATOM      3  C   UNL     1       6.874   5.165  15.178  0.00  0.00    +0.000 A 
ATOM      4  C   UNL     1       7.549   4.477  16.153  0.00  0.00    +0.000 A 
ATOM      5  N   UNL     1       7.007   4.177  17.345  0.00  0.00    +0.000 NA
ATOM      6  C   UNL     1       5.739   4.569  17.645  0.00  0.00    +0.000 A 
ENDROOT
BRANCH   6   7
ATOM      7  N   UNL     1       5.207   4.183  18.893  0.00  0.00    +0.000 N 
ATOM      8  C   UNL     1       4.082   3.352  19.098  0.00  0.00    +0.000 A 
ATOM      9  C   UNL     1       3.741   2.317  18.224  0.00  0.00    +0.000 A 
ATOM     10  C   UNL     1       2.533   1.644  18.358  0.00  0.00    +0.000 A 
ATOM     11  C   UNL     1       1.713   1.955  19.424  0.00  0.00    +0.000 A 
ATOM     12  C   UNL     1       2.141   2.924  20.323  0.00  0.00    +0.000 A 
ATOM     13  C   UNL     1       1.313   3.215  21.540  0.00  0.00    +0.000 C 
ATOM     14  N   UNL     1       3.301   3.625  20.170  0.00  0.00    +0.000 NA
ATOM     15  H   UNL     1       5.187   4.935  19.572  0.00  0.00    +0.000 HD
ENDBRANCH   6   7
BRANCH   3  16
ATOM     16  C   UNL     1       7.475   5.406  13.914  0.00  0.00    +0.000 C 
ATOM     17  N   UNL     1       7.955   5.600  12.882  0.00  0.00    +0.000 NA
ENDBRANCH   3  16
BRANCH   1  18
ATOM     18  O   UNL     1       3.744   5.790  17.074  0.00  0.00    +0.000 OA
BRANCH  18  20
ATOM     19  C   UNL     1       2.552   7.241  18.631  0.00  0.00    +0.000 C 
ATOM     20  C   UNL     1       3.695   7.109  17.645  0.00  0.00    +0.000 C 
ENDBRANCH  18  20
ENDBRANCH   1  18
TORSDOF 4
ENDMDL
MODEL 9
REMARK VINA RESULT:      -6.1      2.729      4.223
REMARK  Name = 
REMARK  6 active torsions:
REMARK  status: ('A' for Active; 'I' for Inactive)
REMARK    1  A    between atoms: C_1  and  C_2
REMARK    2  A    between atoms: C_2  and  O_3
REMARK    3  A    between atoms: O_3  and  C_4
REMARK    4  A    between atoms: C_6  and  C_7
REMARK    5  A    between atoms: C_11  and  N_12
REMARK    6  A    between atoms: C_17  and  C_18
REMARK                            x       y       z     vdW  Elec       q    Type
REMARK                         _______ _______ _______ _____ _____    ______ ____
ROOT
ATOM      1  C   UNL     1       5.394   4.477  18.520  0.00  0.00    +0.000 A 
ATOM      2  C   UNL     1       4.668   3.771  19.496  0.00  0.00    +0.000 A 
ATOM      3  C   UNL     1       3.275   3.781  19.495  0.00  0.00    +0.000 A 
ATOM      4  C   UNL     1       2.644   4.513  18.523  0.00  0.00    +0.000 A 
ATOM      5  N   UNL     1       3.308   5.169  17.556  0.00  0.00    +0.000 NA
ATOM      6  C   UNL     1       4.668   5.143  17.512  0.00  0.00    +0.000 A 
ENDROOT
BRANCH   6   7
ATOM      7  N   UNL     1       5.305   5.809  16.444  0.00  0.00    +0.000 N 
ATOM      8  C   UNL     1       5.686   5.232  15.211  0.00  0.00    +0.000 A 
ATOM      9  C   UNL     1       4.968   4.193  14.612  0.00  0.00    +0.000 A 
ATOM     10  C   UNL     1       5.472   3.532  13.499  0.00  0.00    +0.000 A 
ATOM     11  C   UNL     1       6.653   3.977  12.940  0.00  0.00    +0.000 A 
ATOM     12  C   UNL     1       7.280   5.075  13.512  0.00  0.00    +0.000 A 
ATOM     13  C   UNL     1       8.515   5.636  12.870  0.00  0.00    +0.000 C 
ATOM     14  N   UNL     1       6.819   5.698  14.635  0.00  0.00    +0.000 NA
ATOM     15  H   UNL     1       6.032   6.447  16.745  0.00  0.00    +0.000 HD
ENDBRANCH   6   7
BRANCH   3  16
ATOM     16  C   UNL     1       2.523   3.062  20.462  0.00  0.00    +0.000 C 
ATOM     17  N   UNL     1       1.905   2.482  21.247  0.00  0.00    +0.000 NA
ENDBRANCH   3  16
BRANCH   1  18
ATOM     18  O   UNL     1       6.773   4.514  18.493  0.00  0.00    +0.000 OA
BRANCH  18  20
ATOM     19  C   UNL     1       7.957   6.647  18.542  0.00  0.00    +0.000 C 
ATOM     20  C   UNL     1       7.374   5.503  19.348  0.00  0.00    +0.000 C 
ENDBRANCH  18  20
ENDBRANCH   1  18
TORSDOF 4
ENDMDL
