MODEL 1
REMARK VINA RESULT:      -9.7      0.000      0.000
REMARK  Name = 
REMARK  6 active torsions:
REMARK  status: ('A' for Active; 'I' for Inactive)
REMARK    1  A    between atoms: C_1  and  C_2
REMARK    2  A    between atoms: C_3  and  C_4
REMARK    3  A    between atoms: N_6  and  C_7
REMARK    4  A    between atoms: C_7  and  C_8
REMARK    5  A    between atoms: C_15  and  C_16
REMARK    6  A    between atoms: N_22  and  C_23
REMARK                            x       y       z     vdW  Elec       q    Type
REMARK                         _______ _______ _______ _____ _____    ______ ____
ROOT
ATOM      1  C   UNL     1       4.994   3.286  17.389  0.00  0.00    +0.000 C 
ATOM      2  C   UNL     1       4.613   4.736  17.429  0.00  0.00    +0.000 A 
ATOM      3  C   UNL     1       5.147   5.761  16.652  0.00  0.00    +0.000 A 
ATOM      4  C   UNL     1       4.400   6.924  16.963  0.00  0.00    +0.000 A 
ATOM      5  C   UNL     1       3.451   6.626  17.933  0.00  0.00    +0.000 A 
ATOM      6  N   UNL     1       3.549   5.244  18.188  0.00  0.00    +0.000 N 
ENDROOT
BRANCH   6   7
ATOM      7  C   UNL     1       2.715   4.468  19.061  0.00  0.00    +0.000 A 
ATOM      8  C   UNL     1       3.139   4.166  20.365  0.00  0.00    +0.000 A 
ATOM      9  C   UNL     1       2.316   3.439  21.231  0.00  0.00    +0.000 A 
ATOM     10  C   UNL     1       1.041   3.052  20.827  0.00  0.00    +0.000 A 
ATOM     11  C   UNL     1       0.605   3.360  19.542  0.00  0.00    +0.000 A 
ATOM     12  C   UNL     1       1.450   4.029  18.656  0.00  0.00    +0.000 A 
ATOM     13  F   UNL     1       1.015   4.205  17.400  0.00  0.00    +0.000 F 
ENDBRANCH   6   7
BRANCH   5  14
ATOM     14  C   UNL     1       2.557   7.602  18.605  0.00  0.00    +0.000 A 
ATOM     15  C   UNL     1       2.038   8.692  17.884  0.00  0.00    +0.000 A 
ATOM     16  C   UNL     1       1.151   9.596  18.480  0.00  0.00    +0.000 A 
ATOM     17  C   UNL     1       0.747   9.413  19.799  0.00  0.00    +0.000 A 
ATOM     18  C   UNL     1       1.269   8.356  20.537  0.00  0.00    +0.000 A 
ATOM     19  C   UNL     1       2.199   7.486  19.956  0.00  0.00    +0.000 A 
ENDBRANCH   5  14
BRANCH   3  20
ATOM     20  C   UNL     1       6.261   5.621  15.712  0.00  0.00    +0.000 C 
ATOM     21  O   UNL     1       7.413   5.944  16.001  0.00  0.00    +0.000 OA
ATOM     22  N   UNL     1       5.939   5.073  14.492  0.00  0.00    +0.000 N 
ATOM     23  H   UNL     1       4.977   4.830  14.291  0.00  0.00    +0.000 HD
BRANCH  22  24
ATOM     24  C   UNL     1       6.943   4.839  13.482  0.00  0.00    +0.000 C 
BRANCH  24  25
ATOM     25  C   UNL     1       6.560   3.715  12.553  0.00  0.00    +0.000 A 
ATOM     26  C   UNL     1       7.537   2.914  11.947  0.00  0.00    +0.000 A 
ATOM     27  C   UNL     1       7.172   1.856  11.111  0.00  0.00    +0.000 A 
ATOM     28  C   UNL     1       5.826   1.585  10.874  0.00  0.00    +0.000 A 
ATOM     29  C   UNL     1       4.843   2.365  11.477  0.00  0.00    +0.000 A 
ATOM     30  C   UNL     1       5.206   3.421  12.317  0.00  0.00    +0.000 A 
ENDBRANCH  24  25
ENDBRANCH  22  24
ENDBRANCH   3  20
TORSDOF 5
ENDMDL
MODEL 2
REMARK VINA RESULT:      -9.7      0.116      1.270
REMARK  Name = 
REMARK  6 active torsions:
REMARK  status: ('A' for Active; 'I' for Inactive)
REMARK    1  A    between atoms: C_1  and  C_2
REMARK    2  A    between atoms: C_3  and  C_4
REMARK    3  A    between atoms: N_6  and  C_7
REMARK    4  A    between atoms: C_7  and  C_8
REMARK    5  A    between atoms: C_15  and  C_16
REMARK    6  A    between atoms: N_22  and  C_23
REMARK                            x       y       z     vdW  Elec       q    Type
REMARK                         _______ _______ _______ _____ _____    ______ ____
ROOT
ATOM      1  C   UNL     1       5.010   3.317  17.533  0.00  0.00    +0.000 C 
ATOM      2  C   UNL     1       4.586   4.756  17.530  0.00  0.00    +0.000 A 
ATOM      3  C   UNL     1       5.092   5.773  16.725  0.00  0.00    +0.000 A 
ATOM      4  C   UNL     1       4.310   6.922  17.001  0.00  0.00    +0.000 A 
ATOM      5  C   UNL     1       3.367   6.625  17.978  0.00  0.00    +0.000 A 
ATOM      6  N   UNL     1       3.505   5.254  18.272  0.00  0.00    +0.000 N 
ENDROOT
BRANCH   6   7
ATOM      7  C   UNL     1       2.691   4.479  19.165  0.00  0.00    +0.000 A 
ATOM      8  C   UNL     1       3.106   4.253  20.488  0.00  0.00    +0.000 A 
ATOM      9  C   UNL     1       2.303   3.527  21.372  0.00  0.00    +0.000 A 
ATOM     10  C   UNL     1       1.053   3.066  20.966  0.00  0.00    +0.000 A 
ATOM     11  C   UNL     1       0.625   3.299  19.662  0.00  0.00    +0.000 A 
ATOM     12  C   UNL     1       1.454   3.967  18.761  0.00  0.00    +0.000 A 
ATOM     13  F   UNL     1       1.034   4.069  17.493  0.00  0.00    +0.000 F 
ENDBRANCH   6   7
BRANCH   5  14
ATOM     14  C   UNL     1       2.443   7.593  18.619  0.00  0.00    +0.000 A 
ATOM     15  C   UNL     1       2.137   7.475  19.986  0.00  0.00    +0.000 A 
ATOM     16  C   UNL     1       1.311   8.407  20.625  0.00  0.00    +0.000 A 
ATOM     17  C   UNL     1       0.796   9.487  19.915  0.00  0.00    +0.000 A 
ATOM     18  C   UNL     1       1.065   9.608  18.556  0.00  0.00    +0.000 A 
ATOM     19  C   UNL     1       1.845   8.643  17.907  0.00  0.00    +0.000 A 
ENDBRANCH   5  14
BRANCH   3  20
ATOM     20  C   UNL     1       6.212   5.640  15.793  0.00  0.00    +0.000 C 
ATOM     21  O   UNL     1       7.358   5.980  16.083  0.00  0.00    +0.000 OA
ATOM     22  N   UNL     1       5.904   5.076  14.576  0.00  0.00    +0.000 N 
ATOM     23  H   UNL     1       4.945   4.817  14.373  0.00  0.00    +0.000 HD
BRANCH  22  24
ATOM     24  C   UNL     1       6.916   4.845  13.573  0.00  0.00    +0.000 C 
BRANCH  24  25
ATOM     25  C   UNL     1       6.546   3.716  12.645  0.00  0.00    +0.000 A 
ATOM     26  C   UNL     1       5.204   3.409  12.379  0.00  0.00    +0.000 A 
ATOM     27  C   UNL     1       4.872   2.380  11.494  0.00  0.00    +0.000 A 
ATOM     28  C   UNL     1       5.876   1.649  10.864  0.00  0.00    +0.000 A 
ATOM     29  C   UNL     1       7.214   1.948  11.109  0.00  0.00    +0.000 A 
ATOM     30  C   UNL     1       7.548   2.980  11.990  0.00  0.00    +0.000 A 
ENDBRANCH  24  25
ENDBRANCH  22  24
ENDBRANCH   3  20
TORSDOF 5
ENDMDL
MODEL 3
REMARK VINA RESULT:      -9.2      0.864      1.239
REMARK  Name = 
REMARK  6 active torsions:
REMARK  status: ('A' for Active; 'I' for Inactive)
REMARK    1  A    between atoms: C_1  and  C_2
REMARK    2  A    between atoms: C_3  and  C_4
REMARK    3  A    between atoms: N_6  and  C_7
REMARK    4  A    between atoms: C_7  and  C_8
REMARK    5  A    between atoms: C_15  and  C_16
REMARK    6  A    between atoms: N_22  and  C_23
REMARK                            x       y       z     vdW  Elec       q    Type
REMARK                         _______ _______ _______ _____ _____    ______ ____
ROOT
ATOM      1  C   UNL     1       4.809   3.258  17.097  0.00  0.00    +0.000 C 
ATOM      2  C   UNL     1       4.497   4.722  17.202  0.00  0.00    +0.000 A 
ATOM      3  C   UNL     1       5.107   5.757  16.497  0.00  0.00    +0.000 A 
ATOM      4  C   UNL     1       4.407   6.938  16.846  0.00  0.00    +0.000 A 
ATOM      5  C   UNL     1       3.412   6.639  17.770  0.00  0.00    +0.000 A 
ATOM      6  N   UNL     1       3.435   5.242  17.954  0.00  0.00    +0.000 N 
ENDROOT
BRANCH   6   7
ATOM      7  C   UNL     1       2.535   4.465  18.758  0.00  0.00    +0.000 A 
ATOM      8  C   UNL     1       1.377   3.909  18.192  0.00  0.00    +0.000 A 
ATOM      9  C   UNL     1       0.514   3.124  18.963  0.00  0.00    +0.000 A 
ATOM     10  C   UNL     1       0.823   2.838  20.290  0.00  0.00    +0.000 A 
ATOM     11  C   UNL     1       1.977   3.371  20.856  0.00  0.00    +0.000 A 
ATOM     12  C   UNL     1       2.804   4.207  20.106  0.00  0.00    +0.000 A 
ATOM     13  F   UNL     1       3.844   4.775  20.734  0.00  0.00    +0.000 F 
ENDBRANCH   6   7
BRANCH   5  14
ATOM     14  C   UNL     1       2.545   7.623  18.465  0.00  0.00    +0.000 A 
ATOM     15  C   UNL     1       2.011   8.713  17.756  0.00  0.00    +0.000 A 
ATOM     16  C   UNL     1       1.147   9.625  18.375  0.00  0.00    +0.000 A 
ATOM     17  C   UNL     1       0.783   9.448  19.706  0.00  0.00    +0.000 A 
ATOM     18  C   UNL     1       1.320   8.391  20.432  0.00  0.00    +0.000 A 
ATOM     19  C   UNL     1       2.228   7.514  19.827  0.00  0.00    +0.000 A 
ENDBRANCH   5  14
BRANCH   3  20
ATOM     20  C   UNL     1       6.242   5.610  15.587  0.00  0.00    +0.000 C 
ATOM     21  O   UNL     1       7.387   5.936  15.900  0.00  0.00    +0.000 OA
ATOM     22  N   UNL     1       5.951   5.052  14.363  0.00  0.00    +0.000 N 
ATOM     23  H   UNL     1       4.994   4.806  14.141  0.00  0.00    +0.000 HD
BRANCH  22  24
ATOM     24  C   UNL     1       6.979   4.810  13.380  0.00  0.00    +0.000 C 
BRANCH  24  25
ATOM     25  C   UNL     1       6.632   3.661  12.468  0.00  0.00    +0.000 A 
ATOM     26  C   UNL     1       7.633   2.889  11.864  0.00  0.00    +0.000 A 
ATOM     27  C   UNL     1       7.301   1.808  11.044  0.00  0.00    +0.000 A 
ATOM     28  C   UNL     1       5.965   1.485  10.821  0.00  0.00    +0.000 A 
ATOM     29  C   UNL     1       4.957   2.235  11.422  0.00  0.00    +0.000 A 
ATOM     30  C   UNL     1       5.288   3.314  12.246  0.00  0.00    +0.000 A 
ENDBRANCH  24  25
ENDBRANCH  22  24
ENDBRANCH   3  20
TORSDOF 5
ENDMDL
MODEL 4
REMARK VINA RESULT:      -9.1      0.867      1.770
REMARK  Name = 
REMARK  6 active torsions:
REMARK  status: ('A' for Active; 'I' for Inactive)
REMARK    1  A    between atoms: C_1  and  C_2
REMARK    2  A    between atoms: C_3  and  C_4
REMARK    3  A    between atoms: N_6  and  C_7
REMARK    4  A    between atoms: C_7  and  C_8
REMARK    5  A    between atoms: C_15  and  C_16
REMARK    6  A    between atoms: N_22  and  C_23
REMARK                            x       y       z     vdW  Elec       q    Type
REMARK                         _______ _______ _______ _____ _____    ______ ____
ROOT
ATOM      1  C   UNL     1       4.807   3.211  17.147  0.00  0.00    +0.000 C 
ATOM      2  C   UNL     1       4.472   4.671  17.231  0.00  0.00    +0.000 A 
ATOM      3  C   UNL     1       5.064   5.706  16.512  0.00  0.00    +0.000 A 
ATOM      4  C   UNL     1       4.345   6.880  16.845  0.00  0.00    +0.000 A 
ATOM      5  C   UNL     1       3.356   6.578  17.773  0.00  0.00    +0.000 A 
ATOM      6  N   UNL     1       3.401   5.184  17.976  0.00  0.00    +0.000 N 
ENDROOT
BRANCH   6   7
ATOM      7  C   UNL     1       2.514   4.404  18.791  0.00  0.00    +0.000 A 
ATOM      8  C   UNL     1       1.370   3.812  18.230  0.00  0.00    +0.000 A 
ATOM      9  C   UNL     1       0.520   3.024  19.012  0.00  0.00    +0.000 A 
ATOM     10  C   UNL     1       0.829   2.770  20.346  0.00  0.00    +0.000 A 
ATOM     11  C   UNL     1       1.969   3.339  20.907  0.00  0.00    +0.000 A 
ATOM     12  C   UNL     1       2.782   4.178  20.145  0.00  0.00    +0.000 A 
ATOM     13  F   UNL     1       3.806   4.779  20.767  0.00  0.00    +0.000 F 
ENDBRANCH   6   7
BRANCH   5  14
ATOM     14  C   UNL     1       2.473   7.557  18.454  0.00  0.00    +0.000 A 
ATOM     15  C   UNL     1       2.228   7.444  19.834  0.00  0.00    +0.000 A 
ATOM     16  C   UNL     1       1.442   8.386  20.508  0.00  0.00    +0.000 A 
ATOM     17  C   UNL     1       0.907   9.470  19.821  0.00  0.00    +0.000 A 
ATOM     18  C   UNL     1       1.115   9.587  18.451  0.00  0.00    +0.000 A 
ATOM     19  C   UNL     1       1.854   8.613  17.768  0.00  0.00    +0.000 A 
ENDBRANCH   5  14
BRANCH   3  20
ATOM     20  C   UNL     1       6.203   5.565  15.604  0.00  0.00    +0.000 C 
ATOM     21  O   UNL     1       7.356   5.830  15.942  0.00  0.00    +0.000 OA
ATOM     22  N   UNL     1       5.902   5.084  14.350  0.00  0.00    +0.000 N 
ATOM     23  H   UNL     1       4.939   4.887  14.107  0.00  0.00    +0.000 HD
BRANCH  22  24
ATOM     24  C   UNL     1       6.930   4.856  13.363  0.00  0.00    +0.000 C 
BRANCH  24  25
ATOM     25  C   UNL     1       6.624   3.664  12.492  0.00  0.00    +0.000 A 
ATOM     26  C   UNL     1       5.303   3.268  12.247  0.00  0.00    +0.000 A 
ATOM     27  C   UNL     1       5.029   2.179  11.416  0.00  0.00    +0.000 A 
ATOM     28  C   UNL     1       6.072   1.476  10.818  0.00  0.00    +0.000 A 
ATOM     29  C   UNL     1       7.391   1.863  11.043  0.00  0.00    +0.000 A 
ATOM     30  C   UNL     1       7.667   2.955  11.871  0.00  0.00    +0.000 A 
ENDBRANCH  24  25
ENDBRANCH  22  24
ENDBRANCH   3  20
TORSDOF 5
ENDMDL
MODEL 5
REMARK VINA RESULT:      -8.5      2.818      7.615
REMARK  Name = 
REMARK  6 active torsions:
REMARK  status: ('A' for Active; 'I' for Inactive)
REMARK    1  A    between atoms: C_1  and  C_2
REMARK    2  A    between atoms: C_3  and  C_4
REMARK    3  A    between atoms: N_6  and  C_7
REMARK    4  A    between atoms: C_7  and  C_8
REMARK    5  A    between atoms: C_15  and  C_16
REMARK    6  A    between atoms: N_22  and  C_23
REMARK                            x       y       z     vdW  Elec       q    Type
REMARK                         _______ _______ _______ _____ _____    ______ ____
ROOT
ATOM      1  C   UNL     1       1.370   5.590  20.316  0.00  0.00    +0.000 C 
ATOM      2  C   UNL     1       2.302   6.144  19.279  0.00  0.00    +0.000 A 
ATOM      3  C   UNL     1       2.455   7.483  18.925  0.00  0.00    +0.000 A 
ATOM      4  C   UNL     1       3.519   7.525  17.991  0.00  0.00    +0.000 A 
ATOM      5  C   UNL     1       3.984   6.238  17.751  0.00  0.00    +0.000 A 
ATOM      6  N   UNL     1       3.257   5.378  18.597  0.00  0.00    +0.000 N 
ENDROOT
BRANCH   6   7
ATOM      7  C   UNL     1       3.446   3.964  18.756  0.00  0.00    +0.000 A 
ATOM      8  C   UNL     1       4.281   3.469  19.771  0.00  0.00    +0.000 A 
ATOM      9  C   UNL     1       4.443   2.092  19.952  0.00  0.00    +0.000 A 
ATOM     10  C   UNL     1       3.733   1.193  19.161  0.00  0.00    +0.000 A 
ATOM     11  C   UNL     1       2.890   1.673  18.162  0.00  0.00    +0.000 A 
ATOM     12  C   UNL     1       2.778   3.046  17.939  0.00  0.00    +0.000 A 
ATOM     13  F   UNL     1       2.035   3.445  16.898  0.00  0.00    +0.000 F 
ENDBRANCH   6   7
BRANCH   5  14
ATOM     14  C   UNL     1       5.009   5.856  16.748  0.00  0.00    +0.000 A 
ATOM     15  C   UNL     1       6.358   6.193  16.957  0.00  0.00    +0.000 A 
ATOM     16  C   UNL     1       7.351   5.797  16.052  0.00  0.00    +0.000 A 
ATOM     17  C   UNL     1       7.016   5.037  14.936  0.00  0.00    +0.000 A 
ATOM     18  C   UNL     1       5.685   4.716  14.697  0.00  0.00    +0.000 A 
ATOM     19  C   UNL     1       4.687   5.160  15.573  0.00  0.00    +0.000 A 
ENDBRANCH   5  14
BRANCH   3  20
ATOM     20  C   UNL     1       1.655   8.594  19.441  0.00  0.00    +0.000 C 
ATOM     21  O   UNL     1       1.449   8.758  20.643  0.00  0.00    +0.000 OA
ATOM     22  N   UNL     1       1.174   9.466  18.492  0.00  0.00    +0.000 N 
ATOM     23  H   UNL     1       1.358   9.290  17.511  0.00  0.00    +0.000 HD
BRANCH  22  24
ATOM     24  C   UNL     1       0.404  10.631  18.858  0.00  0.00    +0.000 C 
BRANCH  24  25
ATOM     25  C   UNL     1      -0.981  10.604  18.264  0.00  0.00    +0.000 A 
ATOM     26  C   UNL     1      -1.300   9.733  17.213  0.00  0.00    +0.000 A 
ATOM     27  C   UNL     1      -2.594   9.695  16.689  0.00  0.00    +0.000 A 
ATOM     28  C   UNL     1      -3.585  10.524  17.210  0.00  0.00    +0.000 A 
ATOM     29  C   UNL     1      -3.287  11.388  18.261  0.00  0.00    +0.000 A 
ATOM     30  C   UNL     1      -1.994  11.425  18.790  0.00  0.00    +0.000 A 
ENDBRANCH  24  25
ENDBRANCH  22  24
ENDBRANCH   3  20
TORSDOF 5
ENDMDL
MODEL 6
REMARK VINA RESULT:      -8.2      4.917      8.590
REMARK  Name = 
REMARK  6 active torsions:
REMARK  status: ('A' for Active; 'I' for Inactive)
REMARK    1  A    between atoms: C_1  and  C_2
REMARK    2  A    between atoms: C_3  and  C_4
REMARK    3  A    between atoms: N_6  and  C_7
REMARK    4  A    between atoms: C_7  and  C_8
REMARK    5  A    between atoms: C_15  and  C_16
REMARK    6  A    between atoms: N_22  and  C_23
REMARK                            x       y       z     vdW  Elec       q    Type
REMARK                         _______ _______ _______ _____ _____    ______ ____
ROOT
ATOM      1  C   UNL     1       2.612  11.958  18.073  0.00  0.00    +0.000 C 
ATOM      2  C   UNL     1       1.466  11.419  18.878  0.00  0.00    +0.000 A 
ATOM      3  C   UNL     1       1.124  10.080  19.047  0.00  0.00    +0.000 A 
ATOM      4  C   UNL     1       0.050  10.060  19.971  0.00  0.00    +0.000 A 
ATOM      5  C   UNL     1      -0.280  11.361  20.335  0.00  0.00    +0.000 A 
ATOM      6  N   UNL     1       0.642  12.209  19.690  0.00  0.00    +0.000 N 
ENDROOT
BRANCH   6   7
ATOM      7  C   UNL     1       0.742  13.634  19.829  0.00  0.00    +0.000 A 
ATOM      8  C   UNL     1       1.479  14.194  20.885  0.00  0.00    +0.000 A 
ATOM      9  C   UNL     1       1.607  15.581  21.007  0.00  0.00    +0.000 A 
ATOM     10  C   UNL     1       1.052  16.423  20.047  0.00  0.00    +0.000 A 
ATOM     11  C   UNL     1       0.334  15.878  18.987  0.00  0.00    +0.000 A 
ATOM     12  C   UNL     1       0.150  14.498  18.901  0.00  0.00    +0.000 A 
ATOM     13  F   UNL     1      -0.637  14.038  17.919  0.00  0.00    +0.000 F 
ENDBRANCH   6   7
BRANCH   5  14
ATOM     14  C   UNL     1      -1.424  11.761  21.190  0.00  0.00    +0.000 A 
ATOM     15  C   UNL     1      -1.395  11.502  22.571  0.00  0.00    +0.000 A 
ATOM     16  C   UNL     1      -2.438  11.918  23.408  0.00  0.00    +0.000 A 
ATOM     17  C   UNL     1      -3.517  12.621  22.881  0.00  0.00    +0.000 A 
ATOM     18  C   UNL     1      -3.578  12.865  21.514  0.00  0.00    +0.000 A 
ATOM     19  C   UNL     1      -2.562  12.398  20.672  0.00  0.00    +0.000 A 
ENDBRANCH   5  14
BRANCH   3  20
ATOM     20  C   UNL     1       1.770   8.947  18.383  0.00  0.00    +0.000 C 
ATOM     21  O   UNL     1       1.936   8.903  17.164  0.00  0.00    +0.000 OA
ATOM     22  N   UNL     1       2.212   7.946  19.217  0.00  0.00    +0.000 N 
ATOM     23  H   UNL     1       2.047   8.017  20.214  0.00  0.00    +0.000 HD
BRANCH  22  24
ATOM     24  C   UNL     1       2.904   6.787  18.705  0.00  0.00    +0.000 C 
BRANCH  24  25
ATOM     25  C   UNL     1       2.181   5.505  19.034  0.00  0.00    +0.000 A 
ATOM     26  C   UNL     1       1.886   4.567  18.036  0.00  0.00    +0.000 A 
ATOM     27  C   UNL     1       1.242   3.369  18.355  0.00  0.00    +0.000 A 
ATOM     28  C   UNL     1       0.889   3.094  19.674  0.00  0.00    +0.000 A 
ATOM     29  C   UNL     1       1.184   4.012  20.678  0.00  0.00    +0.000 A 
ATOM     30  C   UNL     1       1.832   5.209  20.362  0.00  0.00    +0.000 A 
ENDBRANCH  24  25
ENDBRANCH  22  24
ENDBRANCH   3  20
TORSDOF 5
ENDMDL
MODEL 7
REMARK VINA RESULT:      -8.2      1.133      1.687
REMARK  Name = 
REMARK  6 active torsions:
REMARK  status: ('A' for Active; 'I' for Inactive)
REMARK    1  A    between atoms: C_1  and  C_2
REMARK    2  A    between atoms: C_3  and  C_4
REMARK    3  A    between atoms: N_6  and  C_7
REMARK    4  A    between atoms: C_7  and  C_8
REMARK    5  A    between atoms: C_15  and  C_16
REMARK    6  A    between atoms: N_22  and  C_23
REMARK                            x       y       z     vdW  Elec       q    Type
REMARK                         _______ _______ _______ _____ _____    ______ ____
ROOT
ATOM      1  C   UNL     1       4.485   3.777  17.475  0.00  0.00    +0.000 C 
ATOM      2  C   UNL     1       4.019   5.181  17.723  0.00  0.00    +0.000 A 
ATOM      3  C   UNL     1       4.373   6.317  17.000  0.00  0.00    +0.000 A 
ATOM      4  C   UNL     1       3.602   7.381  17.531  0.00  0.00    +0.000 A 
ATOM      5  C   UNL     1       2.818   6.913  18.580  0.00  0.00    +0.000 A 
ATOM      6  N   UNL     1       3.040   5.525  18.666  0.00  0.00    +0.000 N 
ENDROOT
BRANCH   6   7
ATOM      7  C   UNL     1       2.388   4.602  19.550  0.00  0.00    +0.000 A 
ATOM      8  C   UNL     1       2.863   4.416  20.859  0.00  0.00    +0.000 A 
ATOM      9  C   UNL     1       2.212   3.542  21.736  0.00  0.00    +0.000 A 
ATOM     10  C   UNL     1       1.049   2.888  21.338  0.00  0.00    +0.000 A 
ATOM     11  C   UNL     1       0.561   3.077  20.049  0.00  0.00    +0.000 A 
ATOM     12  C   UNL     1       1.247   3.898  19.153  0.00  0.00    +0.000 A 
ATOM     13  F   UNL     1       0.788   3.960  17.895  0.00  0.00    +0.000 F 
ENDBRANCH   6   7
BRANCH   5  14
ATOM     14  C   UNL     1       1.965   7.743  19.466  0.00  0.00    +0.000 A 
ATOM     15  C   UNL     1       1.739   7.350  20.796  0.00  0.00    +0.000 A 
ATOM     16  C   UNL     1       0.982   8.143  21.667  0.00  0.00    +0.000 A 
ATOM     17  C   UNL     1       0.458   9.355  21.229  0.00  0.00    +0.000 A 
ATOM     18  C   UNL     1       0.647   9.750  19.910  0.00  0.00    +0.000 A 
ATOM     19  C   UNL     1       1.356   8.928  19.026  0.00  0.00    +0.000 A 
ENDBRANCH   5  14
BRANCH   3  20
ATOM     20  C   UNL     1       5.351   6.362  15.912  0.00  0.00    +0.000 C 
ATOM     21  O   UNL     1       5.188   7.048  14.904  0.00  0.00    +0.000 OA
ATOM     22  N   UNL     1       6.486   5.608  16.107  0.00  0.00    +0.000 N 
ATOM     23  H   UNL     1       6.577   5.049  16.947  0.00  0.00    +0.000 HD
BRANCH  22  24
ATOM     24  C   UNL     1       7.555   5.588  15.137  0.00  0.00    +0.000 C 
BRANCH  24  25
ATOM     25  C   UNL     1       7.164   4.856  13.878  0.00  0.00    +0.000 A 
ATOM     26  C   UNL     1       7.759   5.166  12.648  0.00  0.00    +0.000 A 
ATOM     27  C   UNL     1       7.411   4.462  11.493  0.00  0.00    +0.000 A 
ATOM     28  C   UNL     1       6.468   3.440  11.554  0.00  0.00    +0.000 A 
ATOM     29  C   UNL     1       5.874   3.112  12.771  0.00  0.00    +0.000 A 
ATOM     30  C   UNL     1       6.224   3.812  13.928  0.00  0.00    +0.000 A 
ENDBRANCH  24  25
ENDBRANCH  22  24
ENDBRANCH   3  20
TORSDOF 5
ENDMDL
MODEL 8
REMARK VINA RESULT:      -8.2      4.931      8.621
REMARK  Name = 
REMARK  6 active torsions:
REMARK  status: ('A' for Active; 'I' for Inactive)
REMARK    1  A    between atoms: C_1  and  C_2
REMARK    2  A    between atoms: C_3  and  C_4
REMARK    3  A    between atoms: N_6  and  C_7
REMARK    4  A    between atoms: C_7  and  C_8
REMARK    5  A    between atoms: C_15  and  C_16
REMARK    6  A    between atoms: N_22  and  C_23
REMARK                            x       y       z     vdW  Elec       q    Type
REMARK                         _______ _______ _______ _____ _____    ______ ____
ROOT
ATOM      1  C   UNL     1       2.584  11.931  17.856  0.00  0.00    +0.000 C 
ATOM      2  C   UNL     1       1.479  11.388  18.713  0.00  0.00    +0.000 A 
ATOM      3  C   UNL     1       1.197  10.046  18.958  0.00  0.00    +0.000 A 
ATOM      4  C   UNL     1       0.145  10.031  19.907  0.00  0.00    +0.000 A 
ATOM      5  C   UNL     1      -0.233  11.333  20.210  0.00  0.00    +0.000 A 
ATOM      6  N   UNL     1       0.638  12.185  19.502  0.00  0.00    +0.000 N 
ENDROOT
BRANCH   6   7
ATOM      7  C   UNL     1       0.680  13.618  19.564  0.00  0.00    +0.000 A 
ATOM      8  C   UNL     1      -0.153  14.390  18.737  0.00  0.00    +0.000 A 
ATOM      9  C   UNL     1      -0.139  15.785  18.817  0.00  0.00    +0.000 A 
ATOM     10  C   UNL     1       0.661  16.426  19.759  0.00  0.00    +0.000 A 
ATOM     11  C   UNL     1       1.479  15.670  20.594  0.00  0.00    +0.000 A 
ATOM     12  C   UNL     1       1.514  14.281  20.470  0.00  0.00    +0.000 A 
ATOM     13  F   UNL     1       2.395  13.614  21.229  0.00  0.00    +0.000 F 
ENDBRANCH   6   7
BRANCH   5  14
ATOM     14  C   UNL     1      -1.376  11.730  21.069  0.00  0.00    +0.000 A 
ATOM     15  C   UNL     1      -1.318  11.523  22.458  0.00  0.00    +0.000 A 
ATOM     16  C   UNL     1      -2.360  11.938  23.296  0.00  0.00    +0.000 A 
ATOM     17  C   UNL     1      -3.468  12.588  22.762  0.00  0.00    +0.000 A 
ATOM     18  C   UNL     1      -3.558  12.780  21.388  0.00  0.00    +0.000 A 
ATOM     19  C   UNL     1      -2.540  12.314  20.547  0.00  0.00    +0.000 A 
ENDBRANCH   5  14
BRANCH   3  20
ATOM     20  C   UNL     1       1.878   8.908  18.339  0.00  0.00    +0.000 C 
ATOM     21  O   UNL     1       2.176   8.886  17.145  0.00  0.00    +0.000 OA
ATOM     22  N   UNL     1       2.193   7.874  19.190  0.00  0.00    +0.000 N 
ATOM     23  H   UNL     1       1.922   7.927  20.165  0.00  0.00    +0.000 HD
BRANCH  22  24
ATOM     24  C   UNL     1       2.902   6.705  18.727  0.00  0.00    +0.000 C 
BRANCH  24  25
ATOM     25  C   UNL     1       2.176   5.429  19.072  0.00  0.00    +0.000 A 
ATOM     26  C   UNL     1       1.879   4.477  18.087  0.00  0.00    +0.000 A 
ATOM     27  C   UNL     1       1.233   3.285  18.423  0.00  0.00    +0.000 A 
ATOM     28  C   UNL     1       0.878   3.030  19.745  0.00  0.00    +0.000 A 
ATOM     29  C   UNL     1       1.175   3.961  20.737  0.00  0.00    +0.000 A 
ATOM     30  C   UNL     1       1.826   5.152  20.405  0.00  0.00    +0.000 A 
ENDBRANCH  24  25
ENDBRANCH  22  24
ENDBRANCH   3  20
TORSDOF 5
ENDMDL
MODEL 9
REMARK VINA RESULT:      -8.2      2.919      7.748
REMARK  Name = 
REMARK  6 active torsions:
REMARK  status: ('A' for Active; 'I' for Inactive)
REMARK    1  A    between atoms: C_1  and  C_2
REMARK    2  A    between atoms: C_3  and  C_4
REMARK    3  A    between atoms: N_6  and  C_7
REMARK    4  A    between atoms: C_7  and  C_8
REMARK    5  A    between atoms: C_15  and  C_16
REMARK    6  A    between atoms: N_22  and  C_23
REMARK                            x       y       z     vdW  Elec       q    Type
REMARK                         _______ _______ _______ _____ _____    ______ ____
ROOT
ATOM      1  C   UNL     1       1.296   5.661  20.220  0.00  0.00    +0.000 C 
ATOM      2  C   UNL     1       2.248   6.168  19.176  0.00  0.00    +0.000 A 
ATOM      3  C   UNL     1       2.453   7.495  18.808  0.00  0.00    +0.000 A 
ATOM      4  C   UNL     1       3.517   7.486  17.873  0.00  0.00    +0.000 A 
ATOM      5  C   UNL     1       3.933   6.179  17.648  0.00  0.00    +0.000 A 
ATOM      6  N   UNL     1       3.173   5.357  18.504  0.00  0.00    +0.000 N 
ENDROOT
BRANCH   6   7
ATOM      7  C   UNL     1       3.307   3.939  18.678  0.00  0.00    +0.000 A 
ATOM      8  C   UNL     1       2.376   3.061  18.099  0.00  0.00    +0.000 A 
ATOM      9  C   UNL     1       2.520   1.677  18.238  0.00  0.00    +0.000 A 
ATOM     10  C   UNL     1       3.622   1.151  18.908  0.00  0.00    +0.000 A 
ATOM     11  C   UNL     1       4.559   2.012  19.472  0.00  0.00    +0.000 A 
ATOM     12  C   UNL     1       4.381   3.393  19.389  0.00  0.00    +0.000 A 
ATOM     13  F   UNL     1       5.258   4.170  20.040  0.00  0.00    +0.000 F 
ENDBRANCH   6   7
BRANCH   5  14
ATOM     14  C   UNL     1       4.942   5.746  16.650  0.00  0.00    +0.000 A 
ATOM     15  C   UNL     1       6.284   6.143  16.788  0.00  0.00    +0.000 A 
ATOM     16  C   UNL     1       7.264   5.704  15.890  0.00  0.00    +0.000 A 
ATOM     17  C   UNL     1       6.925   4.842  14.852  0.00  0.00    +0.000 A 
ATOM     18  C   UNL     1       5.599   4.459  14.682  0.00  0.00    +0.000 A 
ATOM     19  C   UNL     1       4.611   4.944  15.547  0.00  0.00    +0.000 A 
ENDBRANCH   5  14
BRANCH   3  20
ATOM     20  C   UNL     1       1.697   8.642  19.311  0.00  0.00    +0.000 C 
ATOM     21  O   UNL     1       1.425   8.784  20.503  0.00  0.00    +0.000 OA
ATOM     22  N   UNL     1       1.335   9.573  18.365  0.00  0.00    +0.000 N 
ATOM     23  H   UNL     1       1.570   9.415  17.392  0.00  0.00    +0.000 HD
BRANCH  22  24
ATOM     24  C   UNL     1       0.622  10.776  18.722  0.00  0.00    +0.000 C 
BRANCH  24  25
ATOM     25  C   UNL     1      -0.823  10.725  18.297  0.00  0.00    +0.000 A 
ATOM     26  C   UNL     1      -1.270   9.778  17.366  0.00  0.00    +0.000 A 
ATOM     27  C   UNL     1      -2.617   9.719  17.001  0.00  0.00    +0.000 A 
ATOM     28  C   UNL     1      -3.533  10.604  17.565  0.00  0.00    +0.000 A 
ATOM     29  C   UNL     1      -3.108  11.544  18.500  0.00  0.00    +0.000 A 
ATOM     30  C   UNL     1      -1.761  11.602  18.869  0.00  0.00    +0.000 A 
ENDBRANCH  24  25
ENDBRANCH  22  24
ENDBRANCH   3  20
TORSDOF 5
ENDMDL
