MODEL 1
REMARK VINA RESULT:      -7.9      0.000      0.000
REMARK  Name = 
REMARK  6 active torsions:
REMARK  status: ('A' for Active; 'I' for Inactive)
REMARK    1  A    between atoms: C_2  and  C_12
REMARK    2  A    between atoms: N_3  and  C_4
REMARK    3  A    between atoms: C_10  and  O_11
REMARK    4  A    between atoms: C_15  and  O_16
REMARK    5  A    between atoms: O_16  and  C_17
REMARK    6  A    between atoms: C_17  and  C_18
REMARK                            x       y       z     vdW  Elec       q    Type
REMARK                         _______ _______ _______ _____ _____    ______ ____
ROOT
ATOM      1  O   UNL     1       6.043   4.215  16.660  0.00  0.00    +0.000 OA
ATOM      2  C   UNL     1       5.815   4.984  17.582  0.00  0.00    +0.000 C 
ATOM      3  N   UNL     1       4.748   4.866  18.450  0.00  0.00    +0.000 N 
ATOM      4  H   UNL     1       4.853   5.271  19.373  0.00  0.00    +0.000 HD
ENDROOT
BRANCH   3   5
ATOM      5  C   UNL     1       3.754   3.792  18.339  0.00  0.00    +0.000 C 
ATOM      6  C   UNL     1       2.338   4.359  18.074  0.00  0.00    +0.000 C 
ATOM      7  N   UNL     1       1.378   3.349  17.641  0.00  0.00    +0.000 NA
ATOM      8  C   UNL     1       0.625   2.708  18.705  0.00  0.00    +0.000 C 
ATOM      9  C   UNL     1       1.387   2.340  19.976  0.00  0.00    +0.000 C 
ATOM     10  C   UNL     1       2.798   1.810  19.742  0.00  0.00    +0.000 C 
ATOM     11  C   UNL     1       3.828   2.937  19.626  0.00  0.00    +0.000 C 
ATOM     12  H   UNL     1       1.830   2.663  17.037  0.00  0.00    +0.000 HD
BRANCH  11  13
ATOM     13  O   UNL     1       5.144   2.366  19.731  0.00  0.00    +0.000 OA
ATOM     14  H   UNL     1       5.060   1.402  19.617  0.00  0.00    +0.000 HD
ENDBRANCH  11  13
ENDBRANCH   3   5
BRANCH   2  15
ATOM     15  C   UNL     1       6.718   6.128  17.854  0.00  0.00    +0.000 A 
ATOM     16  C   UNL     1       6.624   7.301  17.098  0.00  0.00    +0.000 A 
ATOM     17  C   UNL     1       7.443   8.386  17.391  0.00  0.00    +0.000 A 
ATOM     18  C   UNL     1       8.345   8.313  18.453  0.00  0.00    +0.000 A 
ATOM     19  C   UNL     1       8.497   7.118  19.159  0.00  0.00    +0.000 A 
ATOM     20  C   UNL     1       7.684   6.022  18.862  0.00  0.00    +0.000 A 
BRANCH  18  21
ATOM     21  O   UNL     1       9.119   9.361  18.867  0.00  0.00    +0.000 OA
BRANCH  21  22
ATOM     22  C   UNL     1       8.990  10.537  18.062  0.00  0.00    +0.000 C 
BRANCH  22  23
ATOM     23  C   UNL     1       9.967  11.571  18.547  0.00  0.00    +0.000 A 
ATOM     24  C   UNL     1       9.838  12.912  18.169  0.00  0.00    +0.000 A 
ATOM     25  C   UNL     1      10.746  13.862  18.634  0.00  0.00    +0.000 A 
ATOM     26  C   UNL     1      11.784  13.478  19.485  0.00  0.00    +0.000 A 
ATOM     27  C   UNL     1      11.908  12.148  19.880  0.00  0.00    +0.000 A 
ATOM     28  C   UNL     1      11.001  11.197  19.417  0.00  0.00    +0.000 A 
ENDBRANCH  22  23
ENDBRANCH  21  22
ENDBRANCH  18  21
ENDBRANCH   2  15
TORSDOF 6
ENDMDL
MODEL 2
REMARK VINA RESULT:      -7.6      2.748      9.815
REMARK  Name = 
REMARK  6 active torsions:
REMARK  status: ('A' for Active; 'I' for Inactive)
REMARK    1  A    between atoms: C_2  and  C_12
REMARK    2  A    between atoms: N_3  and  C_4
REMARK    3  A    between atoms: C_10  and  O_11
REMARK    4  A    between atoms: C_15  and  O_16
REMARK    5  A    between atoms: O_16  and  C_17
REMARK    6  A    between atoms: C_17  and  C_18
REMARK                            x       y       z     vdW  Elec       q    Type
REMARK                         _______ _______ _______ _____ _____    ______ ____
ROOT
ATOM      1  O   UNL     1       7.620  10.143  17.184  0.00  0.00    +0.000 OA
ATOM      2  C   UNL     1       8.162   9.375  17.964  0.00  0.00    +0.000 C 
ATOM      3  N   UNL     1       9.155   9.738  18.851  0.00  0.00    +0.000 N 
ATOM      4  H   UNL     1       9.255   9.180  19.692  0.00  0.00    +0.000 HD
ENDROOT
BRANCH   3   5
ATOM      5  C   UNL     1       9.680  11.106  18.935  0.00  0.00    +0.000 C 
ATOM      6  C   UNL     1      10.611  11.428  17.741  0.00  0.00    +0.000 C 
ATOM      7  N   UNL     1      10.903  12.851  17.597  0.00  0.00    +0.000 NA
ATOM      8  C   UNL     1      12.088  13.317  18.295  0.00  0.00    +0.000 C 
ATOM      9  C   UNL     1      12.333  12.769  19.699  0.00  0.00    +0.000 C 
ATOM     10  C   UNL     1      11.077  12.608  20.549  0.00  0.00    +0.000 C 
ATOM     11  C   UNL     1      10.381  11.266  20.305  0.00  0.00    +0.000 C 
ATOM     12  H   UNL     1      10.084  13.408  17.837  0.00  0.00    +0.000 HD
BRANCH  11  13
ATOM     13  O   UNL     1       9.415  11.055  21.350  0.00  0.00    +0.000 OA
ATOM     14  H   UNL     1       8.754  10.422  21.019  0.00  0.00    +0.000 HD
ENDBRANCH  11  13
ENDBRANCH   3   5
BRANCH   2  15
ATOM     15  C   UNL     1       7.757   7.951  18.028  0.00  0.00    +0.000 A 
ATOM     16  C   UNL     1       8.328   7.093  18.974  0.00  0.00    +0.000 A 
ATOM     17  C   UNL     1       7.909   5.770  19.058  0.00  0.00    +0.000 A 
ATOM     18  C   UNL     1       6.902   5.302  18.213  0.00  0.00    +0.000 A 
ATOM     19  C   UNL     1       6.385   6.132  17.216  0.00  0.00    +0.000 A 
ATOM     20  C   UNL     1       6.810   7.459  17.121  0.00  0.00    +0.000 A 
BRANCH  18  21
ATOM     21  O   UNL     1       6.366   4.047  18.291  0.00  0.00    +0.000 OA
BRANCH  21  22
ATOM     22  C   UNL     1       5.407   3.885  19.341  0.00  0.00    +0.000 C 
BRANCH  22  23
ATOM     23  C   UNL     1       4.032   3.806  18.740  0.00  0.00    +0.000 A 
ATOM     24  C   UNL     1       3.526   2.591  18.263  0.00  0.00    +0.000 A 
ATOM     25  C   UNL     1       2.244   2.531  17.718  0.00  0.00    +0.000 A 
ATOM     26  C   UNL     1       1.459   3.683  17.652  0.00  0.00    +0.000 A 
ATOM     27  C   UNL     1       1.949   4.893  18.141  0.00  0.00    +0.000 A 
ATOM     28  C   UNL     1       3.229   4.954  18.687  0.00  0.00    +0.000 A 
ENDBRANCH  22  23
ENDBRANCH  21  22
ENDBRANCH  18  21
ENDBRANCH   2  15
TORSDOF 6
ENDMDL
MODEL 3
REMARK VINA RESULT:      -7.5      7.165     10.478
REMARK  Name = 
REMARK  6 active torsions:
REMARK  status: ('A' for Active; 'I' for Inactive)
REMARK    1  A    between atoms: C_2  and  C_12
REMARK    2  A    between atoms: N_3  and  C_4
REMARK    3  A    between atoms: C_10  and  O_11
REMARK    4  A    between atoms: C_15  and  O_16
REMARK    5  A    between atoms: O_16  and  C_17
REMARK    6  A    between atoms: C_17  and  C_18
REMARK                            x       y       z     vdW  Elec       q    Type
REMARK                         _______ _______ _______ _____ _____    ______ ____
ROOT
ATOM      1  O   UNL     1      -0.010  12.108  18.515  0.00  0.00    +0.000 OA
ATOM      2  C   UNL     1      -0.443  10.971  18.628  0.00  0.00    +0.000 C 
ATOM      3  N   UNL     1      -1.779  10.634  18.542  0.00  0.00    +0.000 N 
ATOM      4  H   UNL     1      -2.002   9.689  18.251  0.00  0.00    +0.000 HD
ENDROOT
BRANCH   3   5
ATOM      5  C   UNL     1      -2.834  11.630  18.319  0.00  0.00    +0.000 C 
ATOM      6  C   UNL     1      -3.568  11.980  19.637  0.00  0.00    +0.000 C 
ATOM      7  N   UNL     1      -4.395  13.178  19.541  0.00  0.00    +0.000 NA
ATOM      8  C   UNL     1      -5.776  12.953  19.152  0.00  0.00    +0.000 C 
ATOM      9  C   UNL     1      -6.032  11.929  18.047  0.00  0.00    +0.000 C 
ATOM     10  C   UNL     1      -5.010  11.945  16.914  0.00  0.00    +0.000 C 
ATOM     11  C   UNL     1      -3.785  11.083  17.227  0.00  0.00    +0.000 C 
ATOM     12  H   UNL     1      -3.947  13.874  18.947  0.00  0.00    +0.000 HD
BRANCH  11  13
ATOM     13  O   UNL     1      -3.038  10.892  16.013  0.00  0.00    +0.000 OA
ATOM     14  H   UNL     1      -3.215   9.989  15.694  0.00  0.00    +0.000 HD
ENDBRANCH  11  13
ENDBRANCH   3   5
BRANCH   2  15
ATOM     15  C   UNL     1       0.476   9.830  18.850  0.00  0.00    +0.000 A 
ATOM     16  C   UNL     1       1.184   9.271  17.781  0.00  0.00    +0.000 A 
ATOM     17  C   UNL     1       2.079   8.232  18.005  0.00  0.00    +0.000 A 
ATOM     18  C   UNL     1       2.288   7.759  19.301  0.00  0.00    +0.000 A 
ATOM     19  C   UNL     1       1.528   8.260  20.359  0.00  0.00    +0.000 A 
ATOM     20  C   UNL     1       0.620   9.297  20.136  0.00  0.00    +0.000 A 
BRANCH  18  21
ATOM     21  O   UNL     1       3.216   6.807  19.623  0.00  0.00    +0.000 OA
BRANCH  21  22
ATOM     22  C   UNL     1       3.304   5.734  18.680  0.00  0.00    +0.000 C 
BRANCH  22  23
ATOM     23  C   UNL     1       2.435   4.600  19.148  0.00  0.00    +0.000 A 
ATOM     24  C   UNL     1       2.277   4.333  20.513  0.00  0.00    +0.000 A 
ATOM     25  C   UNL     1       1.460   3.284  20.932  0.00  0.00    +0.000 A 
ATOM     26  C   UNL     1       0.791   2.501  19.990  0.00  0.00    +0.000 A 
ATOM     27  C   UNL     1       0.928   2.772  18.630  0.00  0.00    +0.000 A 
ATOM     28  C   UNL     1       1.744   3.820  18.209  0.00  0.00    +0.000 A 
ENDBRANCH  22  23
ENDBRANCH  21  22
ENDBRANCH  18  21
ENDBRANCH   2  15
TORSDOF 6
ENDMDL
MODEL 4
REMARK VINA RESULT:      -7.5      7.298     10.616
REMARK  Name = 
REMARK  6 active torsions:
REMARK  status: ('A' for Active; 'I' for Inactive)
REMARK    1  A    between atoms: C_2  and  C_12
REMARK    2  A    between atoms: N_3  and  C_4
REMARK    3  A    between atoms: C_10  and  O_11
REMARK    4  A    between atoms: C_15  and  O_16
REMARK    5  A    between atoms: O_16  and  C_17
REMARK    6  A    between atoms: C_17  and  C_18
REMARK                            x       y       z     vdW  Elec       q    Type
REMARK                         _______ _______ _______ _____ _____    ______ ____
ROOT
ATOM      1  O   UNL     1      -0.955  11.753  20.233  0.00  0.00    +0.000 OA
ATOM      2  C   UNL     1      -0.880  10.931  19.333  0.00  0.00    +0.000 C 
ATOM      3  N   UNL     1      -1.750  10.864  18.264  0.00  0.00    +0.000 N 
ATOM      4  H   UNL     1      -1.403  10.450  17.406  0.00  0.00    +0.000 HD
ENDROOT
BRANCH   3   5
ATOM      5  C   UNL     1      -2.885  11.782  18.109  0.00  0.00    +0.000 C 
ATOM      6  C   UNL     1      -3.679  11.926  19.430  0.00  0.00    +0.000 C 
ATOM      7  N   UNL     1      -4.609  13.050  19.430  0.00  0.00    +0.000 NA
ATOM      8  C   UNL     1      -5.954  12.747  18.974  0.00  0.00    +0.000 C 
ATOM      9  C   UNL     1      -6.090  11.826  17.763  0.00  0.00    +0.000 C 
ATOM     10  C   UNL     1      -5.047  12.050  16.672  0.00  0.00    +0.000 C 
ATOM     11  C   UNL     1      -3.756  11.271  16.936  0.00  0.00    +0.000 C 
ATOM     12  H   UNL     1      -4.212  13.842  18.925  0.00  0.00    +0.000 HD
BRANCH  11  13
ATOM     13  O   UNL     1      -2.967  11.274  15.734  0.00  0.00    +0.000 OA
ATOM     14  H   UNL     1      -3.378  10.652  15.107  0.00  0.00    +0.000 HD
ENDBRANCH  11  13
ENDBRANCH   3   5
BRANCH   2  15
ATOM     15  C   UNL     1       0.209   9.925  19.316  0.00  0.00    +0.000 A 
ATOM     16  C   UNL     1       0.589   9.271  20.492  0.00  0.00    +0.000 A 
ATOM     17  C   UNL     1       1.579   8.296  20.459  0.00  0.00    +0.000 A 
ATOM     18  C   UNL     1       2.180   7.953  19.247  0.00  0.00    +0.000 A 
ATOM     19  C   UNL     1       1.859   8.656  18.085  0.00  0.00    +0.000 A 
ATOM     20  C   UNL     1       0.873   9.644  18.115  0.00  0.00    +0.000 A 
BRANCH  18  21
ATOM     21  O   UNL     1       3.091   6.943  19.109  0.00  0.00    +0.000 OA
BRANCH  21  22
ATOM     22  C   UNL     1       2.730   5.958  18.136  0.00  0.00    +0.000 C 
BRANCH  22  23
ATOM     23  C   UNL     1       2.100   4.787  18.837  0.00  0.00    +0.000 A 
ATOM     24  C   UNL     1       2.068   4.719  20.235  0.00  0.00    +0.000 A 
ATOM     25  C   UNL     1       1.471   3.632  20.871  0.00  0.00    +0.000 A 
ATOM     26  C   UNL     1       0.897   2.610  20.114  0.00  0.00    +0.000 A 
ATOM     27  C   UNL     1       0.908   2.678  18.722  0.00  0.00    +0.000 A 
ATOM     28  C   UNL     1       1.504   3.765  18.085  0.00  0.00    +0.000 A 
ENDBRANCH  22  23
ENDBRANCH  21  22
ENDBRANCH  18  21
ENDBRANCH   2  15
TORSDOF 6
ENDMDL
MODEL 5
REMARK VINA RESULT:      -7.5      1.363      1.525
REMARK  Name = 
REMARK  6 active torsions:
REMARK  status: ('A' for Active; 'I' for Inactive)
REMARK    1  A    between atoms: C_2  and  C_12
REMARK    2  A    between atoms: N_3  and  C_4
REMARK    3  A    between atoms: C_10  and  O_11
REMARK    4  A    between atoms: C_15  and  O_16
REMARK    5  A    between atoms: O_16  and  C_17
REMARK    6  A    between atoms: C_17  and  C_18
REMARK                            x       y       z     vdW  Elec       q    Type
REMARK                         _______ _______ _______ _____ _____    ______ ____
ROOT
ATOM      1  O   UNL     1       5.453   3.841  17.469  0.00  0.00    +0.000 OA
ATOM      2  C   UNL     1       5.382   4.795  18.228  0.00  0.00    +0.000 C 
ATOM      3  N   UNL     1       4.513   4.877  19.298  0.00  0.00    +0.000 N 
ATOM      4  H   UNL     1       4.783   5.474  20.071  0.00  0.00    +0.000 HD
ENDROOT
BRANCH   3   5
ATOM      5  C   UNL     1       3.558   3.811  19.624  0.00  0.00    +0.000 C 
ATOM      6  C   UNL     1       3.244   2.936  18.387  0.00  0.00    +0.000 C 
ATOM      7  N   UNL     1       2.563   1.688  18.715  0.00  0.00    +0.000 NA
ATOM      8  C   UNL     1       1.112   1.747  18.701  0.00  0.00    +0.000 C 
ATOM      9  C   UNL     1       0.458   2.990  19.301  0.00  0.00    +0.000 C 
ATOM     10  C   UNL     1       1.138   3.524  20.558  0.00  0.00    +0.000 C 
ATOM     11  C   UNL     1       2.296   4.470  20.231  0.00  0.00    +0.000 C 
ATOM     12  H   UNL     1       2.914   1.311  19.594  0.00  0.00    +0.000 HD
BRANCH  11  13
ATOM     13  O   UNL     1       2.668   5.169  21.432  0.00  0.00    +0.000 OA
ATOM     14  H   UNL     1       1.874   5.243  21.991  0.00  0.00    +0.000 HD
ENDBRANCH  11  13
ENDBRANCH   3   5
BRANCH   2  15
ATOM     15  C   UNL     1       6.276   5.965  18.059  0.00  0.00    +0.000 A 
ATOM     16  C   UNL     1       5.946   6.986  17.163  0.00  0.00    +0.000 A 
ATOM     17  C   UNL     1       6.766   8.102  17.044  0.00  0.00    +0.000 A 
ATOM     18  C   UNL     1       7.910   8.215  17.835  0.00  0.00    +0.000 A 
ATOM     19  C   UNL     1       8.285   7.163  18.674  0.00  0.00    +0.000 A 
ATOM     20  C   UNL     1       7.469   6.036  18.788  0.00  0.00    +0.000 A 
BRANCH  18  21
ATOM     21  O   UNL     1       8.719   9.317  17.851  0.00  0.00    +0.000 OA
BRANCH  21  22
ATOM     22  C   UNL     1       8.967   9.841  19.159  0.00  0.00    +0.000 C 
BRANCH  22  23
ATOM     23  C   UNL     1      10.011  10.919  19.064  0.00  0.00    +0.000 A 
ATOM     24  C   UNL     1      10.473  11.362  17.819  0.00  0.00    +0.000 A 
ATOM     25  C   UNL     1      11.434  12.370  17.747  0.00  0.00    +0.000 A 
ATOM     26  C   UNL     1      11.933  12.943  18.916  0.00  0.00    +0.000 A 
ATOM     27  C   UNL     1      11.465  12.520  20.159  0.00  0.00    +0.000 A 
ATOM     28  C   UNL     1      10.505  11.513  20.234  0.00  0.00    +0.000 A 
ENDBRANCH  22  23
ENDBRANCH  21  22
ENDBRANCH  18  21
ENDBRANCH   2  15
TORSDOF 6
ENDMDL
MODEL 6
REMARK VINA RESULT:      -7.4      7.541     10.748
REMARK  Name = 
REMARK  6 active torsions:
REMARK  status: ('A' for Active; 'I' for Inactive)
REMARK    1  A    between atoms: C_2  and  C_12
REMARK    2  A    between atoms: N_3  and  C_4
REMARK    3  A    between atoms: C_10  and  O_11
REMARK    4  A    between atoms: C_15  and  O_16
REMARK    5  A    between atoms: O_16  and  C_17
REMARK    6  A    between atoms: C_17  and  C_18
REMARK                            x       y       z     vdW  Elec       q    Type
REMARK                         _______ _______ _______ _____ _____    ______ ____
ROOT
ATOM      1  O   UNL     1      -0.553  12.475  19.283  0.00  0.00    +0.000 OA
ATOM      2  C   UNL     1      -0.890  11.315  19.102  0.00  0.00    +0.000 C 
ATOM      3  N   UNL     1      -2.140  10.926  18.665  0.00  0.00    +0.000 N 
ATOM      4  H   UNL     1      -2.207  10.040  18.176  0.00  0.00    +0.000 HD
ENDROOT
BRANCH   3   5
ATOM      5  C   UNL     1      -3.215  11.885  18.384  0.00  0.00    +0.000 C 
ATOM      6  C   UNL     1      -3.982  12.267  19.673  0.00  0.00    +0.000 C 
ATOM      7  N   UNL     1      -4.837  13.440  19.515  0.00  0.00    +0.000 NA
ATOM      8  C   UNL     1      -6.204  13.165  19.109  0.00  0.00    +0.000 C 
ATOM      9  C   UNL     1      -6.413  12.092  18.042  0.00  0.00    +0.000 C 
ATOM     10  C   UNL     1      -5.371  12.090  16.928  0.00  0.00    +0.000 C 
ATOM     11  C   UNL     1      -4.131  11.272  17.297  0.00  0.00    +0.000 C 
ATOM     12  H   UNL     1      -4.394  14.124  18.902  0.00  0.00    +0.000 HD
BRANCH  11  13
ATOM     13  O   UNL     1      -3.356  11.053  16.105  0.00  0.00    +0.000 OA
ATOM     14  H   UNL     1      -3.701  10.252  15.671  0.00  0.00    +0.000 HD
ENDBRANCH  11  13
ENDBRANCH   3   5
BRANCH   2  15
ATOM     15  C   UNL     1       0.066  10.206  19.328  0.00  0.00    +0.000 A 
ATOM     16  C   UNL     1       0.193   9.625  20.594  0.00  0.00    +0.000 A 
ATOM     17  C   UNL     1       1.059   8.554  20.786  0.00  0.00    +0.000 A 
ATOM     18  C   UNL     1       1.786   8.044  19.711  0.00  0.00    +0.000 A 
ATOM     19  C   UNL     1       1.722   8.669  18.464  0.00  0.00    +0.000 A 
ATOM     20  C   UNL     1       0.861   9.751  18.269  0.00  0.00    +0.000 A 
BRANCH  18  21
ATOM     21  O   UNL     1       2.586   6.937  19.790  0.00  0.00    +0.000 OA
BRANCH  21  22
ATOM     22  C   UNL     1       1.990   5.833  20.476  0.00  0.00    +0.000 C 
BRANCH  22  23
ATOM     23  C   UNL     1       2.008   4.629  19.575  0.00  0.00    +0.000 A 
ATOM     24  C   UNL     1       2.574   4.699  18.297  0.00  0.00    +0.000 A 
ATOM     25  C   UNL     1       2.593   3.572  17.477  0.00  0.00    +0.000 A 
ATOM     26  C   UNL     1       2.054   2.368  17.932  0.00  0.00    +0.000 A 
ATOM     27  C   UNL     1       1.504   2.286  19.210  0.00  0.00    +0.000 A 
ATOM     28  C   UNL     1       1.485   3.411  20.032  0.00  0.00    +0.000 A 
ENDBRANCH  22  23
ENDBRANCH  21  22
ENDBRANCH  18  21
ENDBRANCH   2  15
TORSDOF 6
ENDMDL
MODEL 7
REMARK VINA RESULT:      -7.4      5.681      8.828
REMARK  Name = 
REMARK  6 active torsions:
REMARK  status: ('A' for Active; 'I' for Inactive)
REMARK    1  A    between atoms: C_2  and  C_12
REMARK    2  A    between atoms: N_3  and  C_4
REMARK    3  A    between atoms: C_10  and  O_11
REMARK    4  A    between atoms: C_15  and  O_16
REMARK    5  A    between atoms: O_16  and  C_17
REMARK    6  A    between atoms: C_17  and  C_18
REMARK                            x       y       z     vdW  Elec       q    Type
REMARK                         _______ _______ _______ _____ _____    ______ ____
ROOT
ATOM      1  O   UNL     1       3.845   5.586  19.683  0.00  0.00    +0.000 OA
ATOM      2  C   UNL     1       3.542   6.460  18.885  0.00  0.00    +0.000 C 
ATOM      3  N   UNL     1       4.094   6.593  17.627  0.00  0.00    +0.000 N 
ATOM      4  H   UNL     1       3.535   7.055  16.919  0.00  0.00    +0.000 HD
ENDROOT
BRANCH   3   5
ATOM      5  C   UNL     1       5.134   5.689  17.120  0.00  0.00    +0.000 C 
ATOM      6  C   UNL     1       6.148   6.440  16.224  0.00  0.00    +0.000 C 
ATOM      7  N   UNL     1       7.364   5.678  15.956  0.00  0.00    +0.000 NA
ATOM      8  C   UNL     1       7.333   4.854  14.761  0.00  0.00    +0.000 C 
ATOM      9  C   UNL     1       6.042   4.090  14.473  0.00  0.00    +0.000 C 
ATOM     10  C   UNL     1       5.358   3.507  15.705  0.00  0.00    +0.000 C 
ATOM     11  C   UNL     1       4.433   4.519  16.387  0.00  0.00    +0.000 C 
ATOM     12  H   UNL     1       7.633   5.137  16.777  0.00  0.00    +0.000 HD
BRANCH  11  13
ATOM     13  O   UNL     1       3.598   3.816  17.323  0.00  0.00    +0.000 OA
ATOM     14  H   UNL     1       4.065   3.791  18.177  0.00  0.00    +0.000 HD
ENDBRANCH  11  13
ENDBRANCH   3   5
BRANCH   2  15
ATOM     15  C   UNL     1       2.502   7.462  19.219  0.00  0.00    +0.000 A 
ATOM     16  C   UNL     1       1.872   7.441  20.467  0.00  0.00    +0.000 A 
ATOM     17  C   UNL     1       0.931   8.412  20.790  0.00  0.00    +0.000 A 
ATOM     18  C   UNL     1       0.631   9.423  19.877  0.00  0.00    +0.000 A 
ATOM     19  C   UNL     1       1.200   9.404  18.602  0.00  0.00    +0.000 A 
ATOM     20  C   UNL     1       2.137   8.424  18.269  0.00  0.00    +0.000 A 
BRANCH  18  21
ATOM     21  O   UNL     1      -0.208  10.468  20.147  0.00  0.00    +0.000 OA
BRANCH  21  22
ATOM     22  C   UNL     1      -0.434  11.339  19.034  0.00  0.00    +0.000 C 
BRANCH  22  23
ATOM     23  C   UNL     1      -1.844  11.155  18.547  0.00  0.00    +0.000 A 
ATOM     24  C   UNL     1      -2.885  11.943  19.049  0.00  0.00    +0.000 A 
ATOM     25  C   UNL     1      -4.186  11.768  18.580  0.00  0.00    +0.000 A 
ATOM     26  C   UNL     1      -4.452  10.809  17.601  0.00  0.00    +0.000 A 
ATOM     27  C   UNL     1      -3.418  10.033  17.082  0.00  0.00    +0.000 A 
ATOM     28  C   UNL     1      -2.117  10.207  17.550  0.00  0.00    +0.000 A 
ENDBRANCH  22  23
ENDBRANCH  21  22
ENDBRANCH  18  21
ENDBRANCH   2  15
TORSDOF 6
ENDMDL
MODEL 8
REMARK VINA RESULT:      -7.4      6.040      9.056
REMARK  Name = 
REMARK  6 active torsions:
REMARK  status: ('A' for Active; 'I' for Inactive)
REMARK    1  A    between atoms: C_2  and  C_12
REMARK    2  A    between atoms: N_3  and  C_4
REMARK    3  A    between atoms: C_10  and  O_11
REMARK    4  A    between atoms: C_15  and  O_16
REMARK    5  A    between atoms: O_16  and  C_17
REMARK    6  A    between atoms: C_17  and  C_18
REMARK                            x       y       z     vdW  Elec       q    Type
REMARK                         _______ _______ _______ _____ _____    ______ ____
ROOT
ATOM      1  O   UNL     1       3.507   6.010  19.727  0.00  0.00    +0.000 OA
ATOM      2  C   UNL     1       3.269   6.841  18.864  0.00  0.00    +0.000 C 
ATOM      3  N   UNL     1       3.894   6.888  17.633  0.00  0.00    +0.000 N 
ATOM      4  H   UNL     1       3.385   7.318  16.870  0.00  0.00    +0.000 HD
ENDROOT
BRANCH   3   5
ATOM      5  C   UNL     1       4.938   5.934  17.240  0.00  0.00    +0.000 C 
ATOM      6  C   UNL     1       5.999   6.601  16.333  0.00  0.00    +0.000 C 
ATOM      7  N   UNL     1       7.213   5.805  16.174  0.00  0.00    +0.000 NA
ATOM      8  C   UNL     1       7.217   4.894  15.043  0.00  0.00    +0.000 C 
ATOM      9  C   UNL     1       5.926   4.127  14.760  0.00  0.00    +0.000 C 
ATOM     10  C   UNL     1       5.183   3.648  16.004  0.00  0.00    +0.000 C 
ATOM     11  C   UNL     1       4.249   4.721  16.569  0.00  0.00    +0.000 C 
ATOM     12  H   UNL     1       7.440   5.325  17.044  0.00  0.00    +0.000 HD
BRANCH  11  13
ATOM     13  O   UNL     1       3.364   4.103  17.519  0.00  0.00    +0.000 OA
ATOM     14  H   UNL     1       2.637   3.688  17.022  0.00  0.00    +0.000 HD
ENDBRANCH  11  13
ENDBRANCH   3   5
BRANCH   2  15
ATOM     15  C   UNL     1       2.237   7.882  19.080  0.00  0.00    +0.000 A 
ATOM     16  C   UNL     1       1.830   8.707  18.026  0.00  0.00    +0.000 A 
ATOM     17  C   UNL     1       0.828   9.650  18.226  0.00  0.00    +0.000 A 
ATOM     18  C   UNL     1       0.212   9.759  19.473  0.00  0.00    +0.000 A 
ATOM     19  C   UNL     1       0.667   8.993  20.547  0.00  0.00    +0.000 A 
ATOM     20  C   UNL     1       1.681   8.052  20.354  0.00  0.00    +0.000 A 
BRANCH  18  21
ATOM     21  O   UNL     1      -0.842  10.591  19.730  0.00  0.00    +0.000 OA
BRANCH  21  22
ATOM     22  C   UNL     1      -0.991  11.656  18.786  0.00  0.00    +0.000 C 
BRANCH  22  23
ATOM     23  C   UNL     1      -2.331  11.534  18.117  0.00  0.00    +0.000 A 
ATOM     24  C   UNL     1      -3.507  11.867  18.799  0.00  0.00    +0.000 A 
ATOM     25  C   UNL     1      -4.742  11.758  18.162  0.00  0.00    +0.000 A 
ATOM     26  C   UNL     1      -4.808  11.322  16.838  0.00  0.00    +0.000 A 
ATOM     27  C   UNL     1      -3.640  11.006  16.145  0.00  0.00    +0.000 A 
ATOM     28  C   UNL     1      -2.405  11.115  16.780  0.00  0.00    +0.000 A 
ENDBRANCH  22  23
ENDBRANCH  21  22
ENDBRANCH  18  21
ENDBRANCH   2  15
TORSDOF 6
ENDMDL
MODEL 9
REMARK VINA RESULT:      -7.3      5.844      8.922
REMARK  Name = 
REMARK  6 active torsions:
REMARK  status: ('A' for Active; 'I' for Inactive)
REMARK    1  A    between atoms: C_2  and  C_12
REMARK    2  A    between atoms: N_3  and  C_4
REMARK    3  A    between atoms: C_10  and  O_11
REMARK    4  A    between atoms: C_15  and  O_16
REMARK    5  A    between atoms: O_16  and  C_17
REMARK    6  A    between atoms: C_17  and  C_18
REMARK                            x       y       z     vdW  Elec       q    Type
REMARK                         _______ _______ _______ _____ _____    ______ ____
ROOT
ATOM      1  O   UNL     1       3.395   5.745  19.894  0.00  0.00    +0.000 OA
ATOM      2  C   UNL     1       3.241   6.637  19.074  0.00  0.00    +0.000 C 
ATOM      3  N   UNL     1       3.932   6.727  17.882  0.00  0.00    +0.000 N 
ATOM      4  H   UNL     1       3.485   7.227  17.122  0.00  0.00    +0.000 HD
ENDROOT
BRANCH   3   5
ATOM      5  C   UNL     1       4.952   5.750  17.483  0.00  0.00    +0.000 C 
ATOM      6  C   UNL     1       6.124   6.431  16.735  0.00  0.00    +0.000 C 
ATOM      7  N   UNL     1       7.300   5.578  16.598  0.00  0.00    +0.000 NA
ATOM      8  C   UNL     1       7.352   4.777  15.388  0.00  0.00    +0.000 C 
ATOM      9  C   UNL     1       6.050   4.123  14.927  0.00  0.00    +0.000 C 
ATOM     10  C   UNL     1       5.177   3.579  16.052  0.00  0.00    +0.000 C 
ATOM     11  C   UNL     1       4.258   4.652  16.642  0.00  0.00    +0.000 C 
ATOM     12  H   UNL     1       7.424   5.004  17.432  0.00  0.00    +0.000 HD
BRANCH  11  13
ATOM     13  O   UNL     1       3.261   4.005  17.453  0.00  0.00    +0.000 OA
ATOM     14  H   UNL     1       3.434   4.242  18.381  0.00  0.00    +0.000 HD
ENDBRANCH  11  13
ENDBRANCH   3   5
BRANCH   2  15
ATOM     15  C   UNL     1       2.246   7.711  19.303  0.00  0.00    +0.000 A 
ATOM     16  C   UNL     1       1.598   7.827  20.536  0.00  0.00    +0.000 A 
ATOM     17  C   UNL     1       0.700   8.866  20.757  0.00  0.00    +0.000 A 
ATOM     18  C   UNL     1       0.462   9.807  19.755  0.00  0.00    +0.000 A 
ATOM     19  C   UNL     1       1.047   9.652  18.497  0.00  0.00    +0.000 A 
ATOM     20  C   UNL     1       1.941   8.603  18.267  0.00  0.00    +0.000 A 
BRANCH  18  21
ATOM     21  O   UNL     1      -0.330  10.909  19.919  0.00  0.00    +0.000 OA
BRANCH  21  22
ATOM     22  C   UNL     1      -0.554  11.653  18.717  0.00  0.00    +0.000 C 
BRANCH  22  23
ATOM     23  C   UNL     1      -1.966  11.424  18.257  0.00  0.00    +0.000 A 
ATOM     24  C   UNL     1      -2.234  10.640  17.128  0.00  0.00    +0.000 A 
ATOM     25  C   UNL     1      -3.550  10.428  16.719  0.00  0.00    +0.000 A 
ATOM     26  C   UNL     1      -4.604  10.992  17.438  0.00  0.00    +0.000 A 
ATOM     27  C   UNL     1      -4.347  11.758  18.573  0.00  0.00    +0.000 A 
ATOM     28  C   UNL     1      -3.033  11.971  18.984  0.00  0.00    +0.000 A 
ENDBRANCH  22  23
ENDBRANCH  21  22
ENDBRANCH  18  21
ENDBRANCH   2  15
TORSDOF 6
ENDMDL
