MODEL 1
REMARK VINA RESULT:      -7.7      0.000      0.000
REMARK  Name = 
REMARK  7 active torsions:
REMARK  status: ('A' for Active; 'I' for Inactive)
REMARK    1  A    between atoms: C_2  and  O_3
REMARK    2  A    between atoms: C_2  and  C_4
REMARK    3  A    between atoms: C_7  and  C_8
REMARK    4  A    between atoms: C_8  and  N_9
REMARK    5  A    between atoms: C_10  and  C_12
REMARK    6  A    between atoms: C_18  and  C_19
REMARK    7  A    between atoms: C_19  and  C_20
REMARK                            x       y       z     vdW  Elec       q    Type
REMARK                         _______ _______ _______ _____ _____    ______ ____
ROOT
ATOM      1  N   UNL     1       1.042   9.333  18.902  0.00  0.00    +0.000 N 
ATOM      2  C   UNL     1       1.061  10.625  19.383  0.00  0.00    +0.000 C 
ATOM      3  O   UNL     1       1.821  11.482  18.946  0.00  0.00    +0.000 OA
ATOM      4  H   UNL     1       0.385   8.672  19.294  0.00  0.00    +0.000 HD
ENDROOT
BRANCH   2   5
ATOM      5  C   UNL     1       0.145  10.888  20.507  0.00  0.00    +0.000 A 
ATOM      6  C   UNL     1       0.198  10.240  21.728  0.00  0.00    +0.000 A 
ATOM      7 CL   UNL     1       1.235   8.948  22.227  0.00  0.00    +0.000 Cl
ATOM      8  S   UNL     1      -0.926  10.785  22.865  0.00  0.00    +0.000 S 
ATOM      9  C   UNL     1      -1.584  11.864  21.748  0.00  0.00    +0.000 A 
ATOM     10 CL   UNL     1      -2.910  12.837  22.264  0.00  0.00    +0.000 Cl
ATOM     11  C   UNL     1      -0.984  11.839  20.501  0.00  0.00    +0.000 A 
BRANCH  11  12
ATOM     12  C   UNL     1      -1.469  12.649  19.321  0.00  0.00    +0.000 C 
BRANCH  12  13
ATOM     13  C   UNL     1      -2.373  11.769  18.488  0.00  0.00    +0.000 A 
ATOM     14  C   UNL     1      -1.849  10.993  17.438  0.00  0.00    +0.000 A 
ATOM     15  C   UNL     1      -2.687  10.210  16.638  0.00  0.00    +0.000 A 
ATOM     16  C   UNL     1      -4.060  10.185  16.877  0.00  0.00    +0.000 A 
ATOM     17  C   UNL     1      -4.591  10.959  17.904  0.00  0.00    +0.000 A 
ATOM     18 CL   UNL     1      -6.288  10.948  18.204  0.00  0.00    +0.000 Cl
ATOM     19  C   UNL     1      -3.762  11.755  18.695  0.00  0.00    +0.000 A 
ENDBRANCH  12  13
ENDBRANCH  11  12
ENDBRANCH   2   5
BRANCH   1  20
ATOM     20  C   UNL     1       1.801   8.891  17.756  0.00  0.00    +0.000 C 
BRANCH  20  24
ATOM     21  C   UNL     1       4.376   5.591  18.838  0.00  0.00    +0.000 A 
ATOM     22  C   UNL     1       4.660   6.352  17.699  0.00  0.00    +0.000 A 
ATOM     23  C   UNL     1       3.822   7.413  17.335  0.00  0.00    +0.000 A 
ATOM     24  C   UNL     1       2.700   7.732  18.114  0.00  0.00    +0.000 A 
ATOM     25  C   UNL     1       2.418   6.955  19.247  0.00  0.00    +0.000 A 
ATOM     26  C   UNL     1       3.258   5.902  19.618  0.00  0.00    +0.000 A 
BRANCH  21  28
ATOM     27  O   UNL     1       4.969   3.340  19.327  0.00  0.00    +0.000 OA
ATOM     28  C   UNL     1       5.316   4.502  19.212  0.00  0.00    +0.000 C 
BRANCH  28  29
ATOM     29  O   UNL     1       6.573   4.929  19.452  0.00  0.00    +0.000 OA
ATOM     30  H   UNL     1       7.275   4.413  19.017  0.00  0.00    +0.000 HD
ENDBRANCH  28  29
ENDBRANCH  21  28
ENDBRANCH  20  24
ENDBRANCH   1  20
TORSDOF 7
ENDMDL
MODEL 2
REMARK VINA RESULT:      -7.7      1.076      1.523
REMARK  Name = 
REMARK  7 active torsions:
REMARK  status: ('A' for Active; 'I' for Inactive)
REMARK    1  A    between atoms: C_2  and  O_3
REMARK    2  A    between atoms: C_2  and  C_4
REMARK    3  A    between atoms: C_7  and  C_8
REMARK    4  A    between atoms: C_8  and  N_9
REMARK    5  A    between atoms: C_10  and  C_12
REMARK    6  A    between atoms: C_18  and  C_19
REMARK    7  A    between atoms: C_19  and  C_20
REMARK                            x       y       z     vdW  Elec       q    Type
REMARK                         _______ _______ _______ _____ _____    ______ ____
ROOT
ATOM      1  N   UNL     1       1.332   9.129  18.959  0.00  0.00    +0.000 N 
ATOM      2  C   UNL     1       1.093  10.438  19.324  0.00  0.00    +0.000 C 
ATOM      3  O   UNL     1       1.547  11.391  18.700  0.00  0.00    +0.000 OA
ATOM      4  H   UNL     1       0.923   8.384  19.506  0.00  0.00    +0.000 HD
ENDROOT
BRANCH   2   5
ATOM      5  C   UNL     1       0.304  10.610  20.556  0.00  0.00    +0.000 A 
ATOM      6  C   UNL     1       0.324   9.734  21.627  0.00  0.00    +0.000 A 
ATOM      7 CL   UNL     1       1.163   8.229  21.783  0.00  0.00    +0.000 Cl
ATOM      8  S   UNL     1      -0.623  10.209  22.943  0.00  0.00    +0.000 S 
ATOM      9  C   UNL     1      -1.161  11.572  22.108  0.00  0.00    +0.000 A 
ATOM     10 CL   UNL     1      -2.275  12.612  22.913  0.00  0.00    +0.000 Cl
ATOM     11  C   UNL     1      -0.652  11.702  20.828  0.00  0.00    +0.000 A 
BRANCH  11  12
ATOM     12  C   UNL     1      -1.068  12.790  19.867  0.00  0.00    +0.000 C 
BRANCH  12  13
ATOM     13  C   UNL     1      -2.199  12.257  19.016  0.00  0.00    +0.000 A 
ATOM     14  C   UNL     1      -3.519  12.251  19.501  0.00  0.00    +0.000 A 
ATOM     15  C   UNL     1      -4.562  11.721  18.734  0.00  0.00    +0.000 A 
ATOM     16  C   UNL     1      -4.303  11.194  17.470  0.00  0.00    +0.000 A 
ATOM     17  C   UNL     1      -2.999  11.182  16.986  0.00  0.00    +0.000 A 
ATOM     18 CL   UNL     1      -2.663  10.523  15.430  0.00  0.00    +0.000 Cl
ATOM     19  C   UNL     1      -1.953  11.695  17.753  0.00  0.00    +0.000 A 
ENDBRANCH  12  13
ENDBRANCH  11  12
ENDBRANCH   2   5
BRANCH   1  20
ATOM     20  C   UNL     1       2.013   8.744  17.745  0.00  0.00    +0.000 C 
BRANCH  20  24
ATOM     21  C   UNL     1       4.707   5.452  18.513  0.00  0.00    +0.000 A 
ATOM     22  C   UNL     1       4.996   6.365  17.494  0.00  0.00    +0.000 A 
ATOM     23  C   UNL     1       4.121   7.426  17.230  0.00  0.00    +0.000 A 
ATOM     24  C   UNL     1       2.955   7.590  17.993  0.00  0.00    +0.000 A 
ATOM     25  C   UNL     1       2.670   6.662  19.005  0.00  0.00    +0.000 A 
ATOM     26  C   UNL     1       3.546   5.608  19.276  0.00  0.00    +0.000 A 
BRANCH  21  28
ATOM     27  O   UNL     1       6.857   4.433  18.457  0.00  0.00    +0.000 OA
ATOM     28  C   UNL     1       5.686   4.366  18.787  0.00  0.00    +0.000 C 
BRANCH  28  29
ATOM     29  O   UNL     1       5.145   3.290  19.395  0.00  0.00    +0.000 OA
ATOM     30  H   UNL     1       5.462   2.429  19.069  0.00  0.00    +0.000 HD
ENDBRANCH  28  29
ENDBRANCH  21  28
ENDBRANCH  20  24
ENDBRANCH   1  20
TORSDOF 7
ENDMDL
MODEL 3
REMARK VINA RESULT:      -7.6      0.530      1.094
REMARK  Name = 
REMARK  7 active torsions:
REMARK  status: ('A' for Active; 'I' for Inactive)
REMARK    1  A    between atoms: C_2  and  O_3
REMARK    2  A    between atoms: C_2  and  C_4
REMARK    3  A    between atoms: C_7  and  C_8
REMARK    4  A    between atoms: C_8  and  N_9
REMARK    5  A    between atoms: C_10  and  C_12
REMARK    6  A    between atoms: C_18  and  C_19
REMARK    7  A    between atoms: C_19  and  C_20
REMARK                            x       y       z     vdW  Elec       q    Type
REMARK                         _______ _______ _______ _____ _____    ______ ____
ROOT
ATOM      1  N   UNL     1       1.442   9.334  19.011  0.00  0.00    +0.000 N 
ATOM      2  C   UNL     1       1.247  10.645  19.391  0.00  0.00    +0.000 C 
ATOM      3  O   UNL     1       1.852  11.579  18.876  0.00  0.00    +0.000 OA
ATOM      4  H   UNL     1       0.907   8.606  19.465  0.00  0.00    +0.000 HD
ENDROOT
BRANCH   2   5
ATOM      5  C   UNL     1       0.304  10.839  20.507  0.00  0.00    +0.000 A 
ATOM      6  C   UNL     1       0.375  10.172  21.716  0.00  0.00    +0.000 A 
ATOM      7 CL   UNL     1       1.470   8.925  22.206  0.00  0.00    +0.000 Cl
ATOM      8  S   UNL     1      -0.791  10.637  22.847  0.00  0.00    +0.000 S 
ATOM      9  C   UNL     1      -1.488  11.702  21.741  0.00  0.00    +0.000 A 
ATOM     10 CL   UNL     1      -2.870  12.595  22.256  0.00  0.00    +0.000 Cl
ATOM     11  C   UNL     1      -0.872  11.731  20.502  0.00  0.00    +0.000 A 
BRANCH  11  12
ATOM     12  C   UNL     1      -1.383  12.536  19.331  0.00  0.00    +0.000 C 
BRANCH  12  13
ATOM     13  C   UNL     1      -2.304  11.653  18.520  0.00  0.00    +0.000 A 
ATOM     14  C   UNL     1      -1.783  10.756  17.570  0.00  0.00    +0.000 A 
ATOM     15  C   UNL     1      -2.633   9.966  16.788  0.00  0.00    +0.000 A 
ATOM     16  C   UNL     1      -4.014  10.058  16.945  0.00  0.00    +0.000 A 
ATOM     17  C   UNL     1      -4.541  10.952  17.872  0.00  0.00    +0.000 A 
ATOM     18 CL   UNL     1      -6.248  11.085  18.069  0.00  0.00    +0.000 Cl
ATOM     19  C   UNL     1      -3.699  11.753  18.643  0.00  0.00    +0.000 A 
ENDBRANCH  12  13
ENDBRANCH  11  12
ENDBRANCH   2   5
BRANCH   1  20
ATOM     20  C   UNL     1       2.261   8.934  17.891  0.00  0.00    +0.000 C 
BRANCH  20  24
ATOM     21  C   UNL     1       3.950   4.997  18.463  0.00  0.00    +0.000 A 
ATOM     22  C   UNL     1       2.976   5.472  19.348  0.00  0.00    +0.000 A 
ATOM     23  C   UNL     1       2.435   6.753  19.177  0.00  0.00    +0.000 A 
ATOM     24  C   UNL     1       2.853   7.564  18.111  0.00  0.00    +0.000 A 
ATOM     25  C   UNL     1       3.839   7.081  17.237  0.00  0.00    +0.000 A 
ATOM     26  C   UNL     1       4.373   5.800  17.401  0.00  0.00    +0.000 A 
BRANCH  21  28
ATOM     27  O   UNL     1       3.879   2.628  18.253  0.00  0.00    +0.000 OA
ATOM     28  C   UNL     1       4.466   3.615  18.657  0.00  0.00    +0.000 C 
BRANCH  28  29
ATOM     29  O   UNL     1       5.618   3.561  19.357  0.00  0.00    +0.000 OA
ATOM     30  H   UNL     1       5.838   4.369  19.855  0.00  0.00    +0.000 HD
ENDBRANCH  28  29
ENDBRANCH  21  28
ENDBRANCH  20  24
ENDBRANCH   1  20
TORSDOF 7
ENDMDL
MODEL 4
REMARK VINA RESULT:      -7.3      2.636      4.145
REMARK  Name = 
REMARK  7 active torsions:
REMARK  status: ('A' for Active; 'I' for Inactive)
REMARK    1  A    between atoms: C_2  and  O_3
REMARK    2  A    between atoms: C_2  and  C_4
REMARK    3  A    between atoms: C_7  and  C_8
REMARK    4  A    between atoms: C_8  and  N_9
REMARK    5  A    between atoms: C_10  and  C_12
REMARK    6  A    between atoms: C_18  and  C_19
REMARK    7  A    between atoms: C_19  and  C_20
REMARK                            x       y       z     vdW  Elec       q    Type
REMARK                         _______ _______ _______ _____ _____    ______ ____
ROOT
ATOM      1  N   UNL     1       1.488   9.554  19.042  0.00  0.00    +0.000 N 
ATOM      2  C   UNL     1       0.236  10.128  19.099  0.00  0.00    +0.000 C 
ATOM      3  O   UNL     1      -0.474  10.263  18.109  0.00  0.00    +0.000 OA
ATOM      4  H   UNL     1       2.025   9.460  19.894  0.00  0.00    +0.000 HD
ENDROOT
BRANCH   2   5
ATOM      5  C   UNL     1      -0.164  10.628  20.426  0.00  0.00    +0.000 A 
ATOM      6  C   UNL     1      -0.431   9.822  21.518  0.00  0.00    +0.000 A 
ATOM      7 CL   UNL     1      -0.458   8.095  21.611  0.00  0.00    +0.000 Cl
ATOM      8  S   UNL     1      -0.800  10.659  22.938  0.00  0.00    +0.000 S 
ATOM      9  C   UNL     1      -0.690  12.139  22.136  0.00  0.00    +0.000 A 
ATOM     10 CL   UNL     1      -0.989  13.567  23.052  0.00  0.00    +0.000 Cl
ATOM     11  C   UNL     1      -0.382  12.042  20.790  0.00  0.00    +0.000 A 
BRANCH  11  12
ATOM     12  C   UNL     1      -0.327  13.228  19.856  0.00  0.00    +0.000 C 
BRANCH  12  13
ATOM     13  C   UNL     1       1.106  13.702  19.783  0.00  0.00    +0.000 A 
ATOM     14  C   UNL     1       1.972  13.542  20.880  0.00  0.00    +0.000 A 
ATOM     15  C   UNL     1       3.286  14.016  20.832  0.00  0.00    +0.000 A 
ATOM     16  C   UNL     1       3.759  14.654  19.686  0.00  0.00    +0.000 A 
ATOM     17  C   UNL     1       2.908  14.831  18.599  0.00  0.00    +0.000 A 
ATOM     18 CL   UNL     1       3.474  15.628  17.181  0.00  0.00    +0.000 Cl
ATOM     19  C   UNL     1       1.590  14.374  18.648  0.00  0.00    +0.000 A 
ENDBRANCH  12  13
ENDBRANCH  11  12
ENDBRANCH   2   5
BRANCH   1  20
ATOM     20  C   UNL     1       2.034   8.931  17.859  0.00  0.00    +0.000 C 
BRANCH  20  24
ATOM     21  C   UNL     1       4.155   5.282  18.796  0.00  0.00    +0.000 A 
ATOM     22  C   UNL     1       3.127   5.725  19.635  0.00  0.00    +0.000 A 
ATOM     23  C   UNL     1       2.446   6.914  19.345  0.00  0.00    +0.000 A 
ATOM     24  C   UNL     1       2.777   7.663  18.206  0.00  0.00    +0.000 A 
ATOM     25  C   UNL     1       3.817   7.215  17.378  0.00  0.00    +0.000 A 
ATOM     26  C   UNL     1       4.492   6.025  17.661  0.00  0.00    +0.000 A 
BRANCH  21  28
ATOM     27  O   UNL     1       4.252   3.074  19.677  0.00  0.00    +0.000 OA
ATOM     28  C   UNL     1       4.823   3.992  19.117  0.00  0.00    +0.000 C 
BRANCH  28  29
ATOM     29  O   UNL     1       6.126   3.956  18.768  0.00  0.00    +0.000 OA
ATOM     30  H   UNL     1       6.707   3.482  19.390  0.00  0.00    +0.000 HD
ENDBRANCH  28  29
ENDBRANCH  21  28
ENDBRANCH  20  24
ENDBRANCH   1  20
TORSDOF 7
ENDMDL
MODEL 5
REMARK VINA RESULT:      -7.3      1.635      2.160
REMARK  Name = 
REMARK  7 active torsions:
REMARK  status: ('A' for Active; 'I' for Inactive)
REMARK    1  A    between atoms: C_2  and  O_3
REMARK    2  A    between atoms: C_2  and  C_4
REMARK    3  A    between atoms: C_7  and  C_8
REMARK    4  A    between atoms: C_8  and  N_9
REMARK    5  A    between atoms: C_10  and  C_12
REMARK    6  A    between atoms: C_18  and  C_19
REMARK    7  A    between atoms: C_19  and  C_20
REMARK                            x       y       z     vdW  Elec       q    Type
REMARK                         _______ _______ _______ _____ _____    ______ ____
ROOT
ATOM      1  N   UNL     1       2.011   8.005  18.570  0.00  0.00    +0.000 N 
ATOM      2  C   UNL     1       1.579   9.297  18.786  0.00  0.00    +0.000 C 
ATOM      3  O   UNL     1       1.821  10.212  18.007  0.00  0.00    +0.000 OA
ATOM      4  H   UNL     1       1.772   7.289  19.243  0.00  0.00    +0.000 HD
ENDROOT
BRANCH   2   5
ATOM      5  C   UNL     1       0.861   9.514  20.053  0.00  0.00    +0.000 A 
ATOM      6  C   UNL     1       0.803   8.596  21.087  0.00  0.00    +0.000 A 
ATOM      7 CL   UNL     1       1.444   6.990  21.151  0.00  0.00    +0.000 Cl
ATOM      8  S   UNL     1      -0.031   9.128  22.456  0.00  0.00    +0.000 S 
ATOM      9  C   UNL     1      -0.415  10.585  21.698  0.00  0.00    +0.000 A 
ATOM     10 CL   UNL     1      -1.358  11.723  22.587  0.00  0.00    +0.000 Cl
ATOM     11  C   UNL     1       0.064  10.706  20.406  0.00  0.00    +0.000 A 
BRANCH  11  12
ATOM     12  C   UNL     1      -0.239  11.880  19.505  0.00  0.00    +0.000 C 
BRANCH  12  13
ATOM     13  C   UNL     1      -1.558  11.614  18.816  0.00  0.00    +0.000 A 
ATOM     14  C   UNL     1      -2.762  12.095  19.361  0.00  0.00    +0.000 A 
ATOM     15  C   UNL     1      -3.988  11.817  18.749  0.00  0.00    +0.000 A 
ATOM     16  C   UNL     1      -4.031  11.058  17.581  0.00  0.00    +0.000 A 
ATOM     17  C   UNL     1      -2.848  10.565  17.039  0.00  0.00    +0.000 A 
ATOM     18 CL   UNL     1      -2.886   9.616  15.602  0.00  0.00    +0.000 Cl
ATOM     19  C   UNL     1      -1.623  10.827  17.655  0.00  0.00    +0.000 A 
ENDBRANCH  12  13
ENDBRANCH  11  12
ENDBRANCH   2   5
BRANCH   1  20
ATOM     20  C   UNL     1       2.661   7.565  17.358  0.00  0.00    +0.000 C 
BRANCH  20  24
ATOM     21  C   UNL     1       6.370   5.550  18.290  0.00  0.00    +0.000 A 
ATOM     22  C   UNL     1       6.324   6.476  17.242  0.00  0.00    +0.000 A 
ATOM     23  C   UNL     1       5.123   7.122  16.926  0.00  0.00    +0.000 A 
ATOM     24  C   UNL     1       3.959   6.857  17.663  0.00  0.00    +0.000 A 
ATOM     25  C   UNL     1       4.014   5.918  18.704  0.00  0.00    +0.000 A 
ATOM     26  C   UNL     1       5.213   5.280  19.027  0.00  0.00    +0.000 A 
BRANCH  21  28
ATOM     27  O   UNL     1       8.274   5.142  19.657  0.00  0.00    +0.000 OA
ATOM     28  C   UNL     1       7.676   4.920  18.619  0.00  0.00    +0.000 C 
BRANCH  28  29
ATOM     29  O   UNL     1       8.151   4.116  17.645  0.00  0.00    +0.000 OA
ATOM     30  H   UNL     1       7.657   4.148  16.806  0.00  0.00    +0.000 HD
ENDBRANCH  28  29
ENDBRANCH  21  28
ENDBRANCH  20  24
ENDBRANCH   1  20
TORSDOF 7
ENDMDL
MODEL 6
REMARK VINA RESULT:      -7.3      1.443      1.804
REMARK  Name = 
REMARK  7 active torsions:
REMARK  status: ('A' for Active; 'I' for Inactive)
REMARK    1  A    between atoms: C_2  and  O_3
REMARK    2  A    between atoms: C_2  and  C_4
REMARK    3  A    between atoms: C_7  and  C_8
REMARK    4  A    between atoms: C_8  and  N_9
REMARK    5  A    between atoms: C_10  and  C_12
REMARK    6  A    between atoms: C_18  and  C_19
REMARK    7  A    between atoms: C_19  and  C_20
REMARK                            x       y       z     vdW  Elec       q    Type
REMARK                         _______ _______ _______ _____ _____    ______ ____
ROOT
ATOM      1  N   UNL     1       1.962   7.900  18.519  0.00  0.00    +0.000 N 
ATOM      2  C   UNL     1       1.624   9.219  18.734  0.00  0.00    +0.000 C 
ATOM      3  O   UNL     1       1.950  10.118  17.966  0.00  0.00    +0.000 OA
ATOM      4  H   UNL     1       1.656   7.200  19.181  0.00  0.00    +0.000 HD
ENDROOT
BRANCH   2   5
ATOM      5  C   UNL     1       0.895   9.483  19.986  0.00  0.00    +0.000 A 
ATOM      6  C   UNL     1       0.908   8.648  21.090  0.00  0.00    +0.000 A 
ATOM      7 CL   UNL     1       1.667   7.104  21.274  0.00  0.00    +0.000 Cl
ATOM      8  S   UNL     1       0.042   9.225  22.420  0.00  0.00    +0.000 S 
ATOM      9  C   UNL     1      -0.451  10.585  21.553  0.00  0.00    +0.000 A 
ATOM     10 CL   UNL     1      -1.473  11.717  22.357  0.00  0.00    +0.000 Cl
ATOM     11  C   UNL     1       0.014  10.637  20.251  0.00  0.00    +0.000 A 
BRANCH  11  12
ATOM     12  C   UNL     1      -0.379  11.710  19.263  0.00  0.00    +0.000 C 
BRANCH  12  13
ATOM     13  C   UNL     1      -1.694  11.311  18.634  0.00  0.00    +0.000 A 
ATOM     14  C   UNL     1      -1.740  10.320  17.636  0.00  0.00    +0.000 A 
ATOM     15  C   UNL     1      -2.948   9.977  17.022  0.00  0.00    +0.000 A 
ATOM     16  C   UNL     1      -4.130  10.614  17.397  0.00  0.00    +0.000 A 
ATOM     17  C   UNL     1      -4.095  11.605  18.373  0.00  0.00    +0.000 A 
ATOM     18 CL   UNL     1      -5.546  12.409  18.838  0.00  0.00    +0.000 Cl
ATOM     19  C   UNL     1      -2.889  11.963  18.977  0.00  0.00    +0.000 A 
ENDBRANCH  12  13
ENDBRANCH  11  12
ENDBRANCH   2   5
BRANCH   1  20
ATOM     20  C   UNL     1       2.604   7.419  17.318  0.00  0.00    +0.000 C 
BRANCH  20  24
ATOM     21  C   UNL     1       6.366   5.521  18.285  0.00  0.00    +0.000 A 
ATOM     22  C   UNL     1       6.287   6.398  17.197  0.00  0.00    +0.000 A 
ATOM     23  C   UNL     1       5.069   7.005  16.870  0.00  0.00    +0.000 A 
ATOM     24  C   UNL     1       3.920   6.752  17.635  0.00  0.00    +0.000 A 
ATOM     25  C   UNL     1       4.009   5.862  18.716  0.00  0.00    +0.000 A 
ATOM     26  C   UNL     1       5.226   5.262  19.050  0.00  0.00    +0.000 A 
BRANCH  21  28
ATOM     27  O   UNL     1       8.288   5.199  19.649  0.00  0.00    +0.000 OA
ATOM     28  C   UNL     1       7.689   4.933  18.623  0.00  0.00    +0.000 C 
BRANCH  28  29
ATOM     29  O   UNL     1       8.177   4.113  17.669  0.00  0.00    +0.000 OA
ATOM     30  H   UNL     1       7.613   3.349  17.452  0.00  0.00    +0.000 HD
ENDBRANCH  28  29
ENDBRANCH  21  28
ENDBRANCH  20  24
ENDBRANCH   1  20
TORSDOF 7
ENDMDL
MODEL 7
REMARK VINA RESULT:      -7.3      3.436      9.025
REMARK  Name = 
REMARK  7 active torsions:
REMARK  status: ('A' for Active; 'I' for Inactive)
REMARK    1  A    between atoms: C_2  and  O_3
REMARK    2  A    between atoms: C_2  and  C_4
REMARK    3  A    between atoms: C_7  and  C_8
REMARK    4  A    between atoms: C_8  and  N_9
REMARK    5  A    between atoms: C_10  and  C_12
REMARK    6  A    between atoms: C_18  and  C_19
REMARK    7  A    between atoms: C_19  and  C_20
REMARK                            x       y       z     vdW  Elec       q    Type
REMARK                         _______ _______ _______ _____ _____    ______ ____
ROOT
ATOM      1  N   UNL     1       1.567   8.965  18.987  0.00  0.00    +0.000 N 
ATOM      2  C   UNL     1       2.323   8.040  18.300  0.00  0.00    +0.000 C 
ATOM      3  O   UNL     1       2.789   8.263  17.187  0.00  0.00    +0.000 OA
ATOM      4  H   UNL     1       1.218   8.729  19.906  0.00  0.00    +0.000 HD
ENDROOT
BRANCH   2   5
ATOM      5  C   UNL     1       2.480   6.737  18.969  0.00  0.00    +0.000 A 
ATOM      6  C   UNL     1       1.917   6.412  20.190  0.00  0.00    +0.000 A 
ATOM      7 CL   UNL     1       0.995   7.411  21.261  0.00  0.00    +0.000 Cl
ATOM      8  S   UNL     1       2.197   4.825  20.696  0.00  0.00    +0.000 S 
ATOM      9  C   UNL     1       3.148   4.523  19.335  0.00  0.00    +0.000 A 
ATOM     10 CL   UNL     1       3.847   2.955  19.183  0.00  0.00    +0.000 Cl
ATOM     11  C   UNL     1       3.283   5.600  18.477  0.00  0.00    +0.000 A 
BRANCH  11  12
ATOM     12  C   UNL     1       4.164   5.589  17.250  0.00  0.00    +0.000 C 
BRANCH  12  13
ATOM     13  C   UNL     1       5.566   5.959  17.676  0.00  0.00    +0.000 A 
ATOM     14  C   UNL     1       6.365   5.045  18.387  0.00  0.00    +0.000 A 
ATOM     15  C   UNL     1       7.648   5.397  18.818  0.00  0.00    +0.000 A 
ATOM     16  C   UNL     1       8.154   6.666  18.543  0.00  0.00    +0.000 A 
ATOM     17  C   UNL     1       7.368   7.584  17.853  0.00  0.00    +0.000 A 
ATOM     18 CL   UNL     1       7.977   9.160  17.517  0.00  0.00    +0.000 Cl
ATOM     19  C   UNL     1       6.082   7.243  17.434  0.00  0.00    +0.000 A 
ENDBRANCH  12  13
ENDBRANCH  11  12
ENDBRANCH   2   5
BRANCH   1  20
ATOM     20  C   UNL     1       1.361  10.324  18.545  0.00  0.00    +0.000 C 
BRANCH  20  24
ATOM     21  C   UNL     1      -2.850  11.251  18.228  0.00  0.00    +0.000 A 
ATOM     22  C   UNL     1      -2.024  12.031  19.045  0.00  0.00    +0.000 A 
ATOM     23  C   UNL     1      -0.662  11.728  19.164  0.00  0.00    +0.000 A 
ATOM     24  C   UNL     1      -0.110  10.649  18.455  0.00  0.00    +0.000 A 
ATOM     25  C   UNL     1      -0.950   9.868  17.648  0.00  0.00    +0.000 A 
ATOM     26  C   UNL     1      -2.307  10.174  17.521  0.00  0.00    +0.000 A 
BRANCH  21  28
ATOM     27  O   UNL     1      -5.058  11.049  17.367  0.00  0.00    +0.000 OA
ATOM     28  C   UNL     1      -4.281  11.635  18.098  0.00  0.00    +0.000 C 
BRANCH  28  29
ATOM     29  O   UNL     1      -4.620  12.716  18.831  0.00  0.00    +0.000 OA
ATOM     30  H   UNL     1      -5.006  12.519  19.703  0.00  0.00    +0.000 HD
ENDBRANCH  28  29
ENDBRANCH  21  28
ENDBRANCH  20  24
ENDBRANCH   1  20
TORSDOF 7
ENDMDL
MODEL 8
REMARK VINA RESULT:      -7.2      3.390      8.967
REMARK  Name = 
REMARK  7 active torsions:
REMARK  status: ('A' for Active; 'I' for Inactive)
REMARK    1  A    between atoms: C_2  and  O_3
REMARK    2  A    between atoms: C_2  and  C_4
REMARK    3  A    between atoms: C_7  and  C_8
REMARK    4  A    between atoms: C_8  and  N_9
REMARK    5  A    between atoms: C_10  and  C_12
REMARK    6  A    between atoms: C_18  and  C_19
REMARK    7  A    between atoms: C_19  and  C_20
REMARK                            x       y       z     vdW  Elec       q    Type
REMARK                         _______ _______ _______ _____ _____    ______ ____
ROOT
ATOM      1  N   UNL     1       1.552   9.025  19.041  0.00  0.00    +0.000 N 
ATOM      2  C   UNL     1       2.283   8.082  18.348  0.00  0.00    +0.000 C 
ATOM      3  O   UNL     1       2.749   8.296  17.235  0.00  0.00    +0.000 OA
ATOM      4  H   UNL     1       1.200   8.796  19.960  0.00  0.00    +0.000 HD
ENDROOT
BRANCH   2   5
ATOM      5  C   UNL     1       2.410   6.775  19.015  0.00  0.00    +0.000 A 
ATOM      6  C   UNL     1       1.883   6.477  20.259  0.00  0.00    +0.000 A 
ATOM      7 CL   UNL     1       1.051   7.517  21.364  0.00  0.00    +0.000 Cl
ATOM      8  S   UNL     1       2.114   4.879  20.758  0.00  0.00    +0.000 S 
ATOM      9  C   UNL     1       2.995   4.535  19.361  0.00  0.00    +0.000 A 
ATOM     10 CL   UNL     1       3.618   2.937  19.185  0.00  0.00    +0.000 Cl
ATOM     11  C   UNL     1       3.141   5.603  18.494  0.00  0.00    +0.000 A 
BRANCH  11  12
ATOM     12  C   UNL     1       3.970   5.551  17.232  0.00  0.00    +0.000 C 
BRANCH  12  13
ATOM     13  C   UNL     1       5.403   5.862  17.598  0.00  0.00    +0.000 A 
ATOM     14  C   UNL     1       6.235   4.868  18.145  0.00  0.00    +0.000 A 
ATOM     15  C   UNL     1       7.549   5.161  18.523  0.00  0.00    +0.000 A 
ATOM     16  C   UNL     1       8.054   6.450  18.358  0.00  0.00    +0.000 A 
ATOM     17  C   UNL     1       7.236   7.445  17.831  0.00  0.00    +0.000 A 
ATOM     18 CL   UNL     1       7.842   9.044  17.632  0.00  0.00    +0.000 Cl
ATOM     19  C   UNL     1       5.919   7.161  17.467  0.00  0.00    +0.000 A 
ENDBRANCH  12  13
ENDBRANCH  11  12
ENDBRANCH   2   5
BRANCH   1  20
ATOM     20  C   UNL     1       1.378  10.389  18.601  0.00  0.00    +0.000 C 
BRANCH  20  24
ATOM     21  C   UNL     1      -2.815  11.345  18.157  0.00  0.00    +0.000 A 
ATOM     22  C   UNL     1      -2.271  10.258  17.465  0.00  0.00    +0.000 A 
ATOM     23  C   UNL     1      -0.911   9.952  17.593  0.00  0.00    +0.000 A 
ATOM     24  C   UNL     1      -0.085  10.721  18.425  0.00  0.00    +0.000 A 
ATOM     25  C   UNL     1      -0.639  11.816  19.106  0.00  0.00    +0.000 A 
ATOM     26  C   UNL     1      -1.997  12.118  18.987  0.00  0.00    +0.000 A 
BRANCH  21  28
ATOM     27  O   UNL     1      -5.082  11.285  18.877  0.00  0.00    +0.000 OA
ATOM     28  C   UNL     1      -4.273  11.608  18.026  0.00  0.00    +0.000 C 
BRANCH  28  29
ATOM     29  O   UNL     1      -4.614  12.198  16.861  0.00  0.00    +0.000 OA
ATOM     30  H   UNL     1      -4.790  11.586  16.124  0.00  0.00    +0.000 HD
ENDBRANCH  28  29
ENDBRANCH  21  28
ENDBRANCH  20  24
ENDBRANCH   1  20
TORSDOF 7
ENDMDL
MODEL 9
REMARK VINA RESULT:      -7.2      2.273      2.568
REMARK  Name = 
REMARK  7 active torsions:
REMARK  status: ('A' for Active; 'I' for Inactive)
REMARK    1  A    between atoms: C_2  and  O_3
REMARK    2  A    between atoms: C_2  and  C_4
REMARK    3  A    between atoms: C_7  and  C_8
REMARK    4  A    between atoms: C_8  and  N_9
REMARK    5  A    between atoms: C_10  and  C_12
REMARK    6  A    between atoms: C_18  and  C_19
REMARK    7  A    between atoms: C_19  and  C_20
REMARK                            x       y       z     vdW  Elec       q    Type
REMARK                         _______ _______ _______ _____ _____    ______ ____
ROOT
ATOM      1  N   UNL     1       1.798   9.340  18.845  0.00  0.00    +0.000 N 
ATOM      2  C   UNL     1       1.647  10.639  18.407  0.00  0.00    +0.000 C 
ATOM      3  O   UNL     1       2.216  11.070  17.409  0.00  0.00    +0.000 OA
ATOM      4  H   UNL     1       1.295   9.038  19.668  0.00  0.00    +0.000 HD
ENDROOT
BRANCH   2   5
ATOM      5  C   UNL     1       0.803  11.493  19.260  0.00  0.00    +0.000 A 
ATOM      6  C   UNL     1       1.230  12.664  19.861  0.00  0.00    +0.000 A 
ATOM      7 CL   UNL     1       2.808  13.373  19.859  0.00  0.00    +0.000 Cl
ATOM      8  S   UNL     1       0.036  13.486  20.729  0.00  0.00    +0.000 S 
ATOM      9  C   UNL     1      -1.088  12.272  20.399  0.00  0.00    +0.000 A 
ATOM     10 CL   UNL     1      -2.674  12.457  21.048  0.00  0.00    +0.000 Cl
ATOM     11  C   UNL     1      -0.598  11.225  19.640  0.00  0.00    +0.000 A 
BRANCH  11  12
ATOM     12  C   UNL     1      -1.397   9.987  19.306  0.00  0.00    +0.000 C 
BRANCH  12  13
ATOM     13  C   UNL     1      -2.212  10.274  18.065  0.00  0.00    +0.000 A 
ATOM     14  C   UNL     1      -1.779   9.827  16.804  0.00  0.00    +0.000 A 
ATOM     15  C   UNL     1      -2.508  10.125  15.648  0.00  0.00    +0.000 A 
ATOM     16  C   UNL     1      -3.682  10.872  15.735  0.00  0.00    +0.000 A 
ATOM     17  C   UNL     1      -4.113  11.331  16.976  0.00  0.00    +0.000 A 
ATOM     18 CL   UNL     1      -5.556  12.264  17.097  0.00  0.00    +0.000 Cl
ATOM     19  C   UNL     1      -3.381  11.049  18.130  0.00  0.00    +0.000 A 
ENDBRANCH  12  13
ENDBRANCH  11  12
ENDBRANCH   2   5
BRANCH   1  20
ATOM     20  C   UNL     1       2.516   8.323  18.113  0.00  0.00    +0.000 C 
BRANCH  20  24
ATOM     21  C   UNL     1       1.711   4.395  19.729  0.00  0.00    +0.000 A 
ATOM     22  C   UNL     1       1.917   4.554  18.355  0.00  0.00    +0.000 A 
ATOM     23  C   UNL     1       2.164   5.825  17.822  0.00  0.00    +0.000 A 
ATOM     24  C   UNL     1       2.220   6.948  18.662  0.00  0.00    +0.000 A 
ATOM     25  C   UNL     1       2.000   6.778  20.037  0.00  0.00    +0.000 A 
ATOM     26  C   UNL     1       1.763   5.509  20.571  0.00  0.00    +0.000 A 
BRANCH  21  28
ATOM     27  O   UNL     1       1.729   2.019  19.606  0.00  0.00    +0.000 OA
ATOM     28  C   UNL     1       1.495   3.021  20.257  0.00  0.00    +0.000 C 
BRANCH  28  29
ATOM     29  O   UNL     1       0.978   2.995  21.503  0.00  0.00    +0.000 OA
ATOM     30  H   UNL     1       1.358   3.644  22.122  0.00  0.00    +0.000 HD
ENDBRANCH  28  29
ENDBRANCH  21  28
ENDBRANCH  20  24
ENDBRANCH   1  20
TORSDOF 7
ENDMDL
