MODEL 1
REMARK VINA RESULT:      -7.5      0.000      0.000
REMARK  Name = 
REMARK  7 active torsions:
REMARK  status: ('A' for Active; 'I' for Inactive)
REMARK    1  A    between atoms: C_1  and  C_2
REMARK    2  A    between atoms: C_2  and  N_3
REMARK    3  A    between atoms: C_10  and  C_11
REMARK    4  A    between atoms: N_13  and  C_14
REMARK    5  A    between atoms: C_14  and  C_15
REMARK    6  A    between atoms: C_21  and  O_22
REMARK    7  A    between atoms: O_22  and  C_23
REMARK                            x       y       z     vdW  Elec       q    Type
REMARK                         _______ _______ _______ _____ _____    ______ ____
ROOT
ATOM      1  C   UNL     1       2.049   5.956  20.024  0.00  0.00    +0.000 C 
ATOM      2  O   UNL     1       1.396   5.186  20.719  0.00  0.00    +0.000 OA
ATOM      3  N   UNL     1       2.101   7.317  20.236  0.00  0.00    +0.000 N 
ATOM      4  H   UNL     1       2.904   7.823  19.886  0.00  0.00    +0.000 HD
ENDROOT
BRANCH   1  12
ATOM      5  N   UNL     1       6.252   6.033  17.536  0.00  0.00    +0.000 N 
ATOM      6  C   UNL     1       7.307   5.136  17.070  0.00  0.00    +0.000 C 
ATOM      7  C   UNL     1       7.025   4.573  15.685  0.00  0.00    +0.000 C 
ATOM      8  S   UNL     1       5.502   3.579  15.632  0.00  0.00    +0.000 S 
ATOM      9  C   UNL     1       4.525   4.390  16.901  0.00  0.00    +0.000 A 
ATOM     10  C   UNL     1       3.243   3.849  17.117  0.00  0.00    +0.000 A 
ATOM     11  C   UNL     1       2.408   4.365  18.107  0.00  0.00    +0.000 A 
ATOM     12  C   UNL     1       2.844   5.439  18.880  0.00  0.00    +0.000 A 
ATOM     13  C   UNL     1       4.109   5.997  18.651  0.00  0.00    +0.000 A 
ATOM     14  C   UNL     1       4.976   5.488  17.668  0.00  0.00    +0.000 A 
BRANCH   5  16
ATOM     15  C   UNL     1       7.874   7.898  17.740  0.00  0.00    +0.000 C 
ATOM     16  C   UNL     1       6.439   7.482  17.445  0.00  0.00    +0.000 C 
ENDBRANCH   5  16
ENDBRANCH   1  12
BRANCH   3  17
ATOM     17  C   UNL     1       1.347   7.898  21.327  0.00  0.00    +0.000 C 
BRANCH  17  18
ATOM     18  C   UNL     1       0.616   9.179  21.004  0.00  0.00    +0.000 A 
ATOM     19  C   UNL     1      -0.117   9.861  22.000  0.00  0.00    +0.000 A 
ATOM     20  C   UNL     1      -0.838  11.020  21.709  0.00  0.00    +0.000 A 
ATOM     21 BR   UNL     1      -1.851  11.861  23.066  0.00  0.00    +0.000 Br
ATOM     22  C   UNL     1      -0.830  11.547  20.426  0.00  0.00    +0.000 A 
ATOM     23  C   UNL     1      -0.105  10.895  19.430  0.00  0.00    +0.000 A 
ATOM     24  C   UNL     1       0.620   9.723  19.703  0.00  0.00    +0.000 A 
BRANCH  24  25
ATOM     25  O   UNL     1       1.173   9.167  18.578  0.00  0.00    +0.000 OA
ATOM     26  C   UNL     1       2.081   9.952  17.814  0.00  0.00    +0.000 C 
ENDBRANCH  24  25
ENDBRANCH  17  18
ENDBRANCH   3  17
TORSDOF 5
ENDMDL
MODEL 2
REMARK VINA RESULT:      -7.5      2.851      4.343
REMARK  Name = 
REMARK  7 active torsions:
REMARK  status: ('A' for Active; 'I' for Inactive)
REMARK    1  A    between atoms: C_1  and  C_2
REMARK    2  A    between atoms: C_2  and  N_3
REMARK    3  A    between atoms: C_10  and  C_11
REMARK    4  A    between atoms: N_13  and  C_14
REMARK    5  A    between atoms: C_14  and  C_15
REMARK    6  A    between atoms: C_21  and  O_22
REMARK    7  A    between atoms: O_22  and  C_23
REMARK                            x       y       z     vdW  Elec       q    Type
REMARK                         _______ _______ _______ _____ _____    ______ ____
ROOT
ATOM      1  C   UNL     1       1.586   8.328  20.094  0.00  0.00    +0.000 C 
ATOM      2  O   UNL     1       1.171   8.160  21.235  0.00  0.00    +0.000 OA
ATOM      3  N   UNL     1       1.434   9.505  19.393  0.00  0.00    +0.000 N 
ATOM      4  H   UNL     1       2.086   9.701  18.646  0.00  0.00    +0.000 HD
ENDROOT
BRANCH   1  12
ATOM      5  N   UNL     1       2.411   3.532  19.671  0.00  0.00    +0.000 N 
ATOM      6  C   UNL     1       2.357   2.458  18.681  0.00  0.00    +0.000 C 
ATOM      7  C   UNL     1       3.670   2.288  17.932  0.00  0.00    +0.000 C 
ATOM      8  S   UNL     1       4.133   3.774  16.990  0.00  0.00    +0.000 S 
ATOM      9  C   UNL     1       3.406   5.061  18.009  0.00  0.00    +0.000 A 
ATOM     10  C   UNL     1       3.592   6.377  17.547  0.00  0.00    +0.000 A 
ATOM     11  C   UNL     1       3.035   7.459  18.229  0.00  0.00    +0.000 A 
ATOM     12  C   UNL     1       2.298   7.231  19.390  0.00  0.00    +0.000 A 
ATOM     13  C   UNL     1       2.133   5.924  19.867  0.00  0.00    +0.000 A 
ATOM     14  C   UNL     1       2.672   4.815  19.192  0.00  0.00    +0.000 A 
BRANCH   5  16
ATOM     15  C   UNL     1       1.378   2.568  21.709  0.00  0.00    +0.000 C 
ATOM     16  C   UNL     1       2.611   3.207  21.084  0.00  0.00    +0.000 C 
ENDBRANCH   5  16
ENDBRANCH   1  12
BRANCH   3  17
ATOM     17  C   UNL     1       0.745  10.619  20.011  0.00  0.00    +0.000 C 
BRANCH  17  18
ATOM     18  C   UNL     1      -0.616  10.939  19.439  0.00  0.00    +0.000 A 
ATOM     19  C   UNL     1      -1.039  10.365  18.220  0.00  0.00    +0.000 A 
ATOM     20  C   UNL     1      -2.273  10.687  17.653  0.00  0.00    +0.000 A 
ATOM     21 BR   UNL     1      -2.765   9.935  15.989  0.00  0.00    +0.000 Br
ATOM     22  C   UNL     1      -3.130  11.568  18.294  0.00  0.00    +0.000 A 
ATOM     23  C   UNL     1      -2.737  12.139  19.503  0.00  0.00    +0.000 A 
ATOM     24  C   UNL     1      -1.495  11.833  20.084  0.00  0.00    +0.000 A 
BRANCH  24  25
ATOM     25  O   UNL     1      -1.239  12.575  21.209  0.00  0.00    +0.000 OA
ATOM     26  C   UNL     1      -1.535  12.002  22.478  0.00  0.00    +0.000 C 
ENDBRANCH  24  25
ENDBRANCH  17  18
ENDBRANCH   3  17
TORSDOF 5
ENDMDL
MODEL 3
REMARK VINA RESULT:      -7.4      2.933      4.499
REMARK  Name = 
REMARK  7 active torsions:
REMARK  status: ('A' for Active; 'I' for Inactive)
REMARK    1  A    between atoms: C_1  and  C_2
REMARK    2  A    between atoms: C_2  and  N_3
REMARK    3  A    between atoms: C_10  and  C_11
REMARK    4  A    between atoms: N_13  and  C_14
REMARK    5  A    between atoms: C_14  and  C_15
REMARK    6  A    between atoms: C_21  and  O_22
REMARK    7  A    between atoms: O_22  and  C_23
REMARK                            x       y       z     vdW  Elec       q    Type
REMARK                         _______ _______ _______ _____ _____    ______ ____
ROOT
ATOM      1  C   UNL     1       2.236   8.914  18.312  0.00  0.00    +0.000 C 
ATOM      2  O   UNL     1       2.613   9.779  17.529  0.00  0.00    +0.000 OA
ATOM      3  N   UNL     1       1.366   9.155  19.353  0.00  0.00    +0.000 N 
ATOM      4  H   UNL     1       0.828   8.379  19.713  0.00  0.00    +0.000 HD
ENDROOT
BRANCH   1  12
ATOM      5  N   UNL     1       1.428   4.162  19.100  0.00  0.00    +0.000 N 
ATOM      6  C   UNL     1       1.340   2.894  18.378  0.00  0.00    +0.000 C 
ATOM      7  C   UNL     1       2.682   2.183  18.282  0.00  0.00    +0.000 C 
ATOM      8  S   UNL     1       3.924   3.157  17.377  0.00  0.00    +0.000 S 
ATOM      9  C   UNL     1       3.392   4.828  17.765  0.00  0.00    +0.000 A 
ATOM     10  C   UNL     1       4.171   5.857  17.203  0.00  0.00    +0.000 A 
ATOM     11  C   UNL     1       3.831   7.196  17.395  0.00  0.00    +0.000 A 
ATOM     12  C   UNL     1       2.714   7.515  18.166  0.00  0.00    +0.000 A 
ATOM     13  C   UNL     1       1.952   6.494  18.749  0.00  0.00    +0.000 A 
ATOM     14  C   UNL     1       2.266   5.136  18.560  0.00  0.00    +0.000 A 
BRANCH   5  16
ATOM     15  C   UNL     1       2.114   3.784  21.453  0.00  0.00    +0.000 C 
ATOM     16  C   UNL     1       1.011   4.229  20.502  0.00  0.00    +0.000 C 
ENDBRANCH   5  16
ENDBRANCH   1  12
BRANCH   3  17
ATOM     17  C   UNL     1       0.860  10.496  19.564  0.00  0.00    +0.000 C 
BRANCH  17  18
ATOM     18  C   UNL     1      -0.544  10.747  19.068  0.00  0.00    +0.000 A 
ATOM     19  C   UNL     1      -0.993  10.176  17.857  0.00  0.00    +0.000 A 
ATOM     20  C   UNL     1      -2.271  10.435  17.359  0.00  0.00    +0.000 A 
ATOM     21 BR   UNL     1      -2.802   9.692  15.703  0.00  0.00    +0.000 Br
ATOM     22  C   UNL     1      -3.145  11.250  18.063  0.00  0.00    +0.000 A 
ATOM     23  C   UNL     1      -2.726  11.816  19.265  0.00  0.00    +0.000 A 
ATOM     24  C   UNL     1      -1.440  11.572  19.777  0.00  0.00    +0.000 A 
BRANCH  24  25
ATOM     25  O   UNL     1      -1.171  12.304  20.906  0.00  0.00    +0.000 OA
ATOM     26  C   UNL     1      -1.540  11.758  22.167  0.00  0.00    +0.000 C 
ENDBRANCH  24  25
ENDBRANCH  17  18
ENDBRANCH   3  17
TORSDOF 5
ENDMDL
MODEL 4
REMARK VINA RESULT:      -7.4      3.075      4.731
REMARK  Name = 
REMARK  7 active torsions:
REMARK  status: ('A' for Active; 'I' for Inactive)
REMARK    1  A    between atoms: C_1  and  C_2
REMARK    2  A    between atoms: C_2  and  N_3
REMARK    3  A    between atoms: C_10  and  C_11
REMARK    4  A    between atoms: N_13  and  C_14
REMARK    5  A    between atoms: C_14  and  C_15
REMARK    6  A    between atoms: C_21  and  O_22
REMARK    7  A    between atoms: O_22  and  C_23
REMARK                            x       y       z     vdW  Elec       q    Type
REMARK                         _______ _______ _______ _____ _____    ______ ____
ROOT
ATOM      1  C   UNL     1       1.318   8.929  19.638  0.00  0.00    +0.000 C 
ATOM      2  O   UNL     1       1.060   8.990  20.835  0.00  0.00    +0.000 OA
ATOM      3  N   UNL     1       0.896   9.865  18.718  0.00  0.00    +0.000 N 
ATOM      4  H   UNL     1       1.423   9.961  17.861  0.00  0.00    +0.000 HD
ENDROOT
BRANCH   1  12
ATOM      5  N   UNL     1       2.307   4.146  19.709  0.00  0.00    +0.000 N 
ATOM      6  C   UNL     1       2.384   2.993  18.814  0.00  0.00    +0.000 C 
ATOM      7  C   UNL     1       3.771   2.808  18.219  0.00  0.00    +0.000 C 
ATOM      8  S   UNL     1       4.291   4.227  17.205  0.00  0.00    +0.000 S 
ATOM      9  C   UNL     1       3.429   5.567  18.033  0.00  0.00    +0.000 A 
ATOM     10  C   UNL     1       3.627   6.847  17.482  0.00  0.00    +0.000 A 
ATOM     11  C   UNL     1       2.975   7.961  18.009  0.00  0.00    +0.000 A 
ATOM     12  C   UNL     1       2.128   7.803  19.105  0.00  0.00    +0.000 A 
ATOM     13  C   UNL     1       1.948   6.535  19.672  0.00  0.00    +0.000 A 
ATOM     14  C   UNL     1       2.583   5.394  19.152  0.00  0.00    +0.000 A 
BRANCH   5  16
ATOM     15  C   UNL     1       1.623   2.692  21.598  0.00  0.00    +0.000 C 
ATOM     16  C   UNL     1       2.368   3.945  21.158  0.00  0.00    +0.000 C 
ENDBRANCH   5  16
ENDBRANCH   1  12
BRANCH   3  17
ATOM     17  C   UNL     1       0.096  10.989  19.160  0.00  0.00    +0.000 C 
BRANCH  17  18
ATOM     18  C   UNL     1      -1.283  11.084  18.555  0.00  0.00    +0.000 A 
ATOM     19  C   UNL     1      -1.540  10.573  17.263  0.00  0.00    +0.000 A 
ATOM     20  C   UNL     1      -2.797  10.694  16.668  0.00  0.00    +0.000 A 
ATOM     21 BR   UNL     1      -3.071  10.046  14.913  0.00  0.00    +0.000 Br
ATOM     22  C   UNL     1      -3.839  11.305  17.350  0.00  0.00    +0.000 A 
ATOM     23  C   UNL     1      -3.611  11.807  18.630  0.00  0.00    +0.000 A 
ATOM     24  C   UNL     1      -2.350  11.701  19.241  0.00  0.00    +0.000 A 
BRANCH  24  25
ATOM     25  O   UNL     1      -2.289  12.351  20.447  0.00  0.00    +0.000 OA
ATOM     26  C   UNL     1      -3.345  13.242  20.787  0.00  0.00    +0.000 C 
ENDBRANCH  24  25
ENDBRANCH  17  18
ENDBRANCH   3  17
TORSDOF 5
ENDMDL
MODEL 5
REMARK VINA RESULT:      -7.3      3.886      8.250
REMARK  Name = 
REMARK  7 active torsions:
REMARK  status: ('A' for Active; 'I' for Inactive)
REMARK    1  A    between atoms: C_1  and  C_2
REMARK    2  A    between atoms: C_2  and  N_3
REMARK    3  A    between atoms: C_10  and  C_11
REMARK    4  A    between atoms: N_13  and  C_14
REMARK    5  A    between atoms: C_14  and  C_15
REMARK    6  A    between atoms: C_21  and  O_22
REMARK    7  A    between atoms: O_22  and  C_23
REMARK                            x       y       z     vdW  Elec       q    Type
REMARK                         _______ _______ _______ _____ _____    ______ ____
ROOT
ATOM      1  C   UNL     1       1.900   8.576  18.479  0.00  0.00    +0.000 C 
ATOM      2  O   UNL     1       1.995   8.956  17.317  0.00  0.00    +0.000 OA
ATOM      3  N   UNL     1       2.442   7.397  18.942  0.00  0.00    +0.000 N 
ATOM      4  H   UNL     1       2.646   7.322  19.929  0.00  0.00    +0.000 HD
ENDROOT
BRANCH   1  12
ATOM      5  N   UNL     1      -1.086  12.343  19.345  0.00  0.00    +0.000 N 
ATOM      6  C   UNL     1      -2.353  12.655  20.003  0.00  0.00    +0.000 C 
ATOM      7  C   UNL     1      -2.172  13.051  21.461  0.00  0.00    +0.000 C 
ATOM      8  S   UNL     1      -1.436  11.720  22.460  0.00  0.00    +0.000 S 
ATOM      9  C   UNL     1      -0.422  10.895  21.229  0.00  0.00    +0.000 A 
ATOM     10  C   UNL     1       0.309   9.785  21.692  0.00  0.00    +0.000 A 
ATOM     11  C   UNL     1       1.097   9.034  20.820  0.00  0.00    +0.000 A 
ATOM     12  C   UNL     1       1.171   9.401  19.477  0.00  0.00    +0.000 A 
ATOM     13  C   UNL     1       0.466  10.521  19.018  0.00  0.00    +0.000 A 
ATOM     14  C   UNL     1      -0.346  11.286  19.873  0.00  0.00    +0.000 A 
BRANCH   5  16
ATOM     15  C   UNL     1       0.554  14.201  19.245  0.00  0.00    +0.000 C 
ATOM     16  C   UNL     1      -0.450  13.344  18.486  0.00  0.00    +0.000 C 
ENDBRANCH   5  16
ENDBRANCH   1  12
BRANCH   3  17
ATOM     17  C   UNL     1       3.162   6.535  18.027  0.00  0.00    +0.000 C 
BRANCH  17  18
ATOM     18  C   UNL     1       3.094   5.058  18.333  0.00  0.00    +0.000 A 
ATOM     19  C   UNL     1       2.454   4.594  19.504  0.00  0.00    +0.000 A 
ATOM     20  C   UNL     1       2.422   3.237  19.828  0.00  0.00    +0.000 A 
ATOM     21 BR   UNL     1       1.605   2.675  21.437  0.00  0.00    +0.000 Br
ATOM     22  C   UNL     1       3.004   2.302  18.984  0.00  0.00    +0.000 A 
ATOM     23  C   UNL     1       3.631   2.737  17.818  0.00  0.00    +0.000 A 
ATOM     24  C   UNL     1       3.680   4.100  17.481  0.00  0.00    +0.000 A 
BRANCH  24  25
ATOM     25  O   UNL     1       4.435   4.343  16.361  0.00  0.00    +0.000 OA
ATOM     26  C   UNL     1       5.852   4.291  16.479  0.00  0.00    +0.000 C 
ENDBRANCH  24  25
ENDBRANCH  17  18
ENDBRANCH   3  17
TORSDOF 5
ENDMDL
MODEL 6
REMARK VINA RESULT:      -7.2      2.248      3.931
REMARK  Name = 
REMARK  7 active torsions:
REMARK  status: ('A' for Active; 'I' for Inactive)
REMARK    1  A    between atoms: C_1  and  C_2
REMARK    2  A    between atoms: C_2  and  N_3
REMARK    3  A    between atoms: C_10  and  C_11
REMARK    4  A    between atoms: N_13  and  C_14
REMARK    5  A    between atoms: C_14  and  C_15
REMARK    6  A    between atoms: C_21  and  O_22
REMARK    7  A    between atoms: O_22  and  C_23
REMARK                            x       y       z     vdW  Elec       q    Type
REMARK                         _______ _______ _______ _____ _____    ______ ____
ROOT
ATOM      1  C   UNL     1       1.887   9.052  18.116  0.00  0.00    +0.000 C 
ATOM      2  O   UNL     1       2.254   9.960  17.379  0.00  0.00    +0.000 OA
ATOM      3  N   UNL     1       0.865   9.180  19.032  0.00  0.00    +0.000 N 
ATOM      4  H   UNL     1       0.385   8.341  19.329  0.00  0.00    +0.000 HD
ENDROOT
BRANCH   1  12
ATOM      5  N   UNL     1       1.611   4.246  18.940  0.00  0.00    +0.000 N 
ATOM      6  C   UNL     1       1.758   2.968  18.244  0.00  0.00    +0.000 C 
ATOM      7  C   UNL     1       3.181   2.434  18.298  0.00  0.00    +0.000 C 
ATOM      8  S   UNL     1       4.375   3.549  17.495  0.00  0.00    +0.000 S 
ATOM      9  C   UNL     1       3.600   5.142  17.787  0.00  0.00    +0.000 A 
ATOM     10  C   UNL     1       4.295   6.255  17.279  0.00  0.00    +0.000 A 
ATOM     11  C   UNL     1       3.771   7.542  17.403  0.00  0.00    +0.000 A 
ATOM     12  C   UNL     1       2.551   7.724  18.053  0.00  0.00    +0.000 A 
ATOM     13  C   UNL     1       1.869   6.621  18.584  0.00  0.00    +0.000 A 
ATOM     14  C   UNL     1       2.369   5.313  18.460  0.00  0.00    +0.000 A 
BRANCH   5  16
ATOM     15  C   UNL     1       2.111   4.039  21.360  0.00  0.00    +0.000 C 
ATOM     16  C   UNL     1       1.051   4.275  20.292  0.00  0.00    +0.000 C 
ENDBRANCH   5  16
ENDBRANCH   1  12
BRANCH   3  17
ATOM     17  C   UNL     1       0.174  10.446  19.157  0.00  0.00    +0.000 C 
BRANCH  17  18
ATOM     18  C   UNL     1      -0.443  10.720  20.508  0.00  0.00    +0.000 A 
ATOM     19  C   UNL     1      -1.290  11.834  20.700  0.00  0.00    +0.000 A 
ATOM     20  C   UNL     1      -1.831  12.130  21.953  0.00  0.00    +0.000 A 
ATOM     21 BR   UNL     1      -2.911  13.667  22.168  0.00  0.00    +0.000 Br
ATOM     22  C   UNL     1      -1.565  11.314  23.042  0.00  0.00    +0.000 A 
ATOM     23  C   UNL     1      -0.739  10.203  22.872  0.00  0.00    +0.000 A 
ATOM     24  C   UNL     1      -0.180   9.895  21.620  0.00  0.00    +0.000 A 
BRANCH  24  25
ATOM     25  O   UNL     1       0.692   8.837  21.675  0.00  0.00    +0.000 OA
ATOM     26  C   UNL     1       1.830   8.944  22.522  0.00  0.00    +0.000 C 
ENDBRANCH  24  25
ENDBRANCH  17  18
ENDBRANCH   3  17
TORSDOF 5
ENDMDL
MODEL 7
REMARK VINA RESULT:      -7.1      4.122      7.903
REMARK  Name = 
REMARK  7 active torsions:
REMARK  status: ('A' for Active; 'I' for Inactive)
REMARK    1  A    between atoms: C_1  and  C_2
REMARK    2  A    between atoms: C_2  and  N_3
REMARK    3  A    between atoms: C_10  and  C_11
REMARK    4  A    between atoms: N_13  and  C_14
REMARK    5  A    between atoms: C_14  and  C_15
REMARK    6  A    between atoms: C_21  and  O_22
REMARK    7  A    between atoms: O_22  and  C_23
REMARK                            x       y       z     vdW  Elec       q    Type
REMARK                         _______ _______ _______ _____ _____    ______ ____
ROOT
ATOM      1  C   UNL     1       2.586   5.915  18.732  0.00  0.00    +0.000 C 
ATOM      2  O   UNL     1       2.194   5.705  17.590  0.00  0.00    +0.000 OA
ATOM      3  N   UNL     1       3.499   5.115  19.384  0.00  0.00    +0.000 N 
ATOM      4  H   UNL     1       4.038   5.522  20.136  0.00  0.00    +0.000 HD
ENDROOT
BRANCH   1  12
ATOM      5  N   UNL     1       1.156  10.585  18.668  0.00  0.00    +0.000 N 
ATOM      6  C   UNL     1       0.016  11.425  19.030  0.00  0.00    +0.000 C 
ATOM      7  C   UNL     1       0.104  11.946  20.457  0.00  0.00    +0.000 C 
ATOM      8  S   UNL     1       0.116  10.607  21.689  0.00  0.00    +0.000 S 
ATOM      9  C   UNL     1       0.919   9.298  20.759  0.00  0.00    +0.000 A 
ATOM     10  C   UNL     1       1.093   8.084  21.450  0.00  0.00    +0.000 A 
ATOM     11  C   UNL     1       1.663   6.979  20.819  0.00  0.00    +0.000 A 
ATOM     12  C   UNL     1       2.079   7.087  19.492  0.00  0.00    +0.000 A 
ATOM     13  C   UNL     1       1.931   8.302  18.810  0.00  0.00    +0.000 A 
ATOM     14  C   UNL     1       1.348   9.426  19.419  0.00  0.00    +0.000 A 
BRANCH   5  16
ATOM     15  C   UNL     1       2.497  12.618  18.197  0.00  0.00    +0.000 C 
ATOM     16  C   UNL     1       2.249  11.150  17.874  0.00  0.00    +0.000 C 
ENDBRANCH   5  16
ENDBRANCH   1  12
BRANCH   3  17
ATOM     17  C   UNL     1       4.035   3.950  18.711  0.00  0.00    +0.000 C 
BRANCH  17  18
ATOM     18  C   UNL     1       5.148   4.222  17.727  0.00  0.00    +0.000 A 
ATOM     19  C   UNL     1       4.964   3.987  16.347  0.00  0.00    +0.000 A 
ATOM     20  C   UNL     1       5.996   4.187  15.429  0.00  0.00    +0.000 A 
ATOM     21 BR   UNL     1       5.713   3.801  13.600  0.00  0.00    +0.000 Br
ATOM     22  C   UNL     1       7.233   4.649  15.855  0.00  0.00    +0.000 A 
ATOM     23  C   UNL     1       7.434   4.896  17.212  0.00  0.00    +0.000 A 
ATOM     24  C   UNL     1       6.408   4.693  18.151  0.00  0.00    +0.000 A 
BRANCH  24  25
ATOM     25  O   UNL     1       6.828   4.880  19.443  0.00  0.00    +0.000 OA
ATOM     26  C   UNL     1       7.887   5.799  19.682  0.00  0.00    +0.000 C 
ENDBRANCH  24  25
ENDBRANCH  17  18
ENDBRANCH   3  17
TORSDOF 5
ENDMDL
MODEL 8
REMARK VINA RESULT:      -7.1      3.902      8.320
REMARK  Name = 
REMARK  7 active torsions:
REMARK  status: ('A' for Active; 'I' for Inactive)
REMARK    1  A    between atoms: C_1  and  C_2
REMARK    2  A    between atoms: C_2  and  N_3
REMARK    3  A    between atoms: C_10  and  C_11
REMARK    4  A    between atoms: N_13  and  C_14
REMARK    5  A    between atoms: C_14  and  C_15
REMARK    6  A    between atoms: C_21  and  O_22
REMARK    7  A    between atoms: O_22  and  C_23
REMARK                            x       y       z     vdW  Elec       q    Type
REMARK                         _______ _______ _______ _____ _____    ______ ____
ROOT
ATOM      1  C   UNL     1       1.923   8.813  18.510  0.00  0.00    +0.000 C 
ATOM      2  O   UNL     1       1.786   9.311  17.398  0.00  0.00    +0.000 OA
ATOM      3  N   UNL     1       2.724   7.720  18.762  0.00  0.00    +0.000 N 
ATOM      4  H   UNL     1       3.073   7.593  19.703  0.00  0.00    +0.000 HD
ENDROOT
BRANCH   1  12
ATOM      5  N   UNL     1      -0.565  12.566  20.403  0.00  0.00    +0.000 N 
ATOM      6  C   UNL     1      -1.843  12.867  21.045  0.00  0.00    +0.000 C 
ATOM      7  C   UNL     1      -1.782  12.735  22.559  0.00  0.00    +0.000 C 
ATOM      8  S   UNL     1      -1.372  11.045  23.095  0.00  0.00    +0.000 S 
ATOM      9  C   UNL     1      -0.349  10.494  21.726  0.00  0.00    +0.000 A 
ATOM     10  C   UNL     1       0.152   9.183  21.833  0.00  0.00    +0.000 A 
ATOM     11  C   UNL     1       0.922   8.627  20.812  0.00  0.00    +0.000 A 
ATOM     12  C   UNL     1       1.208   9.387  19.679  0.00  0.00    +0.000 A 
ATOM     13  C   UNL     1       0.733  10.702  19.580  0.00  0.00    +0.000 A 
ATOM     14  C   UNL     1      -0.056  11.281  20.590  0.00  0.00    +0.000 A 
BRANCH   5  16
ATOM     15  C   UNL     1      -0.151  14.283  18.662  0.00  0.00    +0.000 C 
ATOM     16  C   UNL     1       0.308  13.660  19.974  0.00  0.00    +0.000 C 
ENDBRANCH   5  16
ENDBRANCH   1  12
BRANCH   3  17
ATOM     17  C   UNL     1       3.449   7.100  17.672  0.00  0.00    +0.000 C 
BRANCH  17  18
ATOM     18  C   UNL     1       3.398   5.592  17.632  0.00  0.00    +0.000 A 
ATOM     19  C   UNL     1       2.305   4.892  18.188  0.00  0.00    +0.000 A 
ATOM     20  C   UNL     1       2.263   3.497  18.202  0.00  0.00    +0.000 A 
ATOM     21 BR   UNL     1       0.804   2.610  19.013  0.00  0.00    +0.000 Br
ATOM     22  C   UNL     1       3.296   2.760  17.641  0.00  0.00    +0.000 A 
ATOM     23  C   UNL     1       4.380   3.430  17.078  0.00  0.00    +0.000 A 
ATOM     24  C   UNL     1       4.442   4.834  17.062  0.00  0.00    +0.000 A 
BRANCH  24  25
ATOM     25  O   UNL     1       5.632   5.307  16.570  0.00  0.00    +0.000 OA
ATOM     26  C   UNL     1       6.839   4.726  17.051  0.00  0.00    +0.000 C 
ENDBRANCH  24  25
ENDBRANCH  17  18
ENDBRANCH   3  17
TORSDOF 5
ENDMDL
MODEL 9
REMARK VINA RESULT:      -7.1      4.062      8.345
REMARK  Name = 
REMARK  7 active torsions:
REMARK  status: ('A' for Active; 'I' for Inactive)
REMARK    1  A    between atoms: C_1  and  C_2
REMARK    2  A    between atoms: C_2  and  N_3
REMARK    3  A    between atoms: C_10  and  C_11
REMARK    4  A    between atoms: N_13  and  C_14
REMARK    5  A    between atoms: C_14  and  C_15
REMARK    6  A    between atoms: C_21  and  O_22
REMARK    7  A    between atoms: O_22  and  C_23
REMARK                            x       y       z     vdW  Elec       q    Type
REMARK                         _______ _______ _______ _____ _____    ______ ____
ROOT
ATOM      1  C   UNL     1       2.356   6.954  19.447  0.00  0.00    +0.000 C 
ATOM      2  O   UNL     1       1.999   6.283  20.409  0.00  0.00    +0.000 OA
ATOM      3  N   UNL     1       3.290   6.532  18.526  0.00  0.00    +0.000 N 
ATOM      4  H   UNL     1       3.269   6.943  17.603  0.00  0.00    +0.000 HD
ENDROOT
BRANCH   1  12
ATOM      5  N   UNL     1       0.268  10.933  21.363  0.00  0.00    +0.000 N 
ATOM      6  C   UNL     1       0.444  12.382  21.431  0.00  0.00    +0.000 C 
ATOM      7  C   UNL     1      -0.267  13.110  20.301  0.00  0.00    +0.000 C 
ATOM      8  S   UNL     1       0.360  12.634  18.660  0.00  0.00    +0.000 S 
ATOM      9  C   UNL     1       0.857  10.936  18.968  0.00  0.00    +0.000 A 
ATOM     10  C   UNL     1       1.400  10.255  17.862  0.00  0.00    +0.000 A 
ATOM     11  C   UNL     1       1.865   8.946  17.988  0.00  0.00    +0.000 A 
ATOM     12  C   UNL     1       1.775   8.303  19.222  0.00  0.00    +0.000 A 
ATOM     13  C   UNL     1       1.212   8.970  20.318  0.00  0.00    +0.000 A 
ATOM     14  C   UNL     1       0.748  10.293  20.221  0.00  0.00    +0.000 A 
BRANCH   5  16
ATOM     15  C   UNL     1      -0.077   9.539  23.387  0.00  0.00    +0.000 C 
ATOM     16  C   UNL     1      -0.723  10.281  22.223  0.00  0.00    +0.000 C 
ENDBRANCH   5  16
ENDBRANCH   1  12
BRANCH   3  17
ATOM     17  C   UNL     1       3.906   5.230  18.682  0.00  0.00    +0.000 C 
BRANCH  17  18
ATOM     18  C   UNL     1       5.121   4.979  17.821  0.00  0.00    +0.000 A 
ATOM     19  C   UNL     1       4.981   4.662  16.452  0.00  0.00    +0.000 A 
ATOM     20  C   UNL     1       6.090   4.379  15.652  0.00  0.00    +0.000 A 
ATOM     21 BR   UNL     1       5.842   3.902  13.839  0.00  0.00    +0.000 Br
ATOM     22  C   UNL     1       7.369   4.428  16.185  0.00  0.00    +0.000 A 
ATOM     23  C   UNL     1       7.531   4.749  17.532  0.00  0.00    +0.000 A 
ATOM     24  C   UNL     1       6.426   5.028  18.354  0.00  0.00    +0.000 A 
BRANCH  24  25
ATOM     25  O   UNL     1       6.775   5.209  19.668  0.00  0.00    +0.000 OA
ATOM     26  C   UNL     1       8.134   5.501  19.971  0.00  0.00    +0.000 C 
ENDBRANCH  24  25
ENDBRANCH  17  18
ENDBRANCH   3  17
TORSDOF 5
ENDMDL
