MODEL 1
REMARK VINA RESULT:      -7.8      0.000      0.000
REMARK  Name = 
REMARK  4 active torsions:
REMARK  status: ('A' for Active; 'I' for Inactive)
REMARK    1  A    between atoms: C_1  and  C_2
REMARK    2  A    between atoms: C_9  and  C_10
REMARK    3  A    between atoms: C_10  and  C_11
REMARK    4  A    between atoms: C_11  and  C_13
REMARK                            x       y       z     vdW  Elec       q    Type
REMARK                         _______ _______ _______ _____ _____    ______ ____
ROOT
ATOM      1  C   UNL     1       2.056   6.799  20.082  0.00  0.00    +0.000 C 
ATOM      2  C   UNL     1       2.362   5.336  20.123  0.00  0.00    +0.000 A 
ATOM      3  C   UNL     1       2.017   4.540  21.155  0.00  0.00    +0.000 A 
ATOM      4  C   UNL     1       2.349   3.082  21.136  0.00  0.00    +0.000 A 
ATOM      5  O   UNL     1       2.025   2.368  22.080  0.00  0.00    +0.000 OA
ATOM      6  N   UNL     1       3.010   2.598  20.038  0.00  0.00    +0.000 N 
ATOM      7  C   UNL     1       3.354   3.426  19.001  0.00  0.00    +0.000 A 
ATOM      8  N   UNL     1       3.973   3.118  17.890  0.00  0.00    +0.000 NA
ATOM      9  C   UNL     1       4.062   4.333  17.253  0.00  0.00    +0.000 A 
ATOM     10  N   UNL     1       3.458   5.351  17.879  0.00  0.00    +0.000 NA
ATOM     11  N   UNL     1       3.036   4.778  19.033  0.00  0.00    +0.000 N 
ATOM     12  H   UNL     1       3.255   1.618  19.991  0.00  0.00    +0.000 HD
ENDROOT
BRANCH   9  13
ATOM     13  C   UNL     1       4.656   4.469  15.896  0.00  0.00    +0.000 C 
BRANCH  13  14
ATOM     14  C   UNL     1       6.171   4.456  15.912  0.00  0.00    +0.000 C 
ATOM     15  O   UNL     1       6.864   3.706  15.226  0.00  0.00    +0.000 OA
BRANCH  14  16
ATOM     16  C   UNL     1       6.862   5.377  16.866  0.00  0.00    +0.000 A 
ATOM     17  C   UNL     1       7.415   4.830  18.032  0.00  0.00    +0.000 A 
ATOM     18  C   UNL     1       8.041   5.651  18.971  0.00  0.00    +0.000 A 
ATOM     19  C   UNL     1       8.133   7.022  18.745  0.00  0.00    +0.000 A 
ATOM     20  C   UNL     1       7.602   7.572  17.579  0.00  0.00    +0.000 A 
ATOM     21  C   UNL     1       6.967   6.755  16.638  0.00  0.00    +0.000 A 
ENDBRANCH  14  16
ENDBRANCH  13  14
ENDBRANCH   9  13
TORSDOF 3
ENDMDL
MODEL 2
REMARK VINA RESULT:      -7.7      2.217      3.353
REMARK  Name = 
REMARK  4 active torsions:
REMARK  status: ('A' for Active; 'I' for Inactive)
REMARK    1  A    between atoms: C_1  and  C_2
REMARK    2  A    between atoms: C_9  and  C_10
REMARK    3  A    between atoms: C_10  and  C_11
REMARK    4  A    between atoms: C_11  and  C_13
REMARK                            x       y       z     vdW  Elec       q    Type
REMARK                         _______ _______ _______ _____ _____    ______ ____
ROOT
ATOM      1  C   UNL     1       2.061   6.410  20.436  0.00  0.00    +0.000 C 
ATOM      2  C   UNL     1       2.062   5.223  19.526  0.00  0.00    +0.000 A 
ATOM      3  C   UNL     1       1.183   4.207  19.641  0.00  0.00    +0.000 A 
ATOM      4  C   UNL     1       1.233   3.047  18.698  0.00  0.00    +0.000 A 
ATOM      5  O   UNL     1       0.423   2.131  18.810  0.00  0.00    +0.000 OA
ATOM      6  N   UNL     1       2.198   3.064  17.726  0.00  0.00    +0.000 N 
ATOM      7  C   UNL     1       3.083   4.106  17.630  0.00  0.00    +0.000 A 
ATOM      8  N   UNL     1       4.047   4.271  16.761  0.00  0.00    +0.000 NA
ATOM      9  C   UNL     1       4.606   5.462  17.159  0.00  0.00    +0.000 A 
ATOM     10  N   UNL     1       3.982   6.073  18.175  0.00  0.00    +0.000 NA
ATOM     11  N   UNL     1       3.022   5.177  18.512  0.00  0.00    +0.000 N 
ATOM     12  H   UNL     1       2.265   2.295  17.072  0.00  0.00    +0.000 HD
ENDROOT
BRANCH   9  13
ATOM     13  C   UNL     1       5.727   6.095  16.416  0.00  0.00    +0.000 C 
BRANCH  13  14
ATOM     14  C   UNL     1       6.777   5.096  15.970  0.00  0.00    +0.000 C 
ATOM     15  O   UNL     1       7.599   4.576  16.723  0.00  0.00    +0.000 OA
BRANCH  14  16
ATOM     16  C   UNL     1       6.849   4.770  14.513  0.00  0.00    +0.000 A 
ATOM     17  C   UNL     1       5.997   3.776  14.013  0.00  0.00    +0.000 A 
ATOM     18  C   UNL     1       6.049   3.412  12.666  0.00  0.00    +0.000 A 
ATOM     19  C   UNL     1       6.942   4.048  11.807  0.00  0.00    +0.000 A 
ATOM     20  C   UNL     1       7.780   5.051  12.292  0.00  0.00    +0.000 A 
ATOM     21  C   UNL     1       7.738   5.415  13.642  0.00  0.00    +0.000 A 
ENDBRANCH  14  16
ENDBRANCH  13  14
ENDBRANCH   9  13
TORSDOF 3
ENDMDL
MODEL 3
REMARK VINA RESULT:      -7.7      2.127      3.419
REMARK  Name = 
REMARK  4 active torsions:
REMARK  status: ('A' for Active; 'I' for Inactive)
REMARK    1  A    between atoms: C_1  and  C_2
REMARK    2  A    between atoms: C_9  and  C_10
REMARK    3  A    between atoms: C_10  and  C_11
REMARK    4  A    between atoms: C_11  and  C_13
REMARK                            x       y       z     vdW  Elec       q    Type
REMARK                         _______ _______ _______ _____ _____    ______ ____
ROOT
ATOM      1  C   UNL     1       1.140   4.079  17.466  0.00  0.00    +0.000 C 
ATOM      2  C   UNL     1       1.983   3.690  18.638  0.00  0.00    +0.000 A 
ATOM      3  C   UNL     1       1.468   3.221  19.792  0.00  0.00    +0.000 A 
ATOM      4  C   UNL     1       2.365   2.845  20.929  0.00  0.00    +0.000 A 
ATOM      5  O   UNL     1       1.883   2.415  21.972  0.00  0.00    +0.000 OA
ATOM      6  N   UNL     1       3.714   2.996  20.746  0.00  0.00    +0.000 N 
ATOM      7  C   UNL     1       4.215   3.478  19.564  0.00  0.00    +0.000 A 
ATOM      8  N   UNL     1       5.467   3.670  19.235  0.00  0.00    +0.000 NA
ATOM      9  C   UNL     1       5.365   4.180  17.963  0.00  0.00    +0.000 A 
ATOM     10  N   UNL     1       4.121   4.233  17.468  0.00  0.00    +0.000 NA
ATOM     11  N   UNL     1       3.369   3.821  18.517  0.00  0.00    +0.000 N 
ATOM     12  H   UNL     1       4.352   2.756  21.493  0.00  0.00    +0.000 HD
ENDROOT
BRANCH   9  13
ATOM     13  C   UNL     1       6.564   4.506  17.145  0.00  0.00    +0.000 C 
BRANCH  13  14
ATOM     14  C   UNL     1       6.252   5.426  15.982  0.00  0.00    +0.000 C 
ATOM     15  O   UNL     1       5.795   6.562  16.102  0.00  0.00    +0.000 OA
BRANCH  14  16
ATOM     16  C   UNL     1       6.461   4.892  14.601  0.00  0.00    +0.000 A 
ATOM     17  C   UNL     1       7.536   5.391  13.853  0.00  0.00    +0.000 A 
ATOM     18  C   UNL     1       7.754   4.949  12.547  0.00  0.00    +0.000 A 
ATOM     19  C   UNL     1       6.909   3.996  11.984  0.00  0.00    +0.000 A 
ATOM     20  C   UNL     1       5.848   3.480  12.728  0.00  0.00    +0.000 A 
ATOM     21  C   UNL     1       5.620   3.925  14.034  0.00  0.00    +0.000 A 
ENDBRANCH  14  16
ENDBRANCH  13  14
ENDBRANCH   9  13
TORSDOF 3
ENDMDL
MODEL 4
REMARK VINA RESULT:      -7.6      2.092      3.362
REMARK  Name = 
REMARK  4 active torsions:
REMARK  status: ('A' for Active; 'I' for Inactive)
REMARK    1  A    between atoms: C_1  and  C_2
REMARK    2  A    between atoms: C_9  and  C_10
REMARK    3  A    between atoms: C_10  and  C_11
REMARK    4  A    between atoms: C_11  and  C_13
REMARK                            x       y       z     vdW  Elec       q    Type
REMARK                         _______ _______ _______ _____ _____    ______ ____
ROOT
ATOM      1  C   UNL     1       1.149   4.161  17.565  0.00  0.00    +0.000 C 
ATOM      2  C   UNL     1       2.008   3.745  18.715  0.00  0.00    +0.000 A 
ATOM      3  C   UNL     1       1.508   3.241  19.862  0.00  0.00    +0.000 A 
ATOM      4  C   UNL     1       2.420   2.839  20.978  0.00  0.00    +0.000 A 
ATOM      5  O   UNL     1       1.953   2.378  22.015  0.00  0.00    +0.000 OA
ATOM      6  N   UNL     1       3.767   3.003  20.784  0.00  0.00    +0.000 N 
ATOM      7  C   UNL     1       4.252   3.520  19.610  0.00  0.00    +0.000 A 
ATOM      8  N   UNL     1       5.498   3.727  19.272  0.00  0.00    +0.000 NA
ATOM      9  C   UNL     1       5.379   4.271  18.015  0.00  0.00    +0.000 A 
ATOM     10  N   UNL     1       4.130   4.331  17.536  0.00  0.00    +0.000 NA
ATOM     11  N   UNL     1       3.392   3.886  18.583  0.00  0.00    +0.000 N 
ATOM     12  H   UNL     1       4.414   2.746  21.516  0.00  0.00    +0.000 HD
ENDROOT
BRANCH   9  13
ATOM     13  C   UNL     1       6.566   4.626  17.194  0.00  0.00    +0.000 C 
BRANCH  13  14
ATOM     14  C   UNL     1       6.224   5.514  16.015  0.00  0.00    +0.000 C 
ATOM     15  O   UNL     1       5.785   6.659  16.116  0.00  0.00    +0.000 OA
BRANCH  14  16
ATOM     16  C   UNL     1       6.376   4.936  14.644  0.00  0.00    +0.000 A 
ATOM     17  C   UNL     1       5.373   4.079  14.172  0.00  0.00    +0.000 A 
ATOM     18  C   UNL     1       5.484   3.486  12.912  0.00  0.00    +0.000 A 
ATOM     19  C   UNL     1       6.590   3.758  12.111  0.00  0.00    +0.000 A 
ATOM     20  C   UNL     1       7.583   4.624  12.565  0.00  0.00    +0.000 A 
ATOM     21  C   UNL     1       7.481   5.214  13.829  0.00  0.00    +0.000 A 
ENDBRANCH  14  16
ENDBRANCH  13  14
ENDBRANCH   9  13
TORSDOF 3
ENDMDL
MODEL 5
REMARK VINA RESULT:      -7.6      2.090      3.654
REMARK  Name = 
REMARK  4 active torsions:
REMARK  status: ('A' for Active; 'I' for Inactive)
REMARK    1  A    between atoms: C_1  and  C_2
REMARK    2  A    between atoms: C_9  and  C_10
REMARK    3  A    between atoms: C_10  and  C_11
REMARK    4  A    between atoms: C_11  and  C_13
REMARK                            x       y       z     vdW  Elec       q    Type
REMARK                         _______ _______ _______ _____ _____    ______ ____
ROOT
ATOM      1  C   UNL     1       3.526   1.283  18.219  0.00  0.00    +0.000 C 
ATOM      2  C   UNL     1       3.345   2.523  19.035  0.00  0.00    +0.000 A 
ATOM      3  C   UNL     1       2.780   2.522  20.259  0.00  0.00    +0.000 A 
ATOM      4  C   UNL     1       2.628   3.796  21.029  0.00  0.00    +0.000 A 
ATOM      5  O   UNL     1       2.116   3.780  22.144  0.00  0.00    +0.000 OA
ATOM      6  N   UNL     1       3.084   4.946  20.442  0.00  0.00    +0.000 N 
ATOM      7  C   UNL     1       3.653   4.924  19.195  0.00  0.00    +0.000 A 
ATOM      8  N   UNL     1       4.140   5.927  18.510  0.00  0.00    +0.000 NA
ATOM      9  C   UNL     1       4.546   5.321  17.344  0.00  0.00    +0.000 A 
ATOM     10  N   UNL     1       4.407   3.989  17.315  0.00  0.00    +0.000 NA
ATOM     11  N   UNL     1       3.788   3.732  18.494  0.00  0.00    +0.000 N 
ATOM     12  H   UNL     1       2.996   5.827  20.930  0.00  0.00    +0.000 HD
ENDROOT
BRANCH   9  13
ATOM     13  C   UNL     1       5.227   6.076  16.259  0.00  0.00    +0.000 C 
BRANCH  13  14
ATOM     14  C   UNL     1       6.546   5.454  15.846  0.00  0.00    +0.000 C 
ATOM     15  O   UNL     1       7.539   5.395  16.570  0.00  0.00    +0.000 OA
BRANCH  14  16
ATOM     16  C   UNL     1       6.659   4.932  14.450  0.00  0.00    +0.000 A 
ATOM     17  C   UNL     1       5.738   3.964  14.027  0.00  0.00    +0.000 A 
ATOM     18  C   UNL     1       5.821   3.421  12.744  0.00  0.00    +0.000 A 
ATOM     19  C   UNL     1       6.815   3.852  11.869  0.00  0.00    +0.000 A 
ATOM     20  C   UNL     1       7.724   4.828  12.275  0.00  0.00    +0.000 A 
ATOM     21  C   UNL     1       7.651   5.370  13.562  0.00  0.00    +0.000 A 
ENDBRANCH  14  16
ENDBRANCH  13  14
ENDBRANCH   9  13
TORSDOF 3
ENDMDL
MODEL 6
REMARK VINA RESULT:      -7.6      2.265      3.660
REMARK  Name = 
REMARK  4 active torsions:
REMARK  status: ('A' for Active; 'I' for Inactive)
REMARK    1  A    between atoms: C_1  and  C_2
REMARK    2  A    between atoms: C_9  and  C_10
REMARK    3  A    between atoms: C_10  and  C_11
REMARK    4  A    between atoms: C_11  and  C_13
REMARK                            x       y       z     vdW  Elec       q    Type
REMARK                         _______ _______ _______ _____ _____    ______ ____
ROOT
ATOM      1  C   UNL     1       4.596   2.022  20.608  0.00  0.00    +0.000 C 
ATOM      2  C   UNL     1       3.544   2.541  19.681  0.00  0.00    +0.000 A 
ATOM      3  C   UNL     1       2.255   2.150  19.737  0.00  0.00    +0.000 A 
ATOM      4  C   UNL     1       1.248   2.709  18.783  0.00  0.00    +0.000 A 
ATOM      5  O   UNL     1       0.077   2.348  18.848  0.00  0.00    +0.000 OA
ATOM      6  N   UNL     1       1.688   3.623  17.862  0.00  0.00    +0.000 N 
ATOM      7  C   UNL     1       3.005   4.003  17.821  0.00  0.00    +0.000 A 
ATOM      8  N   UNL     1       3.574   4.863  17.015  0.00  0.00    +0.000 NA
ATOM      9  C   UNL     1       4.888   4.821  17.417  0.00  0.00    +0.000 A 
ATOM     10  N   UNL     1       5.136   4.043  18.478  0.00  0.00    +0.000 NA
ATOM     11  N   UNL     1       3.928   3.477  18.716  0.00  0.00    +0.000 N 
ATOM     12  H   UNL     1       1.038   4.020  17.198  0.00  0.00    +0.000 HD
ENDROOT
BRANCH   9  13
ATOM     13  C   UNL     1       5.926   5.695  16.808  0.00  0.00    +0.000 C 
BRANCH  13  14
ATOM     14  C   UNL     1       7.051   4.912  16.162  0.00  0.00    +0.000 C 
ATOM     15  O   UNL     1       8.033   4.485  16.768  0.00  0.00    +0.000 OA
BRANCH  14  16
ATOM     16  C   UNL     1       6.987   4.699  14.684  0.00  0.00    +0.000 A 
ATOM     17  C   UNL     1       6.089   3.743  14.190  0.00  0.00    +0.000 A 
ATOM     18  C   UNL     1       6.015   3.482  12.821  0.00  0.00    +0.000 A 
ATOM     19  C   UNL     1       6.827   4.184  11.934  0.00  0.00    +0.000 A 
ATOM     20  C   UNL     1       7.710   5.150  12.414  0.00  0.00    +0.000 A 
ATOM     21  C   UNL     1       7.794   5.410  13.786  0.00  0.00    +0.000 A 
ENDBRANCH  14  16
ENDBRANCH  13  14
ENDBRANCH   9  13
TORSDOF 3
ENDMDL
MODEL 7
REMARK VINA RESULT:      -7.5      1.986      3.285
REMARK  Name = 
REMARK  4 active torsions:
REMARK  status: ('A' for Active; 'I' for Inactive)
REMARK    1  A    between atoms: C_1  and  C_2
REMARK    2  A    between atoms: C_9  and  C_10
REMARK    3  A    between atoms: C_10  and  C_11
REMARK    4  A    between atoms: C_11  and  C_13
REMARK                            x       y       z     vdW  Elec       q    Type
REMARK                         _______ _______ _______ _____ _____    ______ ____
ROOT
ATOM      1  C   UNL     1       2.423   6.995  18.174  0.00  0.00    +0.000 C 
ATOM      2  C   UNL     1       2.713   5.720  18.901  0.00  0.00    +0.000 A 
ATOM      3  C   UNL     1       1.842   5.143  19.752  0.00  0.00    +0.000 A 
ATOM      4  C   UNL     1       2.189   3.865  20.447  0.00  0.00    +0.000 A 
ATOM      5  O   UNL     1       1.385   3.348  21.216  0.00  0.00    +0.000 OA
ATOM      6  N   UNL     1       3.416   3.315  20.183  0.00  0.00    +0.000 N 
ATOM      7  C   UNL     1       4.288   3.921  19.316  0.00  0.00    +0.000 A 
ATOM      8  N   UNL     1       5.480   3.521  18.956  0.00  0.00    +0.000 NA
ATOM      9  C   UNL     1       5.884   4.520  18.102  0.00  0.00    +0.000 A 
ATOM     10  N   UNL     1       4.968   5.466  17.858  0.00  0.00    +0.000 NA
ATOM     11  N   UNL     1       3.949   5.107  18.677  0.00  0.00    +0.000 N 
ATOM     12  H   UNL     1       3.688   2.454  20.636  0.00  0.00    +0.000 HD
ENDROOT
BRANCH   9  13
ATOM     13  C   UNL     1       7.187   4.467  17.387  0.00  0.00    +0.000 C 
BRANCH  13  14
ATOM     14  C   UNL     1       7.258   5.429  16.219  0.00  0.00    +0.000 C 
ATOM     15  O   UNL     1       7.480   6.634  16.327  0.00  0.00    +0.000 OA
BRANCH  14  16
ATOM     16  C   UNL     1       6.982   4.883  14.854  0.00  0.00    +0.000 A 
ATOM     17  C   UNL     1       7.804   5.297  13.797  0.00  0.00    +0.000 A 
ATOM     18  C   UNL     1       7.568   4.843  12.498  0.00  0.00    +0.000 A 
ATOM     19  C   UNL     1       6.519   3.960  12.249  0.00  0.00    +0.000 A 
ATOM     20  C   UNL     1       5.708   3.529  13.298  0.00  0.00    +0.000 A 
ATOM     21  C   UNL     1       5.935   3.987  14.600  0.00  0.00    +0.000 A 
ENDBRANCH  14  16
ENDBRANCH  13  14
ENDBRANCH   9  13
TORSDOF 3
ENDMDL
MODEL 8
REMARK VINA RESULT:      -7.5      2.070      3.322
REMARK  Name = 
REMARK  4 active torsions:
REMARK  status: ('A' for Active; 'I' for Inactive)
REMARK    1  A    between atoms: C_1  and  C_2
REMARK    2  A    between atoms: C_9  and  C_10
REMARK    3  A    between atoms: C_10  and  C_11
REMARK    4  A    between atoms: C_11  and  C_13
REMARK                            x       y       z     vdW  Elec       q    Type
REMARK                         _______ _______ _______ _____ _____    ______ ____
ROOT
ATOM      1  C   UNL     1       2.009   6.936  20.257  0.00  0.00    +0.000 C 
ATOM      2  C   UNL     1       2.253   5.558  19.730  0.00  0.00    +0.000 A 
ATOM      3  C   UNL     1       1.602   4.469  20.186  0.00  0.00    +0.000 A 
ATOM      4  C   UNL     1       1.889   3.116  19.616  0.00  0.00    +0.000 A 
ATOM      5  O   UNL     1       1.286   2.134  20.036  0.00  0.00    +0.000 OA
ATOM      6  N   UNL     1       2.830   3.036  18.624  0.00  0.00    +0.000 N 
ATOM      7  C   UNL     1       3.482   4.156  18.178  0.00  0.00    +0.000 A 
ATOM      8  N   UNL     1       4.391   4.244  17.241  0.00  0.00    +0.000 NA
ATOM      9  C   UNL     1       4.693   5.585  17.244  0.00  0.00    +0.000 A 
ATOM     10  N   UNL     1       3.958   6.333  18.077  0.00  0.00    +0.000 NA
ATOM     11  N   UNL     1       3.203   5.405  18.716  0.00  0.00    +0.000 N 
ATOM     12  H   UNL     1       3.054   2.138  18.216  0.00  0.00    +0.000 HD
ENDROOT
BRANCH   9  13
ATOM     13  C   UNL     1       5.661   6.178  16.283  0.00  0.00    +0.000 C 
BRANCH  13  14
ATOM     14  C   UNL     1       6.753   5.210  15.874  0.00  0.00    +0.000 C 
ATOM     15  O   UNL     1       7.652   4.827  16.621  0.00  0.00    +0.000 OA
BRANCH  14  16
ATOM     16  C   UNL     1       6.767   4.740  14.455  0.00  0.00    +0.000 A 
ATOM     17  C   UNL     1       7.706   5.303  13.580  0.00  0.00    +0.000 A 
ATOM     18  C   UNL     1       7.738   4.923  12.237  0.00  0.00    +0.000 A 
ATOM     19  C   UNL     1       6.842   3.967  11.763  0.00  0.00    +0.000 A 
ATOM     20  C   UNL     1       5.917   3.389  12.630  0.00  0.00    +0.000 A 
ATOM     21  C   UNL     1       5.875   3.772  13.975  0.00  0.00    +0.000 A 
ENDBRANCH  14  16
ENDBRANCH  13  14
ENDBRANCH   9  13
TORSDOF 3
ENDMDL
MODEL 9
REMARK VINA RESULT:      -7.5      0.722      1.286
REMARK  Name = 
REMARK  4 active torsions:
REMARK  status: ('A' for Active; 'I' for Inactive)
REMARK    1  A    between atoms: C_1  and  C_2
REMARK    2  A    between atoms: C_9  and  C_10
REMARK    3  A    between atoms: C_10  and  C_11
REMARK    4  A    between atoms: C_11  and  C_13
REMARK                            x       y       z     vdW  Elec       q    Type
REMARK                         _______ _______ _______ _____ _____    ______ ____
ROOT
ATOM      1  C   UNL     1       2.025   6.781  19.865  0.00  0.00    +0.000 C 
ATOM      2  C   UNL     1       2.263   5.315  20.038  0.00  0.00    +0.000 A 
ATOM      3  C   UNL     1       1.790   4.611  21.085  0.00  0.00    +0.000 A 
ATOM      4  C   UNL     1       2.060   3.144  21.201  0.00  0.00    +0.000 A 
ATOM      5  O   UNL     1       1.620   2.514  22.158  0.00  0.00    +0.000 OA
ATOM      6  N   UNL     1       2.798   2.557  20.208  0.00  0.00    +0.000 N 
ATOM      7  C   UNL     1       3.272   3.293  19.153  0.00  0.00    +0.000 A 
ATOM      8  N   UNL     1       3.977   2.882  18.131  0.00  0.00    +0.000 NA
ATOM      9  C   UNL     1       4.177   4.042  17.421  0.00  0.00    +0.000 A 
ATOM     10  N   UNL     1       3.562   5.124  17.913  0.00  0.00    +0.000 NA
ATOM     11  N   UNL     1       3.011   4.654  19.059  0.00  0.00    +0.000 N 
ATOM     12  H   UNL     1       3.004   1.568  20.253  0.00  0.00    +0.000 HD
ENDROOT
BRANCH   9  13
ATOM     13  C   UNL     1       4.899   4.056  16.121  0.00  0.00    +0.000 C 
BRANCH  13  14
ATOM     14  C   UNL     1       5.638   5.355  15.871  0.00  0.00    +0.000 C 
ATOM     15  O   UNL     1       5.567   6.001  14.825  0.00  0.00    +0.000 OA
BRANCH  14  16
ATOM     16  C   UNL     1       6.554   5.849  16.944  0.00  0.00    +0.000 A 
ATOM     17  C   UNL     1       6.844   7.220  16.988  0.00  0.00    +0.000 A 
ATOM     18  C   UNL     1       7.720   7.727  17.950  0.00  0.00    +0.000 A 
ATOM     19  C   UNL     1       8.300   6.871  18.882  0.00  0.00    +0.000 A 
ATOM     20  C   UNL     1       8.003   5.509  18.857  0.00  0.00    +0.000 A 
ATOM     21  C   UNL     1       7.133   4.994  17.891  0.00  0.00    +0.000 A 
ENDBRANCH  14  16
ENDBRANCH  13  14
ENDBRANCH   9  13
TORSDOF 3
ENDMDL
