MODEL 1
REMARK VINA RESULT:      -7.8      0.000      0.000
REMARK  Name = 
REMARK  5 active torsions:
REMARK  status: ('A' for Active; 'I' for Inactive)
REMARK    1  A    between atoms: C_1  and  C_2
REMARK    2  A    between atoms: C_6  and  C_7
REMARK    3  A    between atoms: C_7  and  S_8
REMARK    4  A    between atoms: S_8  and  C_11
REMARK    5  A    between atoms: C_18  and  O_19
REMARK                            x       y       z     vdW  Elec       q    Type
REMARK                         _______ _______ _______ _____ _____    ______ ____
ROOT
ATOM      1  C   UNL     1       7.605   5.117  12.890  0.00  0.00    +0.000 C 
ATOM      2  C   UNL     1       7.008   4.860  14.223  0.00  0.00    +0.000 A 
ATOM      3  C   UNL     1       5.973   3.964  14.556  0.00  0.00    +0.000 A 
ATOM      4  C   UNL     1       5.792   4.094  15.915  0.00  0.00    +0.000 A 
ATOM      5  N   UNL     1       4.928   3.476  16.778  0.00  0.00    +0.000 NA
ATOM      6  C   UNL     1       5.004   3.814  18.036  0.00  0.00    +0.000 A 
ATOM      7  C   UNL     1       5.946   4.856  18.572  0.00  0.00    +0.000 A 
ATOM      8  C   UNL     1       6.781   5.433  17.691  0.00  0.00    +0.000 A 
ATOM      9  N   UNL     1       6.719   5.057  16.336  0.00  0.00    +0.000 N 
ATOM     10  N   UNL     1       7.458   5.523  15.292  0.00  0.00    +0.000 NA
ENDROOT
BRANCH   8  11
ATOM     11  O   UNL     1       7.697   6.399  18.080  0.00  0.00    +0.000 OA
ATOM     12  H   UNL     1       7.291   6.994  18.731  0.00  0.00    +0.000 HD
ENDBRANCH   8  11
BRANCH   6  13
ATOM     13  C   UNL     1       4.026   3.163  18.995  0.00  0.00    +0.000 C 
BRANCH  13  14
ATOM     14  S   UNL     1       2.363   3.661  18.644  0.00  0.00    +0.000 S 
ATOM     15  O   UNL     1       2.118   3.529  17.222  0.00  0.00    +0.000 OA
ATOM     16  O   UNL     1       1.488   3.008  19.603  0.00  0.00    +0.000 OA
BRANCH  14  17
ATOM     17  C   UNL     1       2.315   5.404  19.025  0.00  0.00    +0.000 A 
ATOM     18  C   UNL     1       2.486   6.344  18.002  0.00  0.00    +0.000 A 
ATOM     19  C   UNL     1       2.321   7.702  18.281  0.00  0.00    +0.000 A 
ATOM     20  C   UNL     1       1.980   8.118  19.568  0.00  0.00    +0.000 A 
ATOM     21  C   UNL     1       1.807   7.179  20.585  0.00  0.00    +0.000 A 
ATOM     22  C   UNL     1       1.969   5.818  20.316  0.00  0.00    +0.000 A 
ENDBRANCH  14  17
ENDBRANCH  13  14
ENDBRANCH   6  13
TORSDOF 4
ENDMDL
MODEL 2
REMARK VINA RESULT:      -7.6      0.424      1.132
REMARK  Name = 
REMARK  5 active torsions:
REMARK  status: ('A' for Active; 'I' for Inactive)
REMARK    1  A    between atoms: C_1  and  C_2
REMARK    2  A    between atoms: C_6  and  C_7
REMARK    3  A    between atoms: C_7  and  S_8
REMARK    4  A    between atoms: S_8  and  C_11
REMARK    5  A    between atoms: C_18  and  O_19
REMARK                            x       y       z     vdW  Elec       q    Type
REMARK                         _______ _______ _______ _____ _____    ______ ____
ROOT
ATOM      1  C   UNL     1       7.460   5.043  13.236  0.00  0.00    +0.000 C 
ATOM      2  C   UNL     1       6.914   4.840  14.600  0.00  0.00    +0.000 A 
ATOM      3  C   UNL     1       5.912   3.940  15.013  0.00  0.00    +0.000 A 
ATOM      4  C   UNL     1       5.773   4.135  16.369  0.00  0.00    +0.000 A 
ATOM      5  N   UNL     1       4.954   3.543  17.292  0.00  0.00    +0.000 NA
ATOM      6  C   UNL     1       5.064   3.946  18.528  0.00  0.00    +0.000 A 
ATOM      7  C   UNL     1       5.997   5.035  18.978  0.00  0.00    +0.000 A 
ATOM      8  C   UNL     1       6.788   5.585  18.040  0.00  0.00    +0.000 A 
ATOM      9  N   UNL     1       6.690   5.139  16.709  0.00  0.00    +0.000 N 
ATOM     10  N   UNL     1       7.382   5.567  15.618  0.00  0.00    +0.000 NA
ENDROOT
BRANCH   8  11
ATOM     11  O   UNL     1       7.693   6.590  18.348  0.00  0.00    +0.000 OA
ATOM     12  H   UNL     1       7.919   6.550  19.292  0.00  0.00    +0.000 HD
ENDBRANCH   8  11
BRANCH   6  13
ATOM     13  C   UNL     1       4.134   3.323  19.551  0.00  0.00    +0.000 C 
BRANCH  13  14
ATOM     14  S   UNL     1       2.438   3.570  19.105  0.00  0.00    +0.000 S 
ATOM     15  O   UNL     1       2.240   3.138  17.736  0.00  0.00    +0.000 OA
ATOM     16  O   UNL     1       1.611   3.032  20.172  0.00  0.00    +0.000 OA
BRANCH  14  17
ATOM     17  C   UNL     1       2.208   5.340  19.135  0.00  0.00    +0.000 A 
ATOM     18  C   UNL     1       1.935   5.985  20.345  0.00  0.00    +0.000 A 
ATOM     19  C   UNL     1       1.884   7.380  20.385  0.00  0.00    +0.000 A 
ATOM     20  C   UNL     1       2.110   8.125  19.227  0.00  0.00    +0.000 A 
ATOM     21  C   UNL     1       2.384   7.478  18.021  0.00  0.00    +0.000 A 
ATOM     22  C   UNL     1       2.439   6.084  17.972  0.00  0.00    +0.000 A 
ENDBRANCH  14  17
ENDBRANCH  13  14
ENDBRANCH   6  13
TORSDOF 4
ENDMDL
MODEL 3
REMARK VINA RESULT:      -7.5      3.791      6.600
REMARK  Name = 
REMARK  5 active torsions:
REMARK  status: ('A' for Active; 'I' for Inactive)
REMARK    1  A    between atoms: C_1  and  C_2
REMARK    2  A    between atoms: C_6  and  C_7
REMARK    3  A    between atoms: C_7  and  S_8
REMARK    4  A    between atoms: S_8  and  C_11
REMARK    5  A    between atoms: C_18  and  O_19
REMARK                            x       y       z     vdW  Elec       q    Type
REMARK                         _______ _______ _______ _____ _____    ______ ____
ROOT
ATOM      1  C   UNL     1      -0.435  10.225  22.610  0.00  0.00    +0.000 C 
ATOM      2  C   UNL     1       0.342   9.510  21.568  0.00  0.00    +0.000 A 
ATOM      3  C   UNL     1       0.986   8.261  21.665  0.00  0.00    +0.000 A 
ATOM      4  C   UNL     1       1.558   8.040  20.432  0.00  0.00    +0.000 A 
ATOM      5  N   UNL     1       2.302   6.997  19.950  0.00  0.00    +0.000 NA
ATOM      6  C   UNL     1       2.703   7.078  18.711  0.00  0.00    +0.000 A 
ATOM      7  C   UNL     1       2.430   8.252  17.812  0.00  0.00    +0.000 A 
ATOM      8  C   UNL     1       1.691   9.252  18.324  0.00  0.00    +0.000 A 
ATOM      9  N   UNL     1       1.237   9.161  19.653  0.00  0.00    +0.000 N 
ATOM     10  N   UNL     1       0.494  10.057  20.359  0.00  0.00    +0.000 NA
ENDROOT
BRANCH   8  11
ATOM     11  O   UNL     1       1.371  10.377  17.579  0.00  0.00    +0.000 OA
ATOM     12  H   UNL     1       0.661  10.871  18.019  0.00  0.00    +0.000 HD
ENDBRANCH   8  11
BRANCH   6  13
ATOM     13  C   UNL     1       3.559   5.945  18.179  0.00  0.00    +0.000 C 
BRANCH  13  14
ATOM     14  S   UNL     1       2.569   4.536  17.765  0.00  0.00    +0.000 S 
ATOM     15  O   UNL     1       1.240   4.982  17.398  0.00  0.00    +0.000 OA
ATOM     16  O   UNL     1       3.338   3.697  16.862  0.00  0.00    +0.000 OA
BRANCH  14  17
ATOM     17  C   UNL     1       2.412   3.622  19.290  0.00  0.00    +0.000 A 
ATOM     18  C   UNL     1       3.544   3.045  19.875  0.00  0.00    +0.000 A 
ATOM     19  C   UNL     1       3.439   2.442  21.130  0.00  0.00    +0.000 A 
ATOM     20  C   UNL     1       2.215   2.422  21.799  0.00  0.00    +0.000 A 
ATOM     21  C   UNL     1       1.088   3.000  21.215  0.00  0.00    +0.000 A 
ATOM     22  C   UNL     1       1.183   3.607  19.961  0.00  0.00    +0.000 A 
ENDBRANCH  14  17
ENDBRANCH  13  14
ENDBRANCH   6  13
TORSDOF 4
ENDMDL
MODEL 4
REMARK VINA RESULT:      -7.5      2.674      6.789
REMARK  Name = 
REMARK  5 active torsions:
REMARK  status: ('A' for Active; 'I' for Inactive)
REMARK    1  A    between atoms: C_1  and  C_2
REMARK    2  A    between atoms: C_6  and  C_7
REMARK    3  A    between atoms: C_7  and  S_8
REMARK    4  A    between atoms: S_8  and  C_11
REMARK    5  A    between atoms: C_18  and  O_19
REMARK                            x       y       z     vdW  Elec       q    Type
REMARK                         _______ _______ _______ _____ _____    ______ ____
ROOT
ATOM      1  C   UNL     1       1.505   2.681  22.157  0.00  0.00    +0.000 C 
ATOM      2  C   UNL     1       2.145   3.176  20.913  0.00  0.00    +0.000 A 
ATOM      3  C   UNL     1       2.900   4.350  20.730  0.00  0.00    +0.000 A 
ATOM      4  C   UNL     1       3.273   4.349  19.404  0.00  0.00    +0.000 A 
ATOM      5  N   UNL     1       4.012   5.236  18.668  0.00  0.00    +0.000 NA
ATOM      6  C   UNL     1       4.203   4.948  17.410  0.00  0.00    +0.000 A 
ATOM      7  C   UNL     1       3.632   3.737  16.728  0.00  0.00    +0.000 A 
ATOM      8  C   UNL     1       2.918   2.889  17.489  0.00  0.00    +0.000 A 
ATOM      9  N   UNL     1       2.727   3.183  18.852  0.00  0.00    +0.000 N 
ATOM     10  N   UNL     1       2.035   2.471  19.784  0.00  0.00    +0.000 NA
ENDROOT
BRANCH   8  11
ATOM     11  O   UNL     1       2.355   1.735  16.963  0.00  0.00    +0.000 OA
ATOM     12  H   UNL     1       2.289   1.813  15.998  0.00  0.00    +0.000 HD
ENDBRANCH   8  11
BRANCH   6  13
ATOM     13  C   UNL     1       4.988   5.943  16.578  0.00  0.00    +0.000 C 
BRANCH  13  14
ATOM     14  S   UNL     1       6.680   5.445  16.415  0.00  0.00    +0.000 S 
ATOM     15  O   UNL     1       7.531   6.612  16.531  0.00  0.00    +0.000 OA
ATOM     16  O   UNL     1       6.893   4.292  17.273  0.00  0.00    +0.000 OA
BRANCH  14  17
ATOM     17  C   UNL     1       6.826   4.856  14.736  0.00  0.00    +0.000 A 
ATOM     18  C   UNL     1       5.941   3.881  14.262  0.00  0.00    +0.000 A 
ATOM     19  C   UNL     1       5.976   3.517  12.914  0.00  0.00    +0.000 A 
ATOM     20  C   UNL     1       6.882   4.127  12.045  0.00  0.00    +0.000 A 
ATOM     21  C   UNL     1       7.761   5.100  12.520  0.00  0.00    +0.000 A 
ATOM     22  C   UNL     1       7.733   5.472  13.866  0.00  0.00    +0.000 A 
ENDBRANCH  14  17
ENDBRANCH  13  14
ENDBRANCH   6  13
TORSDOF 4
ENDMDL
MODEL 5
REMARK VINA RESULT:      -7.4      2.121      2.800
REMARK  Name = 
REMARK  5 active torsions:
REMARK  status: ('A' for Active; 'I' for Inactive)
REMARK    1  A    between atoms: C_1  and  C_2
REMARK    2  A    between atoms: C_6  and  C_7
REMARK    3  A    between atoms: C_7  and  S_8
REMARK    4  A    between atoms: S_8  and  C_11
REMARK    5  A    between atoms: C_18  and  O_19
REMARK                            x       y       z     vdW  Elec       q    Type
REMARK                         _______ _______ _______ _____ _____    ______ ____
ROOT
ATOM      1  C   UNL     1       6.932   3.952  12.748  0.00  0.00    +0.000 C 
ATOM      2  C   UNL     1       6.606   4.430  14.114  0.00  0.00    +0.000 A 
ATOM      3  C   UNL     1       5.602   3.963  14.984  0.00  0.00    +0.000 A 
ATOM      4  C   UNL     1       5.714   4.725  16.125  0.00  0.00    +0.000 A 
ATOM      5  N   UNL     1       5.005   4.716  17.297  0.00  0.00    +0.000 NA
ATOM      6  C   UNL     1       5.363   5.573  18.212  0.00  0.00    +0.000 A 
ATOM      7  C   UNL     1       6.465   6.581  18.038  0.00  0.00    +0.000 A 
ATOM      8  C   UNL     1       7.138   6.552  16.875  0.00  0.00    +0.000 A 
ATOM      9  N   UNL     1       6.772   5.614  15.891  0.00  0.00    +0.000 N 
ATOM     10  N   UNL     1       7.311   5.427  14.655  0.00  0.00    +0.000 NA
ENDROOT
BRANCH   8  11
ATOM     11  O   UNL     1       8.180   7.430  16.613  0.00  0.00    +0.000 OA
ATOM     12  H   UNL     1       8.812   7.416  17.349  0.00  0.00    +0.000 HD
ENDBRANCH   8  11
BRANCH   6  13
ATOM     13  C   UNL     1       4.560   5.597  19.499  0.00  0.00    +0.000 C 
BRANCH  13  14
ATOM     14  S   UNL     1       2.889   6.101  19.199  0.00  0.00    +0.000 S 
ATOM     15  O   UNL     1       2.470   7.002  20.254  0.00  0.00    +0.000 OA
ATOM     16  O   UNL     1       2.784   6.502  17.806  0.00  0.00    +0.000 OA
BRANCH  14  17
ATOM     17  C   UNL     1       1.922   4.610  19.368  0.00  0.00    +0.000 A 
ATOM     18  C   UNL     1       1.540   3.897  18.227  0.00  0.00    +0.000 A 
ATOM     19  C   UNL     1       0.895   2.666  18.369  0.00  0.00    +0.000 A 
ATOM     20  C   UNL     1       0.641   2.148  19.640  0.00  0.00    +0.000 A 
ATOM     21  C   UNL     1       1.026   2.861  20.776  0.00  0.00    +0.000 A 
ATOM     22  C   UNL     1       1.672   4.092  20.644  0.00  0.00    +0.000 A 
ENDBRANCH  14  17
ENDBRANCH  13  14
ENDBRANCH   6  13
TORSDOF 4
ENDMDL
MODEL 6
REMARK VINA RESULT:      -7.3      1.042      1.228
REMARK  Name = 
REMARK  5 active torsions:
REMARK  status: ('A' for Active; 'I' for Inactive)
REMARK    1  A    between atoms: C_1  and  C_2
REMARK    2  A    between atoms: C_6  and  C_7
REMARK    3  A    between atoms: C_7  and  S_8
REMARK    4  A    between atoms: S_8  and  C_11
REMARK    5  A    between atoms: C_18  and  O_19
REMARK                            x       y       z     vdW  Elec       q    Type
REMARK                         _______ _______ _______ _____ _____    ______ ____
ROOT
ATOM      1  C   UNL     1       7.326   5.283  14.252  0.00  0.00    +0.000 C 
ATOM      2  C   UNL     1       6.578   4.798  15.436  0.00  0.00    +0.000 A 
ATOM      3  C   UNL     1       5.477   3.920  15.472  0.00  0.00    +0.000 A 
ATOM      4  C   UNL     1       5.154   3.781  16.804  0.00  0.00    +0.000 A 
ATOM      5  N   UNL     1       4.177   3.056  17.431  0.00  0.00    +0.000 NA
ATOM      6  C   UNL     1       4.130   3.126  18.732  0.00  0.00    +0.000 A 
ATOM      7  C   UNL     1       5.048   3.977  19.564  0.00  0.00    +0.000 A 
ATOM      8  C   UNL     1       5.997   4.669  18.909  0.00  0.00    +0.000 A 
ATOM      9  N   UNL     1       6.067   4.580  17.506  0.00  0.00    +0.000 N 
ATOM     10  N   UNL     1       6.934   5.202  16.659  0.00  0.00    +0.000 NA
ENDROOT
BRANCH   8  11
ATOM     11  O   UNL     1       6.903   5.477  19.579  0.00  0.00    +0.000 OA
ATOM     12  H   UNL     1       6.434   6.035  20.219  0.00  0.00    +0.000 HD
ENDBRANCH   8  11
BRANCH   6  13
ATOM     13  C   UNL     1       3.028   2.356  19.433  0.00  0.00    +0.000 C 
BRANCH  13  14
ATOM     14  S   UNL     1       1.476   3.201  19.303  0.00  0.00    +0.000 S 
ATOM     15  O   UNL     1       0.883   2.907  18.014  0.00  0.00    +0.000 OA
ATOM     16  O   UNL     1       0.730   2.961  20.526  0.00  0.00    +0.000 OA
BRANCH  14  17
ATOM     17  C   UNL     1       1.897   4.936  19.302  0.00  0.00    +0.000 A 
ATOM     18  C   UNL     1       2.214   5.573  18.098  0.00  0.00    +0.000 A 
ATOM     19  C   UNL     1       2.417   6.955  18.083  0.00  0.00    +0.000 A 
ATOM     20  C   UNL     1       2.296   7.695  19.260  0.00  0.00    +0.000 A 
ATOM     21  C   UNL     1       1.976   7.057  20.459  0.00  0.00    +0.000 A 
ATOM     22  C   UNL     1       1.771   5.676  20.484  0.00  0.00    +0.000 A 
ENDBRANCH  14  17
ENDBRANCH  13  14
ENDBRANCH   6  13
TORSDOF 4
ENDMDL
MODEL 7
REMARK VINA RESULT:      -7.2      1.801      2.712
REMARK  Name = 
REMARK  5 active torsions:
REMARK  status: ('A' for Active; 'I' for Inactive)
REMARK    1  A    between atoms: C_1  and  C_2
REMARK    2  A    between atoms: C_6  and  C_7
REMARK    3  A    between atoms: C_7  and  S_8
REMARK    4  A    between atoms: S_8  and  C_11
REMARK    5  A    between atoms: C_18  and  O_19
REMARK                            x       y       z     vdW  Elec       q    Type
REMARK                         _______ _______ _______ _____ _____    ______ ____
ROOT
ATOM      1  C   UNL     1       8.193   8.042  17.550  0.00  0.00    +0.000 C 
ATOM      2  C   UNL     1       7.287   6.872  17.660  0.00  0.00    +0.000 A 
ATOM      3  C   UNL     1       6.835   6.228  18.828  0.00  0.00    +0.000 A 
ATOM      4  C   UNL     1       6.015   5.209  18.398  0.00  0.00    +0.000 A 
ATOM      5  N   UNL     1       5.304   4.263  19.086  0.00  0.00    +0.000 NA
ATOM      6  C   UNL     1       4.601   3.420  18.381  0.00  0.00    +0.000 A 
ATOM      7  C   UNL     1       4.562   3.407  16.878  0.00  0.00    +0.000 A 
ATOM      8  C   UNL     1       5.270   4.357  16.242  0.00  0.00    +0.000 A 
ATOM      9  N   UNL     1       6.013   5.283  16.998  0.00  0.00    +0.000 N 
ATOM     10  N   UNL     1       6.798   6.303  16.555  0.00  0.00    +0.000 NA
ENDROOT
BRANCH   8  11
ATOM     11  O   UNL     1       5.296   4.442  14.858  0.00  0.00    +0.000 OA
ATOM     12  H   UNL     1       4.785   3.712  14.474  0.00  0.00    +0.000 HD
ENDBRANCH   8  11
BRANCH   6  13
ATOM     13  C   UNL     1       3.840   2.345  19.132  0.00  0.00    +0.000 C 
BRANCH  13  14
ATOM     14  S   UNL     1       2.110   2.721  19.206  0.00  0.00    +0.000 S 
ATOM     15  O   UNL     1       1.488   2.333  17.956  0.00  0.00    +0.000 OA
ATOM     16  O   UNL     1       1.596   2.220  20.469  0.00  0.00    +0.000 OA
BRANCH  14  17
ATOM     17  C   UNL     1       2.030   4.501  19.300  0.00  0.00    +0.000 A 
ATOM     18  C   UNL     1       2.028   5.132  20.549  0.00  0.00    +0.000 A 
ATOM     19  C   UNL     1       2.095   6.525  20.617  0.00  0.00    +0.000 A 
ATOM     20  C   UNL     1       2.172   7.282  19.447  0.00  0.00    +0.000 A 
ATOM     21  C   UNL     1       2.177   6.651  18.203  0.00  0.00    +0.000 A 
ATOM     22  C   UNL     1       2.112   5.258  18.125  0.00  0.00    +0.000 A 
ENDBRANCH  14  17
ENDBRANCH  13  14
ENDBRANCH   6  13
TORSDOF 4
ENDMDL
MODEL 8
REMARK VINA RESULT:      -7.2      1.049      1.537
REMARK  Name = 
REMARK  5 active torsions:
REMARK  status: ('A' for Active; 'I' for Inactive)
REMARK    1  A    between atoms: C_1  and  C_2
REMARK    2  A    between atoms: C_6  and  C_7
REMARK    3  A    between atoms: C_7  and  S_8
REMARK    4  A    between atoms: S_8  and  C_11
REMARK    5  A    between atoms: C_18  and  O_19
REMARK                            x       y       z     vdW  Elec       q    Type
REMARK                         _______ _______ _______ _____ _____    ______ ____
ROOT
ATOM      1  C   UNL     1       6.805   3.941  12.604  0.00  0.00    +0.000 C 
ATOM      2  C   UNL     1       6.538   4.256  14.029  0.00  0.00    +0.000 A 
ATOM      3  C   UNL     1       5.688   3.580  14.926  0.00  0.00    +0.000 A 
ATOM      4  C   UNL     1       5.794   4.257  16.121  0.00  0.00    +0.000 A 
ATOM      5  N   UNL     1       5.200   4.051  17.336  0.00  0.00    +0.000 NA
ATOM      6  C   UNL     1       5.514   4.875  18.297  0.00  0.00    +0.000 A 
ATOM      7  C   UNL     1       6.447   6.043  18.133  0.00  0.00    +0.000 A 
ATOM      8  C   UNL     1       7.013   6.205  16.924  0.00  0.00    +0.000 A 
ATOM      9  N   UNL     1       6.695   5.306  15.890  0.00  0.00    +0.000 N 
ATOM     10  N   UNL     1       7.143   5.299  14.604  0.00  0.00    +0.000 NA
ENDROOT
BRANCH   8  11
ATOM     11  O   UNL     1       7.896   7.243  16.666  0.00  0.00    +0.000 OA
ATOM     12  H   UNL     1       8.323   7.104  15.806  0.00  0.00    +0.000 HD
ENDBRANCH   8  11
BRANCH   6  13
ATOM     13  C   UNL     1       4.833   4.678  19.637  0.00  0.00    +0.000 C 
BRANCH  13  14
ATOM     14  S   UNL     1       3.080   4.504  19.443  0.00  0.00    +0.000 S 
ATOM     15  O   UNL     1       2.810   3.778  18.218  0.00  0.00    +0.000 OA
ATOM     16  O   UNL     1       2.532   4.044  20.706  0.00  0.00    +0.000 OA
BRANCH  14  17
ATOM     17  C   UNL     1       2.477   6.168  19.209  0.00  0.00    +0.000 A 
ATOM     18  C   UNL     1       1.958   6.878  20.296  0.00  0.00    +0.000 A 
ATOM     19  C   UNL     1       1.607   8.221  20.138  0.00  0.00    +0.000 A 
ATOM     20  C   UNL     1       1.779   8.850  18.904  0.00  0.00    +0.000 A 
ATOM     21  C   UNL     1       2.299   8.140  17.822  0.00  0.00    +0.000 A 
ATOM     22  C   UNL     1       2.655   6.798  17.971  0.00  0.00    +0.000 A 
ENDBRANCH  14  17
ENDBRANCH  13  14
ENDBRANCH   6  13
TORSDOF 4
ENDMDL
MODEL 9
REMARK VINA RESULT:      -7.2      3.284      6.545
REMARK  Name = 
REMARK  5 active torsions:
REMARK  status: ('A' for Active; 'I' for Inactive)
REMARK    1  A    between atoms: C_1  and  C_2
REMARK    2  A    between atoms: C_6  and  C_7
REMARK    3  A    between atoms: C_7  and  S_8
REMARK    4  A    between atoms: S_8  and  C_11
REMARK    5  A    between atoms: C_18  and  O_19
REMARK                            x       y       z     vdW  Elec       q    Type
REMARK                         _______ _______ _______ _____ _____    ______ ____
ROOT
ATOM      1  C   UNL     1       0.170  10.518  21.942  0.00  0.00    +0.000 C 
ATOM      2  C   UNL     1       0.779   9.425  21.145  0.00  0.00    +0.000 A 
ATOM      3  C   UNL     1       1.037   8.098  21.541  0.00  0.00    +0.000 A 
ATOM      4  C   UNL     1       1.602   7.486  20.444  0.00  0.00    +0.000 A 
ATOM      5  N   UNL     1       2.052   6.208  20.249  0.00  0.00    +0.000 NA
ATOM      6  C   UNL     1       2.538   5.924  19.072  0.00  0.00    +0.000 A 
ATOM      7  C   UNL     1       2.666   6.918  17.952  0.00  0.00    +0.000 A 
ATOM      8  C   UNL     1       2.207   8.160  18.184  0.00  0.00    +0.000 A 
ATOM      9  N   UNL     1       1.661   8.467  19.444  0.00  0.00    +0.000 N 
ATOM     10  N   UNL     1       1.157   9.652  19.884  0.00  0.00    +0.000 NA
ENDROOT
BRANCH   8  11
ATOM     11  O   UNL     1       2.267   9.152  17.216  0.00  0.00    +0.000 OA
ATOM     12  H   UNL     1       1.368   9.432  16.978  0.00  0.00    +0.000 HD
ENDBRANCH   8  11
BRANCH   6  13
ATOM     13  C   UNL     1       3.073   4.521  18.858  0.00  0.00    +0.000 C 
BRANCH  13  14
ATOM     14  S   UNL     1       4.828   4.465  19.092  0.00  0.00    +0.000 S 
ATOM     15  O   UNL     1       5.249   5.655  19.805  0.00  0.00    +0.000 OA
ATOM     16  O   UNL     1       5.172   3.147  19.596  0.00  0.00    +0.000 OA
BRANCH  14  17
ATOM     17  C   UNL     1       5.515   4.570  17.448  0.00  0.00    +0.000 A 
ATOM     18  C   UNL     1       4.892   3.899  16.390  0.00  0.00    +0.000 A 
ATOM     19  C   UNL     1       5.356   4.087  15.087  0.00  0.00    +0.000 A 
ATOM     20  C   UNL     1       6.430   4.944  14.841  0.00  0.00    +0.000 A 
ATOM     21  C   UNL     1       7.047   5.615  15.897  0.00  0.00    +0.000 A 
ATOM     22  C   UNL     1       6.589   5.434  17.204  0.00  0.00    +0.000 A 
ENDBRANCH  14  17
ENDBRANCH  13  14
ENDBRANCH   6  13
TORSDOF 4
ENDMDL
