MODEL 1
REMARK VINA RESULT:      -6.1      0.000      0.000
REMARK  Name = 
REMARK  5 active torsions:
REMARK  status: ('A' for Active; 'I' for Inactive)
REMARK    1  A    between atoms: C_1  and  O_2
REMARK    2  A    between atoms: O_2  and  C_3
REMARK    3  A    between atoms: C_3  and  C_4
REMARK    4  A    between atoms: C_4  and  N_5
REMARK    5  A    between atoms: C_13  and  C_14
REMARK                            x       y       z     vdW  Elec       q    Type
REMARK                         _______ _______ _______ _____ _____    ______ ____
ROOT
ATOM      1  N   UNL     1      -6.074  12.917  21.816  0.00  0.00    +0.000 NA
ATOM      2  C   UNL     1      -6.123  14.308  21.375  0.00  0.00    +0.000 C 
ATOM      3  C   UNL     1      -5.430  14.348  20.016  0.00  0.00    +0.000 C 
ATOM      4  C   UNL     1      -5.414  12.896  19.505  0.00  0.00    +0.000 C 
ATOM      5  C   UNL     1      -6.204  12.773  18.193  0.00  0.00    +0.000 C 
ATOM      6  O   UNL     1      -6.206  11.411  17.765  0.00  0.00    +0.000 OA
ATOM      7  C   UNL     1      -4.904  10.997  17.337  0.00  0.00    +0.000 C 
ATOM      8  C   UNL     1      -3.802  11.402  18.269  0.00  0.00    +0.000 A 
ATOM      9  C   UNL     1      -2.505  10.935  18.159  0.00  0.00    +0.000 A 
ATOM     10  C   UNL     1      -2.067   9.958  17.106  0.00  0.00    +0.000 C 
ATOM     11  N   UNL     1      -1.523  11.324  19.000  0.00  0.00    +0.000 NA
ATOM     12  C   UNL     1      -1.808  12.205  19.969  0.00  0.00    +0.000 A 
ATOM     13  N   UNL     1      -0.800  12.641  20.782  0.00  0.00    +0.000 N 
ATOM     14  C   UNL     1      -1.061  13.488  21.942  0.00  0.00    +0.000 C 
ATOM     15  C   UNL     1       0.033  14.568  22.008  0.00  0.00    +0.000 C 
ATOM     16  O   UNL     1       1.353  13.993  22.018  0.00  0.00    +0.000 OA
ATOM     17  C   UNL     1       1.566  13.195  20.839  0.00  0.00    +0.000 C 
ATOM     18  C   UNL     1       0.536  12.058  20.728  0.00  0.00    +0.000 C 
ATOM     19  N   UNL     1      -3.035  12.716  20.122  0.00  0.00    +0.000 NA
ATOM     20  C   UNL     1      -4.018  12.330  19.280  0.00  0.00    +0.000 A 
ATOM     21  C   UNL     1      -6.120  12.089  20.606  0.00  0.00    +0.000 C 
ENDROOT
BRANCH   1  22
ATOM     22  C   UNL     1      -7.154  12.580  22.750  0.00  0.00    +0.000 C 
BRANCH  22  23
ATOM     23  C   UNL     1      -6.721  12.647  24.226  0.00  0.00    +0.000 C 
BRANCH  23  25
ATOM     24  C   UNL     1      -4.419  12.540  24.823  0.00  0.00    +0.000 C 
ATOM     25  O   UNL     1      -5.594  11.806  24.497  0.00  0.00    +0.000 OA
ENDBRANCH  23  25
ENDBRANCH  22  23
ENDBRANCH   1  22
TORSDOF 3
ENDMDL
MODEL 2
REMARK VINA RESULT:      -6.0      1.888      5.709
REMARK  Name = 
REMARK  5 active torsions:
REMARK  status: ('A' for Active; 'I' for Inactive)
REMARK    1  A    between atoms: C_1  and  O_2
REMARK    2  A    between atoms: O_2  and  C_3
REMARK    3  A    between atoms: C_3  and  C_4
REMARK    4  A    between atoms: C_4  and  N_5
REMARK    5  A    between atoms: C_13  and  C_14
REMARK                            x       y       z     vdW  Elec       q    Type
REMARK                         _______ _______ _______ _____ _____    ______ ____
ROOT
ATOM      1  N   UNL     1      -0.002  12.576  18.829  0.00  0.00    +0.000 NA
ATOM      2  C   UNL     1       0.277  11.255  19.386  0.00  0.00    +0.000 C 
ATOM      3  C   UNL     1      -1.003  10.443  19.216  0.00  0.00    +0.000 C 
ATOM      4  C   UNL     1      -1.832  11.174  18.145  0.00  0.00    +0.000 C 
ATOM      5  C   UNL     1      -2.058  10.273  16.923  0.00  0.00    +0.000 C 
ATOM      6  O   UNL     1      -2.794  10.991  15.932  0.00  0.00    +0.000 OA
ATOM      7  C   UNL     1      -4.143  11.224  16.351  0.00  0.00    +0.000 C 
ATOM      8  C   UNL     1      -4.264  11.720  17.760  0.00  0.00    +0.000 A 
ATOM      9  C   UNL     1      -5.445  12.200  18.297  0.00  0.00    +0.000 A 
ATOM     10  C   UNL     1      -6.726  12.295  17.519  0.00  0.00    +0.000 C 
ATOM     11  N   UNL     1      -5.536  12.627  19.575  0.00  0.00    +0.000 NA
ATOM     12  C   UNL     1      -4.450  12.573  20.358  0.00  0.00    +0.000 A 
ATOM     13  N   UNL     1      -4.560  12.951  21.666  0.00  0.00    +0.000 N 
ATOM     14  C   UNL     1      -3.392  13.051  22.537  0.00  0.00    +0.000 C 
ATOM     15  C   UNL     1      -3.767  12.478  23.915  0.00  0.00    +0.000 C 
ATOM     16  O   UNL     1      -4.934  13.121  24.463  0.00  0.00    +0.000 OA
ATOM     17  C   UNL     1      -6.059  12.965  23.579  0.00  0.00    +0.000 C 
ATOM     18  C   UNL     1      -5.777  13.560  22.189  0.00  0.00    +0.000 C 
ATOM     19  N   UNL     1      -3.279  12.099  19.913  0.00  0.00    +0.000 NA
ATOM     20  C   UNL     1      -3.187  11.669  18.636  0.00  0.00    +0.000 A 
ATOM     21  C   UNL     1      -0.967  12.379  17.741  0.00  0.00    +0.000 C 
ENDROOT
BRANCH   1  22
ATOM     22  C   UNL     1       1.208  13.264  18.368  0.00  0.00    +0.000 C 
BRANCH  22  23
ATOM     23  C   UNL     1       1.385  14.660  18.990  0.00  0.00    +0.000 C 
BRANCH  23  25
ATOM     24  C   UNL     1      -0.409  16.223  18.923  0.00  0.00    +0.000 C 
ATOM     25  O   UNL     1       0.186  15.130  19.614  0.00  0.00    +0.000 OA
ENDBRANCH  23  25
ENDBRANCH  22  23
ENDBRANCH   1  22
TORSDOF 3
ENDMDL
MODEL 3
REMARK VINA RESULT:      -6.0      2.886      6.430
REMARK  Name = 
REMARK  5 active torsions:
REMARK  status: ('A' for Active; 'I' for Inactive)
REMARK    1  A    between atoms: C_1  and  O_2
REMARK    2  A    between atoms: O_2  and  C_3
REMARK    3  A    between atoms: C_3  and  C_4
REMARK    4  A    between atoms: C_4  and  N_5
REMARK    5  A    between atoms: C_13  and  C_14
REMARK                            x       y       z     vdW  Elec       q    Type
REMARK                         _______ _______ _______ _____ _____    ______ ____
ROOT
ATOM      1  N   UNL     1      -2.540  10.706  17.673  0.00  0.00    +0.000 NA
ATOM      2  C   UNL     1      -1.870  11.932  17.247  0.00  0.00    +0.000 C 
ATOM      3  C   UNL     1      -0.769  12.193  18.271  0.00  0.00    +0.000 C 
ATOM      4  C   UNL     1      -0.539  10.856  18.999  0.00  0.00    +0.000 C 
ATOM      5  C   UNL     1       0.897  10.359  18.782  0.00  0.00    +0.000 C 
ATOM      6  O   UNL     1       1.068   9.100  19.433  0.00  0.00    +0.000 OA
ATOM      7  C   UNL     1       1.042   9.242  20.858  0.00  0.00    +0.000 C 
ATOM      8  C   UNL     1      -0.074  10.107  21.361  0.00  0.00    +0.000 A 
ATOM      9  C   UNL     1      -0.408  10.213  22.699  0.00  0.00    +0.000 A 
ATOM     10  C   UNL     1       0.299   9.458  23.788  0.00  0.00    +0.000 C 
ATOM     11  N   UNL     1      -1.408  11.010  23.133  0.00  0.00    +0.000 NA
ATOM     12  C   UNL     1      -2.094  11.737  22.241  0.00  0.00    +0.000 A 
ATOM     13  N   UNL     1      -3.066  12.586  22.689  0.00  0.00    +0.000 N 
ATOM     14  C   UNL     1      -3.945  13.301  21.768  0.00  0.00    +0.000 C 
ATOM     15  C   UNL     1      -4.123  14.738  22.288  0.00  0.00    +0.000 C 
ATOM     16  O   UNL     1      -4.597  14.761  23.648  0.00  0.00    +0.000 OA
ATOM     17  C   UNL     1      -3.677  14.070  24.514  0.00  0.00    +0.000 C 
ATOM     18  C   UNL     1      -3.484  12.606  24.086  0.00  0.00    +0.000 C 
ATOM     19  N   UNL     1      -1.812  11.702  20.932  0.00  0.00    +0.000 NA
ATOM     20  C   UNL     1      -0.810  10.908  20.497  0.00  0.00    +0.000 A 
ATOM     21  C   UNL     1      -1.525   9.880  18.336  0.00  0.00    +0.000 C 
ENDROOT
BRANCH   1  22
ATOM     22  C   UNL     1      -3.182   9.996  16.563  0.00  0.00    +0.000 C 
BRANCH  22  23
ATOM     23  C   UNL     1      -3.210  10.812  15.258  0.00  0.00    +0.000 C 
BRANCH  23  25
ATOM     24  C   UNL     1      -3.961   9.899  13.192  0.00  0.00    +0.000 C 
ATOM     25  O   UNL     1      -2.884  10.014  14.115  0.00  0.00    +0.000 OA
ENDBRANCH  23  25
ENDBRANCH  22  23
ENDBRANCH   1  22
TORSDOF 3
ENDMDL
MODEL 4
REMARK VINA RESULT:      -5.9      2.407      7.165
REMARK  Name = 
REMARK  5 active torsions:
REMARK  status: ('A' for Active; 'I' for Inactive)
REMARK    1  A    between atoms: C_1  and  O_2
REMARK    2  A    between atoms: O_2  and  C_3
REMARK    3  A    between atoms: C_3  and  C_4
REMARK    4  A    between atoms: C_4  and  N_5
REMARK    5  A    between atoms: C_13  and  C_14
REMARK                            x       y       z     vdW  Elec       q    Type
REMARK                         _______ _______ _______ _____ _____    ______ ____
ROOT
ATOM      1  N   UNL     1      -0.202  10.839  19.492  0.00  0.00    +0.000 NA
ATOM      2  C   UNL     1       0.142  11.992  18.665  0.00  0.00    +0.000 C 
ATOM      3  C   UNL     1      -0.492  13.204  19.341  0.00  0.00    +0.000 C 
ATOM      4  C   UNL     1      -0.790  12.776  20.789  0.00  0.00    +0.000 C 
ATOM      5  C   UNL     1      -0.008  13.643  21.786  0.00  0.00    +0.000 C 
ATOM      6  O   UNL     1      -0.273  13.197  23.115  0.00  0.00    +0.000 OA
ATOM      7  C   UNL     1      -1.621  13.486  23.504  0.00  0.00    +0.000 C 
ATOM      8  C   UNL     1      -2.641  13.130  22.465  0.00  0.00    +0.000 A 
ATOM      9  C   UNL     1      -4.003  13.133  22.707  0.00  0.00    +0.000 A 
ATOM     10  C   UNL     1      -4.603  13.474  24.040  0.00  0.00    +0.000 C 
ATOM     11  N   UNL     1      -4.906  12.824  21.752  0.00  0.00    +0.000 NA
ATOM     12  C   UNL     1      -4.473  12.516  20.522  0.00  0.00    +0.000 A 
ATOM     13  N   UNL     1      -5.392  12.261  19.543  0.00  0.00    +0.000 N 
ATOM     14  C   UNL     1      -4.994  11.784  18.222  0.00  0.00    +0.000 C 
ATOM     15  C   UNL     1      -5.846  12.513  17.168  0.00  0.00    +0.000 C 
ATOM     16  O   UNL     1      -7.256  12.360  17.420  0.00  0.00    +0.000 OA
ATOM     17  C   UNL     1      -7.595  12.874  18.721  0.00  0.00    +0.000 C 
ATOM     18  C   UNL     1      -6.817  12.157  19.837  0.00  0.00    +0.000 C 
ATOM     19  N   UNL     1      -3.172  12.515  20.209  0.00  0.00    +0.000 NA
ATOM     20  C   UNL     1      -2.267  12.827  21.162  0.00  0.00    +0.000 A 
ATOM     21  C   UNL     1      -0.294  11.324  20.874  0.00  0.00    +0.000 C 
ENDROOT
BRANCH   1  22
ATOM     22  C   UNL     1       0.761   9.740  19.361  0.00  0.00    +0.000 C 
BRANCH  22  23
ATOM     23  C   UNL     1       1.579   9.805  18.059  0.00  0.00    +0.000 C 
BRANCH  23  25
ATOM     24  C   UNL     1       2.323   7.692  18.864  0.00  0.00    +0.000 C 
ATOM     25  O   UNL     1       2.180   8.546  17.735  0.00  0.00    +0.000 OA
ENDBRANCH  23  25
ENDBRANCH  22  23
ENDBRANCH   1  22
TORSDOF 3
ENDMDL
MODEL 5
REMARK VINA RESULT:      -5.9      1.744      5.851
REMARK  Name = 
REMARK  5 active torsions:
REMARK  status: ('A' for Active; 'I' for Inactive)
REMARK    1  A    between atoms: C_1  and  O_2
REMARK    2  A    between atoms: O_2  and  C_3
REMARK    3  A    between atoms: C_3  and  C_4
REMARK    4  A    between atoms: C_4  and  N_5
REMARK    5  A    between atoms: C_13  and  C_14
REMARK                            x       y       z     vdW  Elec       q    Type
REMARK                         _______ _______ _______ _____ _____    ______ ____
ROOT
ATOM      1  N   UNL     1      -0.023  12.677  18.951  0.00  0.00    +0.000 NA
ATOM      2  C   UNL     1       0.277  11.359  19.503  0.00  0.00    +0.000 C 
ATOM      3  C   UNL     1      -0.985  10.522  19.313  0.00  0.00    +0.000 C 
ATOM      4  C   UNL     1      -1.817  11.244  18.238  0.00  0.00    +0.000 C 
ATOM      5  C   UNL     1      -2.011  10.347  17.006  0.00  0.00    +0.000 C 
ATOM      6  O   UNL     1      -2.749  11.058  16.013  0.00  0.00    +0.000 OA
ATOM      7  C   UNL     1      -4.108  11.260  16.417  0.00  0.00    +0.000 C 
ATOM      8  C   UNL     1      -4.255  11.743  17.829  0.00  0.00    +0.000 A 
ATOM      9  C   UNL     1      -5.451  12.195  18.356  0.00  0.00    +0.000 A 
ATOM     10  C   UNL     1      -6.725  12.269  17.565  0.00  0.00    +0.000 C 
ATOM     11  N   UNL     1      -5.565  12.611  19.635  0.00  0.00    +0.000 NA
ATOM     12  C   UNL     1      -4.487  12.573  20.430  0.00  0.00    +0.000 A 
ATOM     13  N   UNL     1      -4.619  12.940  21.740  0.00  0.00    +0.000 N 
ATOM     14  C   UNL     1      -3.464  13.056  22.625  0.00  0.00    +0.000 C 
ATOM     15  C   UNL     1      -3.842  12.466  23.994  0.00  0.00    +0.000 C 
ATOM     16  O   UNL     1      -5.028  13.082  24.534  0.00  0.00    +0.000 OA
ATOM     17  C   UNL     1      -6.139  12.908  23.636  0.00  0.00    +0.000 C 
ATOM     18  C   UNL     1      -5.854  13.520  22.254  0.00  0.00    +0.000 C 
ATOM     19  N   UNL     1      -3.302  12.126  19.995  0.00  0.00    +0.000 NA
ATOM     20  C   UNL     1      -3.187  11.707  18.717  0.00  0.00    +0.000 A 
ATOM     21  C   UNL     1      -0.972  12.469  17.852  0.00  0.00    +0.000 C 
ENDROOT
BRANCH   1  22
ATOM     22  C   UNL     1       1.178  13.393  18.509  0.00  0.00    +0.000 C 
BRANCH  22  23
ATOM     23  C   UNL     1       1.825  14.236  19.622  0.00  0.00    +0.000 C 
BRANCH  23  25
ATOM     24  C   UNL     1       3.597  14.354  21.207  0.00  0.00    +0.000 C 
ATOM     25  O   UNL     1       2.891  13.540  20.277  0.00  0.00    +0.000 OA
ENDBRANCH  23  25
ENDBRANCH  22  23
ENDBRANCH   1  22
TORSDOF 3
ENDMDL
MODEL 6
REMARK VINA RESULT:      -5.7      8.183     11.914
REMARK  Name = 
REMARK  5 active torsions:
REMARK  status: ('A' for Active; 'I' for Inactive)
REMARK    1  A    between atoms: C_1  and  O_2
REMARK    2  A    between atoms: O_2  and  C_3
REMARK    3  A    between atoms: C_3  and  C_4
REMARK    4  A    between atoms: C_4  and  N_5
REMARK    5  A    between atoms: C_13  and  C_14
REMARK                            x       y       z     vdW  Elec       q    Type
REMARK                         _______ _______ _______ _____ _____    ______ ____
ROOT
ATOM      1  N   UNL     1       5.314   5.942  15.613  0.00  0.00    +0.000 NA
ATOM      2  C   UNL     1       6.426   6.726  16.143  0.00  0.00    +0.000 C 
ATOM      3  C   UNL     1       6.307   6.659  17.663  0.00  0.00    +0.000 C 
ATOM      4  C   UNL     1       5.398   5.455  17.966  0.00  0.00    +0.000 C 
ATOM      5  C   UNL     1       6.150   4.398  18.788  0.00  0.00    +0.000 C 
ATOM      6  O   UNL     1       5.296   3.278  19.018  0.00  0.00    +0.000 OA
ATOM      7  C   UNL     1       4.230   3.610  19.915  0.00  0.00    +0.000 C 
ATOM      8  C   UNL     1       3.554   4.909  19.598  0.00  0.00    +0.000 A 
ATOM      9  C   UNL     1       2.380   5.321  20.201  0.00  0.00    +0.000 A 
ATOM     10  C   UNL     1       1.647   4.501  21.223  0.00  0.00    +0.000 C 
ATOM     11  N   UNL     1       1.795   6.503  19.912  0.00  0.00    +0.000 NA
ATOM     12  C   UNL     1       2.377   7.316  19.020  0.00  0.00    +0.000 A 
ATOM     13  N   UNL     1       1.814   8.537  18.773  0.00  0.00    +0.000 N 
ATOM     14  C   UNL     1       2.312   9.412  17.717  0.00  0.00    +0.000 C 
ATOM     15  C   UNL     1       2.319  10.856  18.248  0.00  0.00    +0.000 C 
ATOM     16  O   UNL     1       1.024  11.251  18.741  0.00  0.00    +0.000 OA
ATOM     17  C   UNL     1       0.598  10.373  19.800  0.00  0.00    +0.000 C 
ATOM     18  C   UNL     1       0.519   8.911  19.330  0.00  0.00    +0.000 C 
ATOM     19  N   UNL     1       3.526   6.994  18.413  0.00  0.00    +0.000 NA
ATOM     20  C   UNL     1       4.114   5.813  18.703  0.00  0.00    +0.000 A 
ATOM     21  C   UNL     1       5.048   4.876  16.585  0.00  0.00    +0.000 C 
ENDROOT
BRANCH   1  22
ATOM     22  C   UNL     1       5.584   5.406  14.275  0.00  0.00    +0.000 C 
BRANCH  22  23
ATOM     23  C   UNL     1       6.122   3.964  14.298  0.00  0.00    +0.000 C 
BRANCH  23  25
ATOM     24  C   UNL     1       5.546   3.180  12.125  0.00  0.00    +0.000 C 
ATOM     25  O   UNL     1       6.596   3.543  13.014  0.00  0.00    +0.000 OA
ENDBRANCH  23  25
ENDBRANCH  22  23
ENDBRANCH   1  22
TORSDOF 3
ENDMDL
MODEL 7
REMARK VINA RESULT:      -5.7      1.479      1.866
REMARK  Name = 
REMARK  5 active torsions:
REMARK  status: ('A' for Active; 'I' for Inactive)
REMARK    1  A    between atoms: C_1  and  O_2
REMARK    2  A    between atoms: O_2  and  C_3
REMARK    3  A    between atoms: C_3  and  C_4
REMARK    4  A    between atoms: C_4  and  N_5
REMARK    5  A    between atoms: C_13  and  C_14
REMARK                            x       y       z     vdW  Elec       q    Type
REMARK                         _______ _______ _______ _____ _____    ______ ____
ROOT
ATOM      1  N   UNL     1      -3.970  13.152  22.700  0.00  0.00    +0.000 NA
ATOM      2  C   UNL     1      -4.063  14.563  22.334  0.00  0.00    +0.000 C 
ATOM      3  C   UNL     1      -4.025  14.609  20.809  0.00  0.00    +0.000 C 
ATOM      4  C   UNL     1      -4.380  13.190  20.331  0.00  0.00    +0.000 C 
ATOM      5  C   UNL     1      -5.666  13.203  19.493  0.00  0.00    +0.000 C 
ATOM      6  O   UNL     1      -5.991  11.870  19.099  0.00  0.00    +0.000 OA
ATOM      7  C   UNL     1      -5.051  11.365  18.144  0.00  0.00    +0.000 C 
ATOM      8  C   UNL     1      -3.620  11.622  18.507  0.00  0.00    +0.000 A 
ATOM      9  C   UNL     1      -2.553  11.049  17.840  0.00  0.00    +0.000 A 
ATOM     10  C   UNL     1      -2.714  10.092  16.695  0.00  0.00    +0.000 C 
ATOM     11  N   UNL     1      -1.270  11.307  18.174  0.00  0.00    +0.000 NA
ATOM     12  C   UNL     1      -1.017  12.159  19.176  0.00  0.00    +0.000 A 
ATOM     13  N   UNL     1       0.282  12.463  19.473  0.00  0.00    +0.000 N 
ATOM     14  C   UNL     1       0.635  13.270  20.637  0.00  0.00    +0.000 C 
ATOM     15  C   UNL     1       1.753  14.244  20.228  0.00  0.00    +0.000 C 
ATOM     16  O   UNL     1       2.883  13.555  19.659  0.00  0.00    +0.000 OA
ATOM     17  C   UNL     1       2.482  12.802  18.499  0.00  0.00    +0.000 C 
ATOM     18  C   UNL     1       1.396  11.768  18.840  0.00  0.00    +0.000 C 
ATOM     19  N   UNL     1      -1.999  12.769  19.852  0.00  0.00    +0.000 NA
ATOM     20  C   UNL     1      -3.283  12.514  19.517  0.00  0.00    +0.000 A 
ATOM     21  C   UNL     1      -4.618  12.394  21.624  0.00  0.00    +0.000 C 
ENDROOT
BRANCH   1  22
ATOM     22  C   UNL     1      -4.569  12.865  24.008  0.00  0.00    +0.000 C 
BRANCH  22  23
ATOM     23  C   UNL     1      -6.083  13.135  24.053  0.00  0.00    +0.000 C 
BRANCH  23  25
ATOM     24  C   UNL     1      -7.916  11.926  23.132  0.00  0.00    +0.000 C 
ATOM     25  O   UNL     1      -6.848  11.925  24.074  0.00  0.00    +0.000 OA
ENDBRANCH  23  25
ENDBRANCH  22  23
ENDBRANCH   1  22
TORSDOF 3
ENDMDL
MODEL 8
REMARK VINA RESULT:      -5.6      2.562      5.884
REMARK  Name = 
REMARK  5 active torsions:
REMARK  status: ('A' for Active; 'I' for Inactive)
REMARK    1  A    between atoms: C_1  and  O_2
REMARK    2  A    between atoms: O_2  and  C_3
REMARK    3  A    between atoms: C_3  and  C_4
REMARK    4  A    between atoms: C_4  and  N_5
REMARK    5  A    between atoms: C_13  and  C_14
REMARK                            x       y       z     vdW  Elec       q    Type
REMARK                         _______ _______ _______ _____ _____    ______ ____
ROOT
ATOM      1  N   UNL     1      -2.051  11.351  17.611  0.00  0.00    +0.000 NA
ATOM      2  C   UNL     1      -1.221  12.527  17.361  0.00  0.00    +0.000 C 
ATOM      3  C   UNL     1      -0.205  12.580  18.498  0.00  0.00    +0.000 C 
ATOM      4  C   UNL     1      -0.185  11.171  19.116  0.00  0.00    +0.000 C 
ATOM      5  C   UNL     1       1.208  10.538  18.983  0.00  0.00    +0.000 C 
ATOM      6  O   UNL     1       1.186   9.219  19.528  0.00  0.00    +0.000 OA
ATOM      7  C   UNL     1       1.035   9.245  20.952  0.00  0.00    +0.000 C 
ATOM      8  C   UNL     1      -0.031  10.183  21.432  0.00  0.00    +0.000 A 
ATOM      9  C   UNL     1      -0.482  10.215  22.739  0.00  0.00    +0.000 A 
ATOM     10  C   UNL     1       0.034   9.300  23.811  0.00  0.00    +0.000 C 
ATOM     11  N   UNL     1      -1.433  11.079  23.154  0.00  0.00    +0.000 NA
ATOM     12  C   UNL     1      -1.951  11.947  22.275  0.00  0.00    +0.000 A 
ATOM     13  N   UNL     1      -2.871  12.859  22.712  0.00  0.00    +0.000 N 
ATOM     14  C   UNL     1      -3.578  13.739  21.787  0.00  0.00    +0.000 C 
ATOM     15  C   UNL     1      -3.660  15.139  22.419  0.00  0.00    +0.000 C 
ATOM     16  O   UNL     1      -4.260  15.102  23.728  0.00  0.00    +0.000 OA
ATOM     17  C   UNL     1      -3.504  14.245  24.605  0.00  0.00    +0.000 C 
ATOM     18  C   UNL     1      -3.420  12.809  24.062  0.00  0.00    +0.000 C 
ATOM     19  N   UNL     1      -1.547  11.990  21.000  0.00  0.00    +0.000 NA
ATOM     20  C   UNL     1      -0.594  11.128  20.584  0.00  0.00    +0.000 A 
ATOM     21  C   UNL     1      -1.195  10.367  18.282  0.00  0.00    +0.000 C 
ENDROOT
BRANCH   1  22
ATOM     22  C   UNL     1      -2.651  10.809  16.387  0.00  0.00    +0.000 C 
BRANCH  22  23
ATOM     23  C   UNL     1      -4.172  11.028  16.311  0.00  0.00    +0.000 C 
BRANCH  23  25
ATOM     24  C   UNL     1      -5.983  11.554  17.764  0.00  0.00    +0.000 C 
ATOM     25  O   UNL     1      -4.652  11.866  17.368  0.00  0.00    +0.000 OA
ENDBRANCH  23  25
ENDBRANCH  22  23
ENDBRANCH   1  22
TORSDOF 3
ENDMDL
MODEL 9
REMARK VINA RESULT:      -5.6      2.264      5.043
REMARK  Name = 
REMARK  5 active torsions:
REMARK  status: ('A' for Active; 'I' for Inactive)
REMARK    1  A    between atoms: C_1  and  O_2
REMARK    2  A    between atoms: O_2  and  C_3
REMARK    3  A    between atoms: C_3  and  C_4
REMARK    4  A    between atoms: C_4  and  N_5
REMARK    5  A    between atoms: C_13  and  C_14
REMARK                            x       y       z     vdW  Elec       q    Type
REMARK                         _______ _______ _______ _____ _____    ______ ____
ROOT
ATOM      1  N   UNL     1      -6.867  13.226  18.566  0.00  0.00    +0.000 NA
ATOM      2  C   UNL     1      -7.148  11.794  18.495  0.00  0.00    +0.000 C 
ATOM      3  C   UNL     1      -6.767  11.219  19.855  0.00  0.00    +0.000 C 
ATOM      4  C   UNL     1      -6.714  12.414  20.824  0.00  0.00    +0.000 C 
ATOM      5  C   UNL     1      -7.748  12.251  21.947  0.00  0.00    +0.000 C 
ATOM      6  O   UNL     1      -7.704  13.391  22.804  0.00  0.00    +0.000 OA
ATOM      7  C   UNL     1      -6.487  13.430  23.559  0.00  0.00    +0.000 C 
ATOM      8  C   UNL     1      -5.259  13.161  22.743  0.00  0.00    +0.000 A 
ATOM      9  C   UNL     1      -3.975  13.349  23.220  0.00  0.00    +0.000 A 
ATOM     10  C   UNL     1      -3.674  13.862  24.599  0.00  0.00    +0.000 C 
ATOM     11  N   UNL     1      -2.881  13.086  22.473  0.00  0.00    +0.000 NA
ATOM     12  C   UNL     1      -3.040  12.612  21.231  0.00  0.00    +0.000 A 
ATOM     13  N   UNL     1      -1.932  12.291  20.499  0.00  0.00    +0.000 N 
ATOM     14  C   UNL     1      -2.025  11.904  19.094  0.00  0.00    +0.000 C 
ATOM     15  C   UNL     1      -1.056  10.734  18.850  0.00  0.00    +0.000 C 
ATOM     16  O   UNL     1       0.288  11.057  19.256  0.00  0.00    +0.000 OA
ATOM     17  C   UNL     1       0.324  11.400  20.654  0.00  0.00    +0.000 C 
ATOM     18  C   UNL     1      -0.586  12.599  20.969  0.00  0.00    +0.000 C 
ATOM     19  N   UNL     1      -4.253  12.383  20.710  0.00  0.00    +0.000 NA
ATOM     20  C   UNL     1      -5.348  12.643  21.457  0.00  0.00    +0.000 A 
ATOM     21  C   UNL     1      -7.085  13.630  19.959  0.00  0.00    +0.000 C 
ENDROOT
BRANCH   1  22
ATOM     22  C   UNL     1      -7.684  14.011  17.635  0.00  0.00    +0.000 C 
BRANCH  22  23
ATOM     23  C   UNL     1      -6.946  14.364  16.331  0.00  0.00    +0.000 C 
BRANCH  23  25
ATOM     24  C   UNL     1      -7.172  16.630  17.024  0.00  0.00    +0.000 C 
ATOM     25  O   UNL     1      -7.174  15.719  15.930  0.00  0.00    +0.000 OA
ENDBRANCH  23  25
ENDBRANCH  22  23
ENDBRANCH   1  22
TORSDOF 3
ENDMDL
