MODEL 1
REMARK VINA RESULT:      -7.3      0.000      0.000
REMARK  Name = 
REMARK  11 active torsions:
REMARK  status: ('A' for Active; 'I' for Inactive)
REMARK    1  A    between atoms: C_1  and  C_2
REMARK    2  A    between atoms: C_2  and  C_3
REMARK    3  A    between atoms: C_2  and  O_4
REMARK    4  A    between atoms: O_4  and  C_5
REMARK    5  A    between atoms: N_7  and  C_8
REMARK    6  A    between atoms: C_15  and  C_17
REMARK    7  A    between atoms: C_17  and  C_18
REMARK    8  A    between atoms: C_18  and  N_19
REMARK    9  A    between atoms: N_22  and  C_23
REMARK   10  A    between atoms: C_23  and  C_24
REMARK   11  A    between atoms: C_24  and  O_25
REMARK                            x       y       z     vdW  Elec       q    Type
REMARK                         _______ _______ _______ _____ _____    ______ ____
ROOT
ATOM      1  C   UNL     1      -3.771  11.655  17.652  0.00  0.00    +0.000 A 
ATOM      2  C   UNL     1      -3.314  10.577  16.895  0.00  0.00    +0.000 A 
ATOM      3  C   UNL     1      -2.089   9.968  17.166  0.00  0.00    +0.000 A 
ATOM      4  C   UNL     1      -1.267  10.420  18.210  0.00  0.00    +0.000 A 
ATOM      5  C   UNL     1      -1.689  11.523  18.971  0.00  0.00    +0.000 A 
ATOM      6  C   UNL     1      -2.935  12.149  18.662  0.00  0.00    +0.000 A 
ATOM      7  N   UNL     1      -0.996  11.996  20.122  0.00  0.00    +0.000 N 
ATOM      8  C   UNL     1      -0.533  13.306  20.286  0.00  0.00    +0.000 C 
ATOM      9  O   UNL     1      -0.325  13.838  21.377  0.00  0.00    +0.000 OA
ATOM     10  C   UNL     1      -0.607  11.032  21.085  0.00  0.00    +0.000 A 
ATOM     11  C   UNL     1      -1.170  11.057  22.362  0.00  0.00    +0.000 A 
ATOM     12  C   UNL     1      -0.763  10.128  23.319  0.00  0.00    +0.000 A 
ATOM     13  C   UNL     1       0.225   9.194  23.008  0.00  0.00    +0.000 A 
ATOM     14  C   UNL     1       0.812   9.186  21.743  0.00  0.00    +0.000 A 
ATOM     15  C   UNL     1       0.402  10.108  20.773  0.00  0.00    +0.000 A 
ATOM     16  C   UNL     1       1.027  10.132  19.408  0.00  0.00    +0.000 C 
ATOM     17  C   UNL     1       0.031   9.654  18.365  0.00  0.00    +0.000 C 
ENDROOT
BRANCH   1  20
ATOM     18  C   UNL     1      -6.237  11.659  17.866  0.00  0.00    +0.000 C 
ATOM     19  O   UNL     1      -6.352  10.617  18.507  0.00  0.00    +0.000 OA
ATOM     20  N   UNL     1      -5.054  12.221  17.441  0.00  0.00    +0.000 N 
ATOM     21  H   UNL     1      -5.130  13.160  17.075  0.00  0.00    +0.000 HD
BRANCH  18  22
ATOM     22  O   UNL     1      -7.316  12.429  17.533  0.00  0.00    +0.000 OA
BRANCH  22  24
ATOM     23  C   UNL     1      -7.537  14.633  16.537  0.00  0.00    +0.000 C 
ATOM     24  C   UNL     1      -7.093  13.841  17.766  0.00  0.00    +0.000 C 
ATOM     25  C   UNL     1      -7.867  14.299  18.995  0.00  0.00    +0.000 C 
ENDBRANCH  22  24
ENDBRANCH  18  22
ENDBRANCH   1  20
BRANCH   8  26
ATOM     26  C   UNL     1      -0.127  13.978  18.987  0.00  0.00    +0.000 C 
BRANCH  26  27
ATOM     27  C   UNL     1       1.164  14.778  19.149  0.00  0.00    +0.000 C 
BRANCH  27  28
ATOM     28  N   UNL     1       2.346  13.928  19.428  0.00  0.00    +0.000 NA
ATOM     29  C   UNL     1       3.215  13.754  18.245  0.00  0.00    +0.000 C 
ATOM     30  C   UNL     1       3.877  15.071  17.783  0.00  0.00    +0.000 C 
ATOM     31  N   UNL     1       4.719  15.708  18.819  0.00  0.00    +0.000 NA
ATOM     32  C   UNL     1       3.920  15.833  20.071  0.00  0.00    +0.000 C 
ATOM     33  C   UNL     1       3.163  14.543  20.503  0.00  0.00    +0.000 C 
BRANCH  31  34
ATOM     34  C   UNL     1       5.956  14.934  19.080  0.00  0.00    +0.000 C 
BRANCH  34  35
ATOM     35  C   UNL     1       6.687  14.501  17.798  0.00  0.00    +0.000 C 
BRANCH  35  36
ATOM     36  O   UNL     1       7.611  15.500  17.377  0.00  0.00    +0.000 OA
ATOM     37  H   UNL     1       7.608  15.462  16.401  0.00  0.00    +0.000 HD
ENDBRANCH  35  36
ENDBRANCH  34  35
ENDBRANCH  31  34
ENDBRANCH  27  28
ENDBRANCH  26  27
ENDBRANCH   8  26
TORSDOF 9
ENDMDL
MODEL 2
REMARK VINA RESULT:      -7.0      2.910      6.364
REMARK  Name = 
REMARK  11 active torsions:
REMARK  status: ('A' for Active; 'I' for Inactive)
REMARK    1  A    between atoms: C_1  and  C_2
REMARK    2  A    between atoms: C_2  and  C_3
REMARK    3  A    between atoms: C_2  and  O_4
REMARK    4  A    between atoms: O_4  and  C_5
REMARK    5  A    between atoms: N_7  and  C_8
REMARK    6  A    between atoms: C_15  and  C_17
REMARK    7  A    between atoms: C_17  and  C_18
REMARK    8  A    between atoms: C_18  and  N_19
REMARK    9  A    between atoms: N_22  and  C_23
REMARK   10  A    between atoms: C_23  and  C_24
REMARK   11  A    between atoms: C_24  and  O_25
REMARK                            x       y       z     vdW  Elec       q    Type
REMARK                         _______ _______ _______ _____ _____    ______ ____
ROOT
ATOM      1  C   UNL     1       0.926   8.907  21.324  0.00  0.00    +0.000 A 
ATOM      2  C   UNL     1       0.513   8.980  22.653  0.00  0.00    +0.000 A 
ATOM      3  C   UNL     1      -0.326  10.002  23.096  0.00  0.00    +0.000 A 
ATOM      4  C   UNL     1      -0.783  10.999  22.221  0.00  0.00    +0.000 A 
ATOM      5  C   UNL     1      -0.358  10.967  20.882  0.00  0.00    +0.000 A 
ATOM      6  C   UNL     1       0.520   9.926  20.453  0.00  0.00    +0.000 A 
ATOM      7  N   UNL     1      -0.846  11.856  19.881  0.00  0.00    +0.000 N 
ATOM      8  C   UNL     1      -0.037  12.680  19.091  0.00  0.00    +0.000 C 
ATOM      9  O   UNL     1      -0.359  13.117  17.985  0.00  0.00    +0.000 OA
ATOM     10  C   UNL     1      -2.249  12.035  19.801  0.00  0.00    +0.000 A 
ATOM     11  C   UNL     1      -2.942  11.607  18.667  0.00  0.00    +0.000 A 
ATOM     12  C   UNL     1      -4.318  11.813  18.576  0.00  0.00    +0.000 A 
ATOM     13  C   UNL     1      -4.994  12.470  19.603  0.00  0.00    +0.000 A 
ATOM     14  C   UNL     1      -4.300  12.926  20.723  0.00  0.00    +0.000 A 
ATOM     15  C   UNL     1      -2.921  12.715  20.828  0.00  0.00    +0.000 A 
ATOM     16  C   UNL     1      -2.145  13.210  22.015  0.00  0.00    +0.000 C 
ATOM     17  C   UNL     1      -1.679  12.038  22.864  0.00  0.00    +0.000 C 
ENDROOT
BRANCH   1  20
ATOM     18  C   UNL     1       2.182   7.709  19.558  0.00  0.00    +0.000 C 
ATOM     19  O   UNL     1       2.033   8.532  18.658  0.00  0.00    +0.000 OA
ATOM     20  N   UNL     1       1.704   7.822  20.845  0.00  0.00    +0.000 N 
ATOM     21  H   UNL     1       2.059   7.137  21.498  0.00  0.00    +0.000 HD
BRANCH  18  22
ATOM     22  O   UNL     1       2.908   6.564  19.383  0.00  0.00    +0.000 OA
BRANCH  22  24
ATOM     23  C   UNL     1       4.025   5.630  17.439  0.00  0.00    +0.000 C 
ATOM     24  C   UNL     1       2.680   5.944  18.094  0.00  0.00    +0.000 C 
ATOM     25  C   UNL     1       1.865   4.668  18.262  0.00  0.00    +0.000 C 
ENDBRANCH  22  24
ENDBRANCH  18  22
ENDBRANCH   1  20
BRANCH   8  26
ATOM     26  C   UNL     1       1.225  13.152  19.792  0.00  0.00    +0.000 C 
BRANCH  26  27
ATOM     27  C   UNL     1       2.316  13.524  18.790  0.00  0.00    +0.000 C 
BRANCH  27  28
ATOM     28  N   UNL     1       2.530  14.986  18.676  0.00  0.00    +0.000 NA
ATOM     29  C   UNL     1       3.039  15.588  19.926  0.00  0.00    +0.000 C 
ATOM     30  C   UNL     1       4.453  15.093  20.303  0.00  0.00    +0.000 C 
ATOM     31  N   UNL     1       5.475  15.370  19.269  0.00  0.00    +0.000 NA
ATOM     32  C   UNL     1       4.978  14.860  17.961  0.00  0.00    +0.000 C 
ATOM     33  C   UNL     1       3.518  15.266  17.604  0.00  0.00    +0.000 C 
BRANCH  31  34
ATOM     34  C   UNL     1       5.782  16.817  19.169  0.00  0.00    +0.000 C 
BRANCH  34  35
ATOM     35  C   UNL     1       7.219  17.105  18.702  0.00  0.00    +0.000 C 
BRANCH  35  36
ATOM     36  O   UNL     1       7.686  18.343  19.228  0.00  0.00    +0.000 OA
ATOM     37  H   UNL     1       7.473  18.318  20.181  0.00  0.00    +0.000 HD
ENDBRANCH  35  36
ENDBRANCH  34  35
ENDBRANCH  31  34
ENDBRANCH  27  28
ENDBRANCH  26  27
ENDBRANCH   8  26
TORSDOF 9
ENDMDL
MODEL 3
REMARK VINA RESULT:      -6.9      3.273      6.502
REMARK  Name = 
REMARK  11 active torsions:
REMARK  status: ('A' for Active; 'I' for Inactive)
REMARK    1  A    between atoms: C_1  and  C_2
REMARK    2  A    between atoms: C_2  and  C_3
REMARK    3  A    between atoms: C_2  and  O_4
REMARK    4  A    between atoms: O_4  and  C_5
REMARK    5  A    between atoms: N_7  and  C_8
REMARK    6  A    between atoms: C_15  and  C_17
REMARK    7  A    between atoms: C_17  and  C_18
REMARK    8  A    between atoms: C_18  and  N_19
REMARK    9  A    between atoms: N_22  and  C_23
REMARK   10  A    between atoms: C_23  and  C_24
REMARK   11  A    between atoms: C_24  and  O_25
REMARK                            x       y       z     vdW  Elec       q    Type
REMARK                         _______ _______ _______ _____ _____    ______ ____
ROOT
ATOM      1  C   UNL     1       1.356   8.762  20.389  0.00  0.00    +0.000 A 
ATOM      2  C   UNL     1       1.118   8.591  21.752  0.00  0.00    +0.000 A 
ATOM      3  C   UNL     1       0.341   9.499  22.472  0.00  0.00    +0.000 A 
ATOM      4  C   UNL     1      -0.227  10.622  21.852  0.00  0.00    +0.000 A 
ATOM      5  C   UNL     1       0.021  10.835  20.486  0.00  0.00    +0.000 A 
ATOM      6  C   UNL     1       0.838   9.908  19.771  0.00  0.00    +0.000 A 
ATOM      7  N   UNL     1      -0.594  11.873  19.727  0.00  0.00    +0.000 N 
ATOM      8  C   UNL     1       0.104  12.842  18.999  0.00  0.00    +0.000 C 
ATOM      9  O   UNL     1      -0.359  13.458  18.038  0.00  0.00    +0.000 OA
ATOM     10  C   UNL     1      -1.996  12.029  19.859  0.00  0.00    +0.000 A 
ATOM     11  C   UNL     1      -2.829  11.788  18.765  0.00  0.00    +0.000 A 
ATOM     12  C   UNL     1      -4.205  11.973  18.887  0.00  0.00    +0.000 A 
ATOM     13  C   UNL     1      -4.745  12.423  20.091  0.00  0.00    +0.000 A 
ATOM     14  C   UNL     1      -3.912  12.694  21.177  0.00  0.00    +0.000 A 
ATOM     15  C   UNL     1      -2.531  12.501  21.067  0.00  0.00    +0.000 A 
ATOM     16  C   UNL     1      -1.609  12.800  22.214  0.00  0.00    +0.000 C 
ATOM     17  C   UNL     1      -1.035  11.510  22.777  0.00  0.00    +0.000 C 
ENDROOT
BRANCH   1  20
ATOM     18  C   UNL     1       2.074   6.445  19.895  0.00  0.00    +0.000 C 
ATOM     19  O   UNL     1       1.451   5.881  20.791  0.00  0.00    +0.000 OA
ATOM     20  N   UNL     1       2.067   7.797  19.632  0.00  0.00    +0.000 N 
ATOM     21  H   UNL     1       2.500   8.069  18.760  0.00  0.00    +0.000 HD
BRANCH  18  22
ATOM     22  O   UNL     1       2.838   5.755  18.995  0.00  0.00    +0.000 OA
BRANCH  22  24
ATOM     23  C   UNL     1       1.677   4.042  17.724  0.00  0.00    +0.000 C 
ATOM     24  C   UNL     1       2.526   4.341  18.959  0.00  0.00    +0.000 C 
ATOM     25  C   UNL     1       3.808   3.520  18.928  0.00  0.00    +0.000 C 
ENDBRANCH  22  24
ENDBRANCH  18  22
ENDBRANCH   1  20
BRANCH   8  26
ATOM     26  C   UNL     1       1.445  13.216  19.606  0.00  0.00    +0.000 C 
BRANCH  26  27
ATOM     27  C   UNL     1       2.438  13.666  18.537  0.00  0.00    +0.000 C 
BRANCH  27  28
ATOM     28  N   UNL     1       2.741  15.116  18.594  0.00  0.00    +0.000 NA
ATOM     29  C   UNL     1       3.105  15.570  19.952  0.00  0.00    +0.000 C 
ATOM     30  C   UNL     1       4.426  14.953  20.462  0.00  0.00    +0.000 C 
ATOM     31  N   UNL     1       5.593  15.256  19.604  0.00  0.00    +0.000 NA
ATOM     32  C   UNL     1       5.254  14.897  18.198  0.00  0.00    +0.000 C 
ATOM     33  C   UNL     1       3.879  15.426  17.693  0.00  0.00    +0.000 C 
BRANCH  31  34
ATOM     34  C   UNL     1       5.985  16.682  19.685  0.00  0.00    +0.000 C 
BRANCH  34  35
ATOM     35  C   UNL     1       7.464  16.930  19.343  0.00  0.00    +0.000 C 
BRANCH  35  36
ATOM     36  O   UNL     1       7.591  17.871  18.282  0.00  0.00    +0.000 OA
ATOM     37  H   UNL     1       6.719  18.305  18.213  0.00  0.00    +0.000 HD
ENDBRANCH  35  36
ENDBRANCH  34  35
ENDBRANCH  31  34
ENDBRANCH  27  28
ENDBRANCH  26  27
ENDBRANCH   8  26
TORSDOF 9
ENDMDL
MODEL 4
REMARK VINA RESULT:      -6.8      2.393      2.921
REMARK  Name = 
REMARK  11 active torsions:
REMARK  status: ('A' for Active; 'I' for Inactive)
REMARK    1  A    between atoms: C_1  and  C_2
REMARK    2  A    between atoms: C_2  and  C_3
REMARK    3  A    between atoms: C_2  and  O_4
REMARK    4  A    between atoms: O_4  and  C_5
REMARK    5  A    between atoms: N_7  and  C_8
REMARK    6  A    between atoms: C_15  and  C_17
REMARK    7  A    between atoms: C_17  and  C_18
REMARK    8  A    between atoms: C_18  and  N_19
REMARK    9  A    between atoms: N_22  and  C_23
REMARK   10  A    between atoms: C_23  and  C_24
REMARK   11  A    between atoms: C_24  and  O_25
REMARK                            x       y       z     vdW  Elec       q    Type
REMARK                         _______ _______ _______ _____ _____    ______ ____
ROOT
ATOM      1  C   UNL     1      -3.856  12.592  19.794  0.00  0.00    +0.000 A 
ATOM      2  C   UNL     1      -4.160  11.769  18.712  0.00  0.00    +0.000 A 
ATOM      3  C   UNL     1      -3.186  10.970  18.112  0.00  0.00    +0.000 A 
ATOM      4  C   UNL     1      -1.862  10.968  18.574  0.00  0.00    +0.000 A 
ATOM      5  C   UNL     1      -1.520  11.811  19.644  0.00  0.00    +0.000 A 
ATOM      6  C   UNL     1      -2.525  12.640  20.229  0.00  0.00    +0.000 A 
ATOM      7  N   UNL     1      -0.240  11.810  20.269  0.00  0.00    +0.000 N 
ATOM      8  C   UNL     1       0.578  12.937  20.404  0.00  0.00    +0.000 C 
ATOM      9  O   UNL     1       1.448  13.066  21.267  0.00  0.00    +0.000 OA
ATOM     10  C   UNL     1       0.308  10.551  20.622  0.00  0.00    +0.000 A 
ATOM     11  C   UNL     1       0.504  10.231  21.967  0.00  0.00    +0.000 A 
ATOM     12  C   UNL     1       1.072   9.006  22.313  0.00  0.00    +0.000 A 
ATOM     13  C   UNL     1       1.468   8.114  21.316  0.00  0.00    +0.000 A 
ATOM     14  C   UNL     1       1.301   8.444  19.971  0.00  0.00    +0.000 A 
ATOM     15  C   UNL     1       0.722   9.667  19.615  0.00  0.00    +0.000 A 
ATOM     16  C   UNL     1       0.545  10.055  18.175  0.00  0.00    +0.000 C 
ATOM     17  C   UNL     1      -0.930  10.051  17.807  0.00  0.00    +0.000 C 
ENDROOT
BRANCH   1  20
ATOM     18  C   UNL     1      -5.292  13.087  21.749  0.00  0.00    +0.000 C 
ATOM     19  O   UNL     1      -4.861  12.214  22.499  0.00  0.00    +0.000 OA
ATOM     20  N   UNL     1      -4.858  13.338  20.466  0.00  0.00    +0.000 N 
ATOM     21  H   UNL     1      -5.201  14.194  20.055  0.00  0.00    +0.000 HD
BRANCH  18  22
ATOM     22  O   UNL     1      -6.258  13.970  22.142  0.00  0.00    +0.000 OA
BRANCH  22  24
ATOM     23  C   UNL     1      -5.693  15.568  23.881  0.00  0.00    +0.000 C 
ATOM     24  C   UNL     1      -6.273  14.189  23.574  0.00  0.00    +0.000 C 
ATOM     25  C   UNL     1      -7.696  14.085  24.106  0.00  0.00    +0.000 C 
ENDBRANCH  22  24
ENDBRANCH  18  22
ENDBRANCH   1  20
BRANCH   8  26
ATOM     26  C   UNL     1       0.430  13.939  19.273  0.00  0.00    +0.000 C 
BRANCH  26  27
ATOM     27  C   UNL     1       1.754  14.161  18.545  0.00  0.00    +0.000 C 
BRANCH  27  28
ATOM     28  N   UNL     1       2.154  15.587  18.480  0.00  0.00    +0.000 NA
ATOM     29  C   UNL     1       2.600  16.115  19.786  0.00  0.00    +0.000 C 
ATOM     30  C   UNL     1       3.898  15.449  20.296  0.00  0.00    +0.000 C 
ATOM     31  N   UNL     1       5.047  15.606  19.376  0.00  0.00    +0.000 NA
ATOM     32  C   UNL     1       4.629  15.168  18.014  0.00  0.00    +0.000 C 
ATOM     33  C   UNL     1       3.273  15.751  17.519  0.00  0.00    +0.000 C 
BRANCH  31  34
ATOM     34  C   UNL     1       5.534  17.005  19.333  0.00  0.00    +0.000 C 
BRANCH  34  35
ATOM     35  C   UNL     1       7.066  17.121  19.413  0.00  0.00    +0.000 C 
BRANCH  35  36
ATOM     36  O   UNL     1       7.572  17.921  18.349  0.00  0.00    +0.000 OA
ATOM     37  H   UNL     1       7.188  17.544  17.535  0.00  0.00    +0.000 HD
ENDBRANCH  35  36
ENDBRANCH  34  35
ENDBRANCH  31  34
ENDBRANCH  27  28
ENDBRANCH  26  27
ENDBRANCH   8  26
TORSDOF 9
ENDMDL
MODEL 5
REMARK VINA RESULT:      -6.8      2.959      6.348
REMARK  Name = 
REMARK  11 active torsions:
REMARK  status: ('A' for Active; 'I' for Inactive)
REMARK    1  A    between atoms: C_1  and  C_2
REMARK    2  A    between atoms: C_2  and  C_3
REMARK    3  A    between atoms: C_2  and  O_4
REMARK    4  A    between atoms: O_4  and  C_5
REMARK    5  A    between atoms: N_7  and  C_8
REMARK    6  A    between atoms: C_15  and  C_17
REMARK    7  A    between atoms: C_17  and  C_18
REMARK    8  A    between atoms: C_18  and  N_19
REMARK    9  A    between atoms: N_22  and  C_23
REMARK   10  A    between atoms: C_23  and  C_24
REMARK   11  A    between atoms: C_24  and  O_25
REMARK                            x       y       z     vdW  Elec       q    Type
REMARK                         _______ _______ _______ _____ _____    ______ ____
ROOT
ATOM      1  C   UNL     1       0.875   8.984  21.308  0.00  0.00    +0.000 A 
ATOM      2  C   UNL     1       0.463   9.052  22.637  0.00  0.00    +0.000 A 
ATOM      3  C   UNL     1      -0.388  10.065  23.082  0.00  0.00    +0.000 A 
ATOM      4  C   UNL     1      -0.857  11.056  22.207  0.00  0.00    +0.000 A 
ATOM      5  C   UNL     1      -0.435  11.029  20.868  0.00  0.00    +0.000 A 
ATOM      6  C   UNL     1       0.455   9.998  20.437  0.00  0.00    +0.000 A 
ATOM      7  N   UNL     1      -0.934  11.911  19.867  0.00  0.00    +0.000 N 
ATOM      8  C   UNL     1      -0.137  12.744  19.075  0.00  0.00    +0.000 C 
ATOM      9  O   UNL     1      -0.465  13.177  17.970  0.00  0.00    +0.000 OA
ATOM     10  C   UNL     1      -2.340  12.074  19.789  0.00  0.00    +0.000 A 
ATOM     11  C   UNL     1      -3.030  11.637  18.657  0.00  0.00    +0.000 A 
ATOM     12  C   UNL     1      -4.408  11.827  18.568  0.00  0.00    +0.000 A 
ATOM     13  C   UNL     1      -5.090  12.477  19.596  0.00  0.00    +0.000 A 
ATOM     14  C   UNL     1      -4.399  12.942  20.715  0.00  0.00    +0.000 A 
ATOM     15  C   UNL     1      -3.018  12.746  20.817  0.00  0.00    +0.000 A 
ATOM     16  C   UNL     1      -2.245  13.251  22.003  0.00  0.00    +0.000 C 
ATOM     17  C   UNL     1      -1.765  12.085  22.851  0.00  0.00    +0.000 C 
ENDROOT
BRANCH   1  20
ATOM     18  C   UNL     1       2.095   7.772  19.527  0.00  0.00    +0.000 C 
ATOM     19  O   UNL     1       1.889   8.566  18.612  0.00  0.00    +0.000 OA
ATOM     20  N   UNL     1       1.664   7.908  20.828  0.00  0.00    +0.000 N 
ATOM     21  H   UNL     1       2.063   7.251  21.485  0.00  0.00    +0.000 HD
BRANCH  18  22
ATOM     22  O   UNL     1       2.847   6.644  19.354  0.00  0.00    +0.000 OA
BRANCH  22  24
ATOM     23  C   UNL     1       4.121   5.803  17.466  0.00  0.00    +0.000 C 
ATOM     24  C   UNL     1       2.727   6.085  18.023  0.00  0.00    +0.000 C 
ATOM     25  C   UNL     1       1.906   4.803  18.064  0.00  0.00    +0.000 C 
ENDBRANCH  22  24
ENDBRANCH  18  22
ENDBRANCH   1  20
BRANCH   8  26
ATOM     26  C   UNL     1       1.121  13.231  19.773  0.00  0.00    +0.000 C 
BRANCH  26  27
ATOM     27  C   UNL     1       2.004  14.047  18.832  0.00  0.00    +0.000 C 
BRANCH  27  28
ATOM     28  N   UNL     1       3.413  14.136  19.284  0.00  0.00    +0.000 NA
ATOM     29  C   UNL     1       4.324  14.615  18.223  0.00  0.00    +0.000 C 
ATOM     30  C   UNL     1       4.039  16.071  17.794  0.00  0.00    +0.000 C 
ATOM     31  N   UNL     1       4.150  17.049  18.899  0.00  0.00    +0.000 NA
ATOM     32  C   UNL     1       3.315  16.573  20.039  0.00  0.00    +0.000 C 
ATOM     33  C   UNL     1       3.514  15.078  20.426  0.00  0.00    +0.000 C 
BRANCH  31  34
ATOM     34  C   UNL     1       5.553  17.232  19.338  0.00  0.00    +0.000 C 
BRANCH  34  35
ATOM     35  C   UNL     1       5.696  18.153  20.562  0.00  0.00    +0.000 C 
BRANCH  35  36
ATOM     36  O   UNL     1       6.385  17.493  21.618  0.00  0.00    +0.000 OA
ATOM     37  H   UNL     1       7.330  17.692  21.477  0.00  0.00    +0.000 HD
ENDBRANCH  35  36
ENDBRANCH  34  35
ENDBRANCH  31  34
ENDBRANCH  27  28
ENDBRANCH  26  27
ENDBRANCH   8  26
TORSDOF 9
ENDMDL
MODEL 6
REMARK VINA RESULT:      -6.7      2.748      6.253
REMARK  Name = 
REMARK  11 active torsions:
REMARK  status: ('A' for Active; 'I' for Inactive)
REMARK    1  A    between atoms: C_1  and  C_2
REMARK    2  A    between atoms: C_2  and  C_3
REMARK    3  A    between atoms: C_2  and  O_4
REMARK    4  A    between atoms: O_4  and  C_5
REMARK    5  A    between atoms: N_7  and  C_8
REMARK    6  A    between atoms: C_15  and  C_17
REMARK    7  A    between atoms: C_17  and  C_18
REMARK    8  A    between atoms: C_18  and  N_19
REMARK    9  A    between atoms: N_22  and  C_23
REMARK   10  A    between atoms: C_23  and  C_24
REMARK   11  A    between atoms: C_24  and  O_25
REMARK                            x       y       z     vdW  Elec       q    Type
REMARK                         _______ _______ _______ _____ _____    ______ ____
ROOT
ATOM      1  C   UNL     1       0.484   9.132  21.459  0.00  0.00    +0.000 A 
ATOM      2  C   UNL     1       0.140   9.350  22.791  0.00  0.00    +0.000 A 
ATOM      3  C   UNL     1      -0.646  10.440  23.168  0.00  0.00    +0.000 A 
ATOM      4  C   UNL     1      -1.115  11.361  22.220  0.00  0.00    +0.000 A 
ATOM      5  C   UNL     1      -0.759  11.182  20.873  0.00  0.00    +0.000 A 
ATOM      6  C   UNL     1       0.066  10.074  20.509  0.00  0.00    +0.000 A 
ATOM      7  N   UNL     1      -1.268  11.984  19.811  0.00  0.00    +0.000 N 
ATOM      8  C   UNL     1      -0.476  12.698  18.906  0.00  0.00    +0.000 C 
ATOM      9  O   UNL     1      -0.839  13.034  17.778  0.00  0.00    +0.000 OA
ATOM     10  C   UNL     1      -2.668  12.204  19.779  0.00  0.00    +0.000 A 
ATOM     11  C   UNL     1      -3.429  11.690  18.727  0.00  0.00    +0.000 A 
ATOM     12  C   UNL     1      -4.801  11.933  18.680  0.00  0.00    +0.000 A 
ATOM     13  C   UNL     1      -5.406  12.711  19.666  0.00  0.00    +0.000 A 
ATOM     14  C   UNL     1      -4.643  13.252  20.701  0.00  0.00    +0.000 A 
ATOM     15  C   UNL     1      -3.267  13.004  20.763  0.00  0.00    +0.000 A 
ATOM     16  C   UNL     1      -2.419  13.586  21.857  0.00  0.00    +0.000 C 
ATOM     17  C   UNL     1      -1.947  12.488  22.797  0.00  0.00    +0.000 C 
ENDROOT
BRANCH   1  20
ATOM     18  C   UNL     1       1.821   7.829  19.833  0.00  0.00    +0.000 C 
ATOM     19  O   UNL     1       1.864   8.669  18.938  0.00  0.00    +0.000 OA
ATOM     20  N   UNL     1       1.204   7.979  21.056  0.00  0.00    +0.000 N 
ATOM     21  H   UNL     1       1.409   7.258  21.733  0.00  0.00    +0.000 HD
BRANCH  18  22
ATOM     22  O   UNL     1       2.449   6.620  19.724  0.00  0.00    +0.000 OA
BRANCH  22  24
ATOM     23  C   UNL     1       4.151   5.997  18.108  0.00  0.00    +0.000 C 
ATOM     24  C   UNL     1       2.658   6.215  18.349  0.00  0.00    +0.000 C 
ATOM     25  C   UNL     1       1.884   4.937  18.053  0.00  0.00    +0.000 C 
ENDBRANCH  22  24
ENDBRANCH  18  22
ENDBRANCH   1  20
BRANCH   8  26
ATOM     26  C   UNL     1       0.833  13.192  19.496  0.00  0.00    +0.000 C 
BRANCH  26  27
ATOM     27  C   UNL     1       1.216  14.562  18.941  0.00  0.00    +0.000 C 
BRANCH  27  28
ATOM     28  N   UNL     1       2.241  15.258  19.755  0.00  0.00    +0.000 NA
ATOM     29  C   UNL     1       3.470  14.457  19.930  0.00  0.00    +0.000 C 
ATOM     30  C   UNL     1       4.230  14.218  18.607  0.00  0.00    +0.000 C 
ATOM     31  N   UNL     1       4.647  15.466  17.928  0.00  0.00    +0.000 NA
ATOM     32  C   UNL     1       3.460  16.356  17.799  0.00  0.00    +0.000 C 
ATOM     33  C   UNL     1       2.621  16.534  19.099  0.00  0.00    +0.000 C 
BRANCH  31  34
ATOM     34  C   UNL     1       5.728  16.162  18.665  0.00  0.00    +0.000 C 
BRANCH  34  35
ATOM     35  C   UNL     1       7.086  15.444  18.578  0.00  0.00    +0.000 C 
BRANCH  35  36
ATOM     36  O   UNL     1       7.290  14.896  17.280  0.00  0.00    +0.000 OA
ATOM     37  H   UNL     1       7.263  15.657  16.669  0.00  0.00    +0.000 HD
ENDBRANCH  35  36
ENDBRANCH  34  35
ENDBRANCH  31  34
ENDBRANCH  27  28
ENDBRANCH  26  27
ENDBRANCH   8  26
TORSDOF 9
ENDMDL
MODEL 7
REMARK VINA RESULT:      -6.5      3.175      6.562
REMARK  Name = 
REMARK  11 active torsions:
REMARK  status: ('A' for Active; 'I' for Inactive)
REMARK    1  A    between atoms: C_1  and  C_2
REMARK    2  A    between atoms: C_2  and  C_3
REMARK    3  A    between atoms: C_2  and  O_4
REMARK    4  A    between atoms: O_4  and  C_5
REMARK    5  A    between atoms: N_7  and  C_8
REMARK    6  A    between atoms: C_15  and  C_17
REMARK    7  A    between atoms: C_17  and  C_18
REMARK    8  A    between atoms: C_18  and  N_19
REMARK    9  A    between atoms: N_22  and  C_23
REMARK   10  A    between atoms: C_23  and  C_24
REMARK   11  A    between atoms: C_24  and  O_25
REMARK                            x       y       z     vdW  Elec       q    Type
REMARK                         _______ _______ _______ _____ _____    ______ ____
ROOT
ATOM      1  C   UNL     1       0.893   8.796  21.332  0.00  0.00    +0.000 A 
ATOM      2  C   UNL     1       0.495   8.889  22.664  0.00  0.00    +0.000 A 
ATOM      3  C   UNL     1      -0.308   9.939  23.110  0.00  0.00    +0.000 A 
ATOM      4  C   UNL     1      -0.744  10.944  22.233  0.00  0.00    +0.000 A 
ATOM      5  C   UNL     1      -0.335  10.891  20.890  0.00  0.00    +0.000 A 
ATOM      6  C   UNL     1       0.508   9.822  20.458  0.00  0.00    +0.000 A 
ATOM      7  N   UNL     1      -0.805  11.788  19.889  0.00  0.00    +0.000 N 
ATOM      8  C   UNL     1       0.019  12.584  19.086  0.00  0.00    +0.000 C 
ATOM      9  O   UNL     1      -0.301  13.024  17.981  0.00  0.00    +0.000 OA
ATOM     10  C   UNL     1      -2.204  12.009  19.822  0.00  0.00    +0.000 A 
ATOM     11  C   UNL     1      -2.921  11.595  18.698  0.00  0.00    +0.000 A 
ATOM     12  C   UNL     1      -4.290  11.841  18.619  0.00  0.00    +0.000 A 
ATOM     13  C   UNL     1      -4.937  12.524  19.649  0.00  0.00    +0.000 A 
ATOM     14  C   UNL     1      -4.218  12.966  20.759  0.00  0.00    +0.000 A 
ATOM     15  C   UNL     1      -2.844  12.714  20.851  0.00  0.00    +0.000 A 
ATOM     16  C   UNL     1      -2.042  13.193  22.028  0.00  0.00    +0.000 C 
ATOM     17  C   UNL     1      -1.603  12.012  22.879  0.00  0.00    +0.000 C 
ENDROOT
BRANCH   1  20
ATOM     18  C   UNL     1       2.160   7.585  19.583  0.00  0.00    +0.000 C 
ATOM     19  O   UNL     1       2.093   8.441  18.704  0.00  0.00    +0.000 OA
ATOM     20  N   UNL     1       1.633   7.686  20.852  0.00  0.00    +0.000 N 
ATOM     21  H   UNL     1       1.923   6.965  21.497  0.00  0.00    +0.000 HD
BRANCH  18  22
ATOM     22  O   UNL     1       2.833   6.410  19.402  0.00  0.00    +0.000 OA
BRANCH  22  24
ATOM     23  C   UNL     1       4.048   5.571  17.474  0.00  0.00    +0.000 C 
ATOM     24  C   UNL     1       2.672   5.868  18.069  0.00  0.00    +0.000 C 
ATOM     25  C   UNL     1       1.833   4.597  18.116  0.00  0.00    +0.000 C 
ENDBRANCH  22  24
ENDBRANCH  18  22
ENDBRANCH   1  20
BRANCH   8  26
ATOM     26  C   UNL     1       1.301  13.022  19.771  0.00  0.00    +0.000 C 
BRANCH  26  27
ATOM     27  C   UNL     1       1.145  14.390  20.430  0.00  0.00    +0.000 C 
BRANCH  27  28
ATOM     28  N   UNL     1       1.785  15.485  19.662  0.00  0.00    +0.000 NA
ATOM     29  C   UNL     1       1.160  16.800  19.914  0.00  0.00    +0.000 C 
ATOM     30  C   UNL     1       1.344  17.288  21.368  0.00  0.00    +0.000 C 
ATOM     31  N   UNL     1       2.760  17.424  21.775  0.00  0.00    +0.000 NA
ATOM     32  C   UNL     1       3.468  16.149  21.464  0.00  0.00    +0.000 C 
ATOM     33  C   UNL     1       3.218  15.586  20.034  0.00  0.00    +0.000 C 
BRANCH  31  34
ATOM     34  C   UNL     1       3.427  18.556  21.090  0.00  0.00    +0.000 C 
BRANCH  34  35
ATOM     35  C   UNL     1       4.940  18.626  21.356  0.00  0.00    +0.000 C 
BRANCH  35  36
ATOM     36  O   UNL     1       5.672  18.631  20.135  0.00  0.00    +0.000 OA
ATOM     37  H   UNL     1       6.613  18.670  20.395  0.00  0.00    +0.000 HD
ENDBRANCH  35  36
ENDBRANCH  34  35
ENDBRANCH  31  34
ENDBRANCH  27  28
ENDBRANCH  26  27
ENDBRANCH   8  26
TORSDOF 9
ENDMDL
MODEL 8
REMARK VINA RESULT:      -6.5      3.067      6.435
REMARK  Name = 
REMARK  11 active torsions:
REMARK  status: ('A' for Active; 'I' for Inactive)
REMARK    1  A    between atoms: C_1  and  C_2
REMARK    2  A    between atoms: C_2  and  C_3
REMARK    3  A    between atoms: C_2  and  O_4
REMARK    4  A    between atoms: O_4  and  C_5
REMARK    5  A    between atoms: N_7  and  C_8
REMARK    6  A    between atoms: C_15  and  C_17
REMARK    7  A    between atoms: C_17  and  C_18
REMARK    8  A    between atoms: C_18  and  N_19
REMARK    9  A    between atoms: N_22  and  C_23
REMARK   10  A    between atoms: C_23  and  C_24
REMARK   11  A    between atoms: C_24  and  O_25
REMARK                            x       y       z     vdW  Elec       q    Type
REMARK                         _______ _______ _______ _____ _____    ______ ____
ROOT
ATOM      1  C   UNL     1       1.162   8.690  20.458  0.00  0.00    +0.000 A 
ATOM      2  C   UNL     1       1.006   8.587  21.839  0.00  0.00    +0.000 A 
ATOM      3  C   UNL     1       0.318   9.559  22.565  0.00  0.00    +0.000 A 
ATOM      4  C   UNL     1      -0.241  10.680  21.933  0.00  0.00    +0.000 A 
ATOM      5  C   UNL     1      -0.073  10.824  20.546  0.00  0.00    +0.000 A 
ATOM      6  C   UNL     1       0.655   9.831  19.823  0.00  0.00    +0.000 A 
ATOM      7  N   UNL     1      -0.690  11.857  19.783  0.00  0.00    +0.000 N 
ATOM      8  C   UNL     1      -0.000  12.762  18.969  0.00  0.00    +0.000 C 
ATOM      9  O   UNL     1      -0.498  13.358  18.013  0.00  0.00    +0.000 OA
ATOM     10  C   UNL     1      -2.073  12.083  19.996  0.00  0.00    +0.000 A 
ATOM     11  C   UNL     1      -2.986  11.835  18.969  0.00  0.00    +0.000 A 
ATOM     12  C   UNL     1      -4.342  12.088  19.169  0.00  0.00    +0.000 A 
ATOM     13  C   UNL     1      -4.781  12.612  20.384  0.00  0.00    +0.000 A 
ATOM     14  C   UNL     1      -3.869  12.889  21.402  0.00  0.00    +0.000 A 
ATOM     15  C   UNL     1      -2.507  12.629  21.213  0.00  0.00    +0.000 A 
ATOM     16  C   UNL     1      -1.500  12.932  22.286  0.00  0.00    +0.000 C 
ATOM     17  C   UNL     1      -0.947  11.641  22.867  0.00  0.00    +0.000 C 
ENDROOT
BRANCH   1  20
ATOM     18  C   UNL     1       2.405   7.852  18.487  0.00  0.00    +0.000 C 
ATOM     19  O   UNL     1       2.543   8.926  17.907  0.00  0.00    +0.000 OA
ATOM     20  N   UNL     1       1.780   7.662  19.700  0.00  0.00    +0.000 N 
ATOM     21  H   UNL     1       1.902   6.747  20.110  0.00  0.00    +0.000 HD
BRANCH  18  22
ATOM     22  O   UNL     1       2.919   6.687  17.992  0.00  0.00    +0.000 OA
BRANCH  22  24
ATOM     23  C   UNL     1       4.882   5.505  18.795  0.00  0.00    +0.000 C 
ATOM     24  C   UNL     1       4.367   6.678  17.963  0.00  0.00    +0.000 C 
ATOM     25  C   UNL     1       4.863   6.562  16.527  0.00  0.00    +0.000 C 
ENDBRANCH  22  24
ENDBRANCH  18  22
ENDBRANCH   1  20
BRANCH   8  26
ATOM     26  C   UNL     1       1.392  13.098  19.473  0.00  0.00    +0.000 C 
BRANCH  26  27
ATOM     27  C   UNL     1       1.537  14.590  19.766  0.00  0.00    +0.000 C 
BRANCH  27  28
ATOM     28  N   UNL     1       2.745  14.914  20.561  0.00  0.00    +0.000 NA
ATOM     29  C   UNL     1       4.000  14.598  19.848  0.00  0.00    +0.000 C 
ATOM     30  C   UNL     1       4.213  15.463  18.587  0.00  0.00    +0.000 C 
ATOM     31  N   UNL     1       4.255  16.916  18.863  0.00  0.00    +0.000 NA
ATOM     32  C   UNL     1       3.050  17.283  19.659  0.00  0.00    +0.000 C 
ATOM     33  C   UNL     1       2.759  16.364  20.881  0.00  0.00    +0.000 C 
BRANCH  31  34
ATOM     34  C   UNL     1       5.485  17.305  19.592  0.00  0.00    +0.000 C 
BRANCH  34  35
ATOM     35  C   UNL     1       6.779  16.916  18.857  0.00  0.00    +0.000 C 
BRANCH  35  36
ATOM     36  O   UNL     1       7.535  18.072  18.510  0.00  0.00    +0.000 OA
ATOM     37  H   UNL     1       8.034  18.309  19.315  0.00  0.00    +0.000 HD
ENDBRANCH  35  36
ENDBRANCH  34  35
ENDBRANCH  31  34
ENDBRANCH  27  28
ENDBRANCH  26  27
ENDBRANCH   8  26
TORSDOF 9
ENDMDL
MODEL 9
REMARK VINA RESULT:      -6.5      1.497      1.789
REMARK  Name = 
REMARK  11 active torsions:
REMARK  status: ('A' for Active; 'I' for Inactive)
REMARK    1  A    between atoms: C_1  and  C_2
REMARK    2  A    between atoms: C_2  and  C_3
REMARK    3  A    between atoms: C_2  and  O_4
REMARK    4  A    between atoms: O_4  and  C_5
REMARK    5  A    between atoms: N_7  and  C_8
REMARK    6  A    between atoms: C_15  and  C_17
REMARK    7  A    between atoms: C_17  and  C_18
REMARK    8  A    between atoms: C_18  and  N_19
REMARK    9  A    between atoms: N_22  and  C_23
REMARK   10  A    between atoms: C_23  and  C_24
REMARK   11  A    between atoms: C_24  and  O_25
REMARK                            x       y       z     vdW  Elec       q    Type
REMARK                         _______ _______ _______ _____ _____    ______ ____
ROOT
ATOM      1  C   UNL     1      -4.362  12.219  19.085  0.00  0.00    +0.000 A 
ATOM      2  C   UNL     1      -4.314  11.354  17.993  0.00  0.00    +0.000 A 
ATOM      3  C   UNL     1      -3.142  10.679  17.653  0.00  0.00    +0.000 A 
ATOM      4  C   UNL     1      -1.964  10.848  18.397  0.00  0.00    +0.000 A 
ATOM      5  C   UNL     1      -1.975  11.736  19.485  0.00  0.00    +0.000 A 
ATOM      6  C   UNL     1      -3.178  12.437  19.803  0.00  0.00    +0.000 A 
ATOM      7  N   UNL     1      -0.877  11.901  20.377  0.00  0.00    +0.000 N 
ATOM      8  C   UNL     1      -0.253  13.123  20.649  0.00  0.00    +0.000 C 
ATOM      9  O   UNL     1       0.380  13.368  21.677  0.00  0.00    +0.000 OA
ATOM     10  C   UNL     1      -0.275  10.724  20.889  0.00  0.00    +0.000 A 
ATOM     11  C   UNL     1      -0.348  10.443  22.254  0.00  0.00    +0.000 A 
ATOM     12  C   UNL     1       0.272   9.301  22.761  0.00  0.00    +0.000 A 
ATOM     13  C   UNL     1       0.985   8.458  21.909  0.00  0.00    +0.000 A 
ATOM     14  C   UNL     1       1.085   8.753  20.550  0.00  0.00    +0.000 A 
ATOM     15  C   UNL     1       0.458   9.891  20.031  0.00  0.00    +0.000 A 
ATOM     16  C   UNL     1       0.563  10.241  18.574  0.00  0.00    +0.000 C 
ATOM     17  C   UNL     1      -0.781  10.049  17.889  0.00  0.00    +0.000 C 
ENDROOT
BRANCH   1  20
ATOM     18  C   UNL     1      -6.514  12.254  20.309  0.00  0.00    +0.000 C 
ATOM     19  O   UNL     1      -6.433  11.141  20.823  0.00  0.00    +0.000 OA
ATOM     20  N   UNL     1      -5.571  12.838  19.492  0.00  0.00    +0.000 N 
ATOM     21  H   UNL     1      -5.720  13.818  19.294  0.00  0.00    +0.000 HD
BRANCH  18  22
ATOM     22  O   UNL     1      -7.573  13.087  20.541  0.00  0.00    +0.000 OA
BRANCH  22  24
ATOM     23  C   UNL     1      -7.915  15.489  20.441  0.00  0.00    +0.000 C 
ATOM     24  C   UNL     1      -7.179  14.346  21.139  0.00  0.00    +0.000 C 
ATOM     25  C   UNL     1      -7.499  14.344  22.628  0.00  0.00    +0.000 C 
ENDBRANCH  22  24
ENDBRANCH  18  22
ENDBRANCH   1  20
BRANCH   8  26
ATOM     26  C   UNL     1      -0.263  14.089  19.477  0.00  0.00    +0.000 C 
BRANCH  26  27
ATOM     27  C   UNL     1       0.933  15.038  19.524  0.00  0.00    +0.000 C 
BRANCH  27  28
ATOM     28  N   UNL     1       1.987  14.700  18.538  0.00  0.00    +0.000 NA
ATOM     29  C   UNL     1       2.697  15.891  18.029  0.00  0.00    +0.000 C 
ATOM     30  C   UNL     1       3.511  16.622  19.119  0.00  0.00    +0.000 C 
ATOM     31  N   UNL     1       4.541  15.774  19.759  0.00  0.00    +0.000 NA
ATOM     32  C   UNL     1       3.899  14.511  20.220  0.00  0.00    +0.000 C 
ATOM     33  C   UNL     1       2.993  13.807  19.167  0.00  0.00    +0.000 C 
BRANCH  31  34
ATOM     34  C   UNL     1       5.659  15.469  18.835  0.00  0.00    +0.000 C 
BRANCH  34  35
ATOM     35  C   UNL     1       7.008  16.044  19.298  0.00  0.00    +0.000 C 
BRANCH  35  36
ATOM     36  O   UNL     1       7.721  16.615  18.205  0.00  0.00    +0.000 OA
ATOM     37  H   UNL     1       8.527  16.073  18.109  0.00  0.00    +0.000 HD
ENDBRANCH  35  36
ENDBRANCH  34  35
ENDBRANCH  31  34
ENDBRANCH  27  28
ENDBRANCH  26  27
ENDBRANCH   8  26
TORSDOF 9
ENDMDL
