MODEL 1
REMARK VINA RESULT:      -7.7      0.000      0.000
REMARK  Name = 
REMARK  7 active torsions:
REMARK  status: ('A' for Active; 'I' for Inactive)
REMARK    1  A    between atoms: C_1  and  C_2
REMARK    2  A    between atoms: C_2  and  C_3
REMARK    3  A    between atoms: C_3  and  N_4
REMARK    4  A    between atoms: C_7  and  C_8
REMARK    5  A    between atoms: N_10  and  C_11
REMARK    6  A    between atoms: C_11  and  C_12
REMARK    7  A    between atoms: C_11  and  C_13
REMARK                            x       y       z     vdW  Elec       q    Type
REMARK                         _______ _______ _______ _____ _____    ______ ____
ROOT
ATOM      1  N   UNL     1       1.452  12.135  18.831  0.00  0.00    +0.000 N 
ATOM      2  C   UNL     1       2.037  11.061  18.131  0.00  0.00    +0.000 A 
ATOM      3  N   UNL     1       2.792  11.205  17.076  0.00  0.00    +0.000 NA
ATOM      4  C   UNL     1       1.802   9.639  18.595  0.00  0.00    +0.000 A 
ATOM      5  C   UNL     1       0.989   9.496  19.655  0.00  0.00    +0.000 A 
ATOM      6  C   UNL     1       0.382  10.622  20.344  0.00  0.00    +0.000 A 
ATOM      7  C   UNL     1      -0.504  10.368  21.519  0.00  0.00    +0.000 A 
ATOM      8  O   UNL     1      -0.730   9.211  21.883  0.00  0.00    +0.000 OA
ATOM      9  N   UNL     1      -1.028  11.487  22.142  0.00  0.00    +0.000 N 
ATOM     10  C   UNL     1      -1.863  11.334  23.244  0.00  0.00    +0.000 A 
ATOM     11  C   UNL     1      -2.394  12.384  23.882  0.00  0.00    +0.000 A 
ATOM     12  C   UNL     1      -2.099  13.717  23.428  0.00  0.00    +0.000 A 
ATOM     13  C   UNL     1      -1.302  13.910  22.371  0.00  0.00    +0.000 A 
ATOM     14  C   UNL     1      -0.712  12.742  21.658  0.00  0.00    +0.000 A 
ATOM     15  N   UNL     1       0.053  12.959  20.638  0.00  0.00    +0.000 NA
ATOM     16  C   UNL     1       0.614  11.899  19.958  0.00  0.00    +0.000 A 
ATOM     17  H   UNL     1       2.898  12.186  16.825  0.00  0.00    +0.000 HD
ENDROOT
BRANCH   4  18
ATOM     18  C   UNL     1       2.400   8.401  17.986  0.00  0.00    +0.000 C 
ATOM     19  O   UNL     1       2.948   8.414  16.888  0.00  0.00    +0.000 OA
ATOM     20  N   UNL     1       2.267   7.272  18.742  0.00  0.00    +0.000 N 
ATOM     21  H   UNL     1       1.830   7.394  19.659  0.00  0.00    +0.000 HD
BRANCH  20  22
ATOM     22  C   UNL     1       2.825   5.976  18.404  0.00  0.00    +0.000 C 
ATOM     23  C   UNL     1       4.352   5.993  18.515  0.00  0.00    +0.000 C 
BRANCH  22  24
ATOM     24  C   UNL     1       2.217   4.906  19.298  0.00  0.00    +0.000 A 
ATOM     25  C   UNL     1       2.508   4.877  20.670  0.00  0.00    +0.000 A 
ATOM     26  C   UNL     1       1.999   3.862  21.484  0.00  0.00    +0.000 A 
ATOM     27  C   UNL     1       1.191   2.865  20.940  0.00  0.00    +0.000 A 
ATOM     28  C   UNL     1       0.877   2.890  19.583  0.00  0.00    +0.000 A 
ATOM     29  C   UNL     1       1.382   3.905  18.769  0.00  0.00    +0.000 A 
ENDBRANCH  22  24
ENDBRANCH  20  22
ENDBRANCH   4  18
BRANCH   1  30
ATOM     30  C   UNL     1       1.751  13.536  18.464  0.00  0.00    +0.000 C 
BRANCH  30  32
ATOM     31  C   UNL     1       3.830  14.981  18.068  0.00  0.00    +0.000 C 
ATOM     32  C   UNL     1       3.104  14.020  18.999  0.00  0.00    +0.000 C 
ENDBRANCH  30  32
ENDBRANCH   1  30
TORSDOF 5
ENDMDL
MODEL 2
REMARK VINA RESULT:      -7.7      3.065      3.890
REMARK  Name = 
REMARK  7 active torsions:
REMARK  status: ('A' for Active; 'I' for Inactive)
REMARK    1  A    between atoms: C_1  and  C_2
REMARK    2  A    between atoms: C_2  and  C_3
REMARK    3  A    between atoms: C_3  and  N_4
REMARK    4  A    between atoms: C_7  and  C_8
REMARK    5  A    between atoms: N_10  and  C_11
REMARK    6  A    between atoms: C_11  and  C_12
REMARK    7  A    between atoms: C_11  and  C_13
REMARK                            x       y       z     vdW  Elec       q    Type
REMARK                         _______ _______ _______ _____ _____    ______ ____
ROOT
ATOM      1  N   UNL     1      -0.392  11.031  20.362  0.00  0.00    +0.000 N 
ATOM      2  C   UNL     1       0.699  10.253  19.928  0.00  0.00    +0.000 A 
ATOM      3  N   UNL     1       1.791  10.079  20.623  0.00  0.00    +0.000 NA
ATOM      4  C   UNL     1       0.647   9.558  18.584  0.00  0.00    +0.000 A 
ATOM      5  C   UNL     1      -0.462   9.777  17.856  0.00  0.00    +0.000 A 
ATOM      6  C   UNL     1      -1.563  10.603  18.320  0.00  0.00    +0.000 A 
ATOM      7  C   UNL     1      -2.759  10.784  17.445  0.00  0.00    +0.000 A 
ATOM      8  O   UNL     1      -2.797  10.253  16.333  0.00  0.00    +0.000 OA
ATOM      9  N   UNL     1      -3.780  11.564  17.960  0.00  0.00    +0.000 N 
ATOM     10  C   UNL     1      -4.929  11.780  17.206  0.00  0.00    +0.000 A 
ATOM     11  C   UNL     1      -5.944  12.525  17.660  0.00  0.00    +0.000 A 
ATOM     12  C   UNL     1      -5.862  13.123  18.966  0.00  0.00    +0.000 A 
ATOM     13  C   UNL     1      -4.774  12.942  19.725  0.00  0.00    +0.000 A 
ATOM     14  C   UNL     1      -3.641  12.115  19.220  0.00  0.00    +0.000 A 
ATOM     15  N   UNL     1      -2.603  11.960  19.974  0.00  0.00    +0.000 NA
ATOM     16  C   UNL     1      -1.539  11.200  19.535  0.00  0.00    +0.000 A 
ATOM     17  H   UNL     1       1.753  10.580  21.508  0.00  0.00    +0.000 HD
ENDROOT
BRANCH   4  18
ATOM     18  C   UNL     1       1.705   8.656  18.013  0.00  0.00    +0.000 C 
ATOM     19  O   UNL     1       2.469   9.027  17.127  0.00  0.00    +0.000 OA
ATOM     20  N   UNL     1       1.731   7.399  18.545  0.00  0.00    +0.000 N 
ATOM     21  H   UNL     1       1.074   7.220  19.308  0.00  0.00    +0.000 HD
BRANCH  20  22
ATOM     22  C   UNL     1       2.706   6.377  18.213  0.00  0.00    +0.000 C 
ATOM     23  C   UNL     1       4.046   6.657  18.897  0.00  0.00    +0.000 C 
BRANCH  22  24
ATOM     24  C   UNL     1       2.165   5.007  18.595  0.00  0.00    +0.000 A 
ATOM     25  C   UNL     1       1.561   4.806  19.845  0.00  0.00    +0.000 A 
ATOM     26  C   UNL     1       1.115   3.537  20.224  0.00  0.00    +0.000 A 
ATOM     27  C   UNL     1       1.265   2.454  19.358  0.00  0.00    +0.000 A 
ATOM     28  C   UNL     1       1.845   2.641  18.106  0.00  0.00    +0.000 A 
ATOM     29  C   UNL     1       2.288   3.909  17.726  0.00  0.00    +0.000 A 
ENDBRANCH  22  24
ENDBRANCH  20  22
ENDBRANCH   4  18
BRANCH   1  30
ATOM     30  C   UNL     1      -0.410  11.631  21.713  0.00  0.00    +0.000 C 
BRANCH  30  32
ATOM     31  C   UNL     1      -0.196   9.644  23.317  0.00  0.00    +0.000 C 
ATOM     32  C   UNL     1      -1.092  10.739  22.756  0.00  0.00    +0.000 C 
ENDBRANCH  30  32
ENDBRANCH   1  30
TORSDOF 5
ENDMDL
MODEL 3
REMARK VINA RESULT:      -7.7      2.850      9.093
REMARK  Name = 
REMARK  7 active torsions:
REMARK  status: ('A' for Active; 'I' for Inactive)
REMARK    1  A    between atoms: C_1  and  C_2
REMARK    2  A    between atoms: C_2  and  C_3
REMARK    3  A    between atoms: C_3  and  N_4
REMARK    4  A    between atoms: C_7  and  C_8
REMARK    5  A    between atoms: N_10  and  C_11
REMARK    6  A    between atoms: C_11  and  C_12
REMARK    7  A    between atoms: C_11  and  C_13
REMARK                            x       y       z     vdW  Elec       q    Type
REMARK                         _______ _______ _______ _____ _____    ______ ____
ROOT
ATOM      1  N   UNL     1       2.918   4.848  19.499  0.00  0.00    +0.000 N 
ATOM      2  C   UNL     1       2.185   5.862  20.144  0.00  0.00    +0.000 A 
ATOM      3  N   UNL     1       1.473   5.673  21.222  0.00  0.00    +0.000 NA
ATOM      4  C   UNL     1       2.194   7.271  19.591  0.00  0.00    +0.000 A 
ATOM      5  C   UNL     1       2.893   7.450  18.457  0.00  0.00    +0.000 A 
ATOM      6  C   UNL     1       3.623   6.378  17.801  0.00  0.00    +0.000 A 
ATOM      7  C   UNL     1       4.379   6.671  16.547  0.00  0.00    +0.000 A 
ATOM      8  O   UNL     1       4.363   7.807  16.067  0.00  0.00    +0.000 OA
ATOM      9  N   UNL     1       5.070   5.610  15.989  0.00  0.00    +0.000 N 
ATOM     10  C   UNL     1       5.800   5.802  14.820  0.00  0.00    +0.000 A 
ATOM     11  C   UNL     1       6.486   4.808  14.242  0.00  0.00    +0.000 A 
ATOM     12  C   UNL     1       6.482   3.499  14.838  0.00  0.00    +0.000 A 
ATOM     13  C   UNL     1       5.793   3.270  15.962  0.00  0.00    +0.000 A 
ATOM     14  C   UNL     1       5.026   4.374  16.605  0.00  0.00    +0.000 A 
ATOM     15  N   UNL     1       4.368   4.122  17.689  0.00  0.00    +0.000 NA
ATOM     16  C   UNL     1       3.649   5.123  18.308  0.00  0.00    +0.000 A 
ATOM     17  H   UNL     1       1.513   4.703  21.529  0.00  0.00    +0.000 HD
ENDROOT
BRANCH   4  18
ATOM     18  C   UNL     1       1.508   8.465  20.197  0.00  0.00    +0.000 C 
ATOM     19  O   UNL     1       1.324   8.566  21.406  0.00  0.00    +0.000 OA
ATOM     20  N   UNL     1       1.098   9.405  19.296  0.00  0.00    +0.000 N 
ATOM     21  H   UNL     1       1.346   9.231  18.319  0.00  0.00    +0.000 HD
BRANCH  20  22
ATOM     22  C   UNL     1       0.483  10.673  19.642  0.00  0.00    +0.000 C 
ATOM     23  C   UNL     1       1.412  11.841  19.299  0.00  0.00    +0.000 C 
BRANCH  22  24
ATOM     24  C   UNL     1      -0.857  10.805  18.936  0.00  0.00    +0.000 A 
ATOM     25  C   UNL     1      -1.827  11.699  19.414  0.00  0.00    +0.000 A 
ATOM     26  C   UNL     1      -3.081  11.781  18.803  0.00  0.00    +0.000 A 
ATOM     27  C   UNL     1      -3.381  10.975  17.706  0.00  0.00    +0.000 A 
ATOM     28  C   UNL     1      -2.423  10.097  17.208  0.00  0.00    +0.000 A 
ATOM     29  C   UNL     1      -1.169  10.015  17.815  0.00  0.00    +0.000 A 
ENDBRANCH  22  24
ENDBRANCH  20  22
ENDBRANCH   4  18
BRANCH   1  30
ATOM     30  C   UNL     1       3.013   3.491  20.078  0.00  0.00    +0.000 C 
BRANCH  30  32
ATOM     31  C   UNL     1       1.096   2.601  18.627  0.00  0.00    +0.000 C 
ATOM     32  C   UNL     1       1.687   2.723  20.025  0.00  0.00    +0.000 C 
ENDBRANCH  30  32
ENDBRANCH   1  30
TORSDOF 5
ENDMDL
MODEL 4
REMARK VINA RESULT:      -7.4      1.880      3.133
REMARK  Name = 
REMARK  7 active torsions:
REMARK  status: ('A' for Active; 'I' for Inactive)
REMARK    1  A    between atoms: C_1  and  C_2
REMARK    2  A    between atoms: C_2  and  C_3
REMARK    3  A    between atoms: C_3  and  N_4
REMARK    4  A    between atoms: C_7  and  C_8
REMARK    5  A    between atoms: N_10  and  C_11
REMARK    6  A    between atoms: C_11  and  C_12
REMARK    7  A    between atoms: C_11  and  C_13
REMARK                            x       y       z     vdW  Elec       q    Type
REMARK                         _______ _______ _______ _____ _____    ______ ____
ROOT
ATOM      1  N   UNL     1       1.342  10.205  18.756  0.00  0.00    +0.000 N 
ATOM      2  C   UNL     1       1.910   8.926  18.598  0.00  0.00    +0.000 A 
ATOM      3  N   UNL     1       2.589   8.556  17.546  0.00  0.00    +0.000 NA
ATOM      4  C   UNL     1       1.747   7.886  19.687  0.00  0.00    +0.000 A 
ATOM      5  C   UNL     1       1.010   8.260  20.747  0.00  0.00    +0.000 A 
ATOM      6  C   UNL     1       0.418   9.581  20.872  0.00  0.00    +0.000 A 
ATOM      7  C   UNL     1      -0.381   9.910  22.090  0.00  0.00    +0.000 A 
ATOM      8  O   UNL     1      -0.551   9.058  22.966  0.00  0.00    +0.000 OA
ATOM      9  N   UNL     1      -0.895  11.193  22.155  0.00  0.00    +0.000 N 
ATOM     10  C   UNL     1      -1.651  11.577  23.258  0.00  0.00    +0.000 A 
ATOM     11  C   UNL     1      -2.169  12.807  23.368  0.00  0.00    +0.000 A 
ATOM     12  C   UNL     1      -1.942  13.772  22.325  0.00  0.00    +0.000 A 
ATOM     13  C   UNL     1      -1.222  13.444  21.246  0.00  0.00    +0.000 A 
ATOM     14  C   UNL     1      -0.648  12.075  21.120  0.00  0.00    +0.000 A 
ATOM     15  N   UNL     1       0.042  11.786  20.065  0.00  0.00    +0.000 NA
ATOM     16  C   UNL     1       0.587  10.528  19.920  0.00  0.00    +0.000 A 
ATOM     17  H   UNL     1       2.650   9.305  16.860  0.00  0.00    +0.000 HD
ENDROOT
BRANCH   4  18
ATOM     18  C   UNL     1       2.338   6.503  19.685  0.00  0.00    +0.000 C 
ATOM     19  O   UNL     1       2.397   5.819  20.701  0.00  0.00    +0.000 OA
ATOM     20  N   UNL     1       2.812   6.087  18.474  0.00  0.00    +0.000 N 
ATOM     21  H   UNL     1       2.667   6.728  17.690  0.00  0.00    +0.000 HD
BRANCH  20  22
ATOM     22  C   UNL     1       3.356   4.769  18.204  0.00  0.00    +0.000 C 
ATOM     23  C   UNL     1       2.311   3.875  17.532  0.00  0.00    +0.000 C 
BRANCH  22  24
ATOM     24  C   UNL     1       4.609   4.895  17.351  0.00  0.00    +0.000 A 
ATOM     25  C   UNL     1       5.538   5.916  17.600  0.00  0.00    +0.000 A 
ATOM     26  C   UNL     1       6.661   6.071  16.783  0.00  0.00    +0.000 A 
ATOM     27  C   UNL     1       6.871   5.207  15.709  0.00  0.00    +0.000 A 
ATOM     28  C   UNL     1       5.968   4.177  15.460  0.00  0.00    +0.000 A 
ATOM     29  C   UNL     1       4.848   4.019  16.277  0.00  0.00    +0.000 A 
ENDBRANCH  22  24
ENDBRANCH  20  22
ENDBRANCH   4  18
BRANCH   1  30
ATOM     30  C   UNL     1       1.576  11.271  17.758  0.00  0.00    +0.000 C 
BRANCH  30  32
ATOM     31  C   UNL     1       2.410  13.664  18.136  0.00  0.00    +0.000 C 
ATOM     32  C   UNL     1       2.755  12.182  18.119  0.00  0.00    +0.000 C 
ENDBRANCH  30  32
ENDBRANCH   1  30
TORSDOF 5
ENDMDL
MODEL 5
REMARK VINA RESULT:      -7.4      1.866      3.203
REMARK  Name = 
REMARK  7 active torsions:
REMARK  status: ('A' for Active; 'I' for Inactive)
REMARK    1  A    between atoms: C_1  and  C_2
REMARK    2  A    between atoms: C_2  and  C_3
REMARK    3  A    between atoms: C_3  and  N_4
REMARK    4  A    between atoms: C_7  and  C_8
REMARK    5  A    between atoms: N_10  and  C_11
REMARK    6  A    between atoms: C_11  and  C_12
REMARK    7  A    between atoms: C_11  and  C_13
REMARK                            x       y       z     vdW  Elec       q    Type
REMARK                         _______ _______ _______ _____ _____    ______ ____
ROOT
ATOM      1  N   UNL     1       1.330   9.985  18.833  0.00  0.00    +0.000 N 
ATOM      2  C   UNL     1       1.888   8.696  18.734  0.00  0.00    +0.000 A 
ATOM      3  N   UNL     1       2.562   8.272  17.700  0.00  0.00    +0.000 NA
ATOM      4  C   UNL     1       1.720   7.710  19.871  0.00  0.00    +0.000 A 
ATOM      5  C   UNL     1       0.988   8.138  20.914  0.00  0.00    +0.000 A 
ATOM      6  C   UNL     1       0.406   9.468  20.978  0.00  0.00    +0.000 A 
ATOM      7  C   UNL     1      -0.388   9.859  22.181  0.00  0.00    +0.000 A 
ATOM      8  O   UNL     1      -0.562   9.051  23.096  0.00  0.00    +0.000 OA
ATOM      9  N   UNL     1      -0.893  11.147  22.186  0.00  0.00    +0.000 N 
ATOM     10  C   UNL     1      -1.643  11.589  23.271  0.00  0.00    +0.000 A 
ATOM     11  C   UNL     1      -2.152  12.826  23.324  0.00  0.00    +0.000 A 
ATOM     12  C   UNL     1      -1.921  13.739  22.237  0.00  0.00    +0.000 A 
ATOM     13  C   UNL     1      -1.206  13.356  21.173  0.00  0.00    +0.000 A 
ATOM     14  C   UNL     1      -0.642  11.978  21.110  0.00  0.00    +0.000 A 
ATOM     15  N   UNL     1       0.044  11.635  20.069  0.00  0.00    +0.000 NA
ATOM     16  C   UNL     1       0.579  10.368  19.982  0.00  0.00    +0.000 A 
ATOM     17  H   UNL     1       2.627   8.987  16.979  0.00  0.00    +0.000 HD
ENDROOT
BRANCH   4  18
ATOM     18  C   UNL     1       2.301   6.324  19.933  0.00  0.00    +0.000 C 
ATOM     19  O   UNL     1       2.318   5.671  20.971  0.00  0.00    +0.000 OA
ATOM     20  N   UNL     1       2.816   5.868  18.754  0.00  0.00    +0.000 N 
ATOM     21  H   UNL     1       2.705   6.485  17.946  0.00  0.00    +0.000 HD
BRANCH  20  22
ATOM     22  C   UNL     1       3.360   4.539  18.544  0.00  0.00    +0.000 C 
ATOM     23  C   UNL     1       2.474   3.730  17.593  0.00  0.00    +0.000 C 
BRANCH  22  24
ATOM     24  C   UNL     1       4.784   4.644  18.020  0.00  0.00    +0.000 A 
ATOM     25  C   UNL     1       5.094   4.225  16.718  0.00  0.00    +0.000 A 
ATOM     26  C   UNL     1       6.411   4.265  16.252  0.00  0.00    +0.000 A 
ATOM     27  C   UNL     1       7.434   4.725  17.079  0.00  0.00    +0.000 A 
ATOM     28  C   UNL     1       7.140   5.162  18.368  0.00  0.00    +0.000 A 
ATOM     29  C   UNL     1       5.825   5.126  18.833  0.00  0.00    +0.000 A 
ENDBRANCH  22  24
ENDBRANCH  20  22
ENDBRANCH   4  18
BRANCH   1  30
ATOM     30  C   UNL     1       1.569  11.001  17.786  0.00  0.00    +0.000 C 
BRANCH  30  32
ATOM     31  C   UNL     1       2.338  13.427  18.088  0.00  0.00    +0.000 C 
ATOM     32  C   UNL     1       2.720  11.954  18.126  0.00  0.00    +0.000 C 
ENDBRANCH  30  32
ENDBRANCH   1  30
TORSDOF 5
ENDMDL
MODEL 6
REMARK VINA RESULT:      -7.4      3.187      3.923
REMARK  Name = 
REMARK  7 active torsions:
REMARK  status: ('A' for Active; 'I' for Inactive)
REMARK    1  A    between atoms: C_1  and  C_2
REMARK    2  A    between atoms: C_2  and  C_3
REMARK    3  A    between atoms: C_3  and  N_4
REMARK    4  A    between atoms: C_7  and  C_8
REMARK    5  A    between atoms: N_10  and  C_11
REMARK    6  A    between atoms: C_11  and  C_12
REMARK    7  A    between atoms: C_11  and  C_13
REMARK                            x       y       z     vdW  Elec       q    Type
REMARK                         _______ _______ _______ _____ _____    ______ ____
ROOT
ATOM      1  N   UNL     1      -0.727  11.023  20.369  0.00  0.00    +0.000 N 
ATOM      2  C   UNL     1       0.399  10.277  19.970  0.00  0.00    +0.000 A 
ATOM      3  N   UNL     1       1.444  10.075  20.727  0.00  0.00    +0.000 NA
ATOM      4  C   UNL     1       0.444   9.654  18.591  0.00  0.00    +0.000 A 
ATOM      5  C   UNL     1      -0.615   9.903  17.802  0.00  0.00    +0.000 A 
ATOM      6  C   UNL     1      -1.754  10.695  18.234  0.00  0.00    +0.000 A 
ATOM      7  C   UNL     1      -2.891  10.914  17.290  0.00  0.00    +0.000 A 
ATOM      8  O   UNL     1      -2.848  10.442  16.151  0.00  0.00    +0.000 OA
ATOM      9  N   UNL     1      -3.952  11.657  17.775  0.00  0.00    +0.000 N 
ATOM     10  C   UNL     1      -5.050  11.905  16.958  0.00  0.00    +0.000 A 
ATOM     11  C   UNL     1      -6.102  12.617  17.381  0.00  0.00    +0.000 A 
ATOM     12  C   UNL     1      -6.114  13.145  18.719  0.00  0.00    +0.000 A 
ATOM     13  C   UNL     1      -5.078  12.932  19.539  0.00  0.00    +0.000 A 
ATOM     14  C   UNL     1      -3.905  12.142  19.069  0.00  0.00    +0.000 A 
ATOM     15  N   UNL     1      -2.918  11.954  19.882  0.00  0.00    +0.000 NA
ATOM     16  C   UNL     1      -1.819  11.227  19.477  0.00  0.00    +0.000 A 
ATOM     17  H   UNL     1       1.341  10.527  21.633  0.00  0.00    +0.000 HD
ENDROOT
BRANCH   4  18
ATOM     18  C   UNL     1       1.548   8.791  18.045  0.00  0.00    +0.000 C 
ATOM     19  O   UNL     1       2.347   9.205  17.211  0.00  0.00    +0.000 OA
ATOM     20  N   UNL     1       1.575   7.519  18.540  0.00  0.00    +0.000 N 
ATOM     21  H   UNL     1       0.885   7.303  19.263  0.00  0.00    +0.000 HD
BRANCH  20  22
ATOM     22  C   UNL     1       2.586   6.527  18.225  0.00  0.00    +0.000 C 
ATOM     23  C   UNL     1       3.930   6.898  18.858  0.00  0.00    +0.000 C 
BRANCH  22  24
ATOM     24  C   UNL     1       2.119   5.154  18.682  0.00  0.00    +0.000 A 
ATOM     25  C   UNL     1       2.085   4.079  17.781  0.00  0.00    +0.000 A 
ATOM     26  C   UNL     1       1.603   2.830  18.181  0.00  0.00    +0.000 A 
ATOM     27  C   UNL     1       1.149   2.638  19.485  0.00  0.00    +0.000 A 
ATOM     28  C   UNL     1       1.193   3.690  20.397  0.00  0.00    +0.000 A 
ATOM     29  C   UNL     1       1.679   4.937  20.000  0.00  0.00    +0.000 A 
ENDBRANCH  22  24
ENDBRANCH  20  22
ENDBRANCH   4  18
BRANCH   1  30
ATOM     30  C   UNL     1      -0.842  11.550  21.746  0.00  0.00    +0.000 C 
BRANCH  30  32
ATOM     31  C   UNL     1      -1.068  13.922  22.691  0.00  0.00    +0.000 C 
ATOM     32  C   UNL     1      -0.209  12.936  21.911  0.00  0.00    +0.000 C 
ENDBRANCH  30  32
ENDBRANCH   1  30
TORSDOF 5
ENDMDL
MODEL 7
REMARK VINA RESULT:      -7.4      1.728      3.008
REMARK  Name = 
REMARK  7 active torsions:
REMARK  status: ('A' for Active; 'I' for Inactive)
REMARK    1  A    between atoms: C_1  and  C_2
REMARK    2  A    between atoms: C_2  and  C_3
REMARK    3  A    between atoms: C_3  and  N_4
REMARK    4  A    between atoms: C_7  and  C_8
REMARK    5  A    between atoms: N_10  and  C_11
REMARK    6  A    between atoms: C_11  and  C_12
REMARK    7  A    between atoms: C_11  and  C_13
REMARK                            x       y       z     vdW  Elec       q    Type
REMARK                         _______ _______ _______ _____ _____    ______ ____
ROOT
ATOM      1  N   UNL     1       1.162  10.699  18.892  0.00  0.00    +0.000 N 
ATOM      2  C   UNL     1       1.675   9.398  18.721  0.00  0.00    +0.000 A 
ATOM      3  N   UNL     1       2.326   9.005  17.660  0.00  0.00    +0.000 NA
ATOM      4  C   UNL     1       1.481   8.360  19.807  0.00  0.00    +0.000 A 
ATOM      5  C   UNL     1       0.772   8.759  20.877  0.00  0.00    +0.000 A 
ATOM      6  C   UNL     1       0.237  10.102  21.015  0.00  0.00    +0.000 A 
ATOM      7  C   UNL     1      -0.534  10.458  22.244  0.00  0.00    +0.000 A 
ATOM      8  O   UNL     1      -0.728   9.610  23.119  0.00  0.00    +0.000 OA
ATOM      9  N   UNL     1      -0.993  11.761  22.321  0.00  0.00    +0.000 N 
ATOM     10  C   UNL     1      -1.720  12.171  23.434  0.00  0.00    +0.000 A 
ATOM     11  C   UNL     1      -2.185  13.420  23.556  0.00  0.00    +0.000 A 
ATOM     12  C   UNL     1      -1.930  14.380  22.515  0.00  0.00    +0.000 A 
ATOM     13  C   UNL     1      -1.237  14.028  21.426  0.00  0.00    +0.000 A 
ATOM     14  C   UNL     1      -0.721  12.637  21.287  0.00  0.00    +0.000 A 
ATOM     15  N   UNL     1      -0.056  12.325  20.223  0.00  0.00    +0.000 NA
ATOM     16  C   UNL     1       0.434  11.046  20.066  0.00  0.00    +0.000 A 
ATOM     17  H   UNL     1       2.410   9.754  16.976  0.00  0.00    +0.000 HD
ENDROOT
BRANCH   4  18
ATOM     18  C   UNL     1       2.014   6.954  19.792  0.00  0.00    +0.000 C 
ATOM     19  O   UNL     1       2.151   6.298  20.820  0.00  0.00    +0.000 OA
ATOM     20  N   UNL     1       2.344   6.482  18.555  0.00  0.00    +0.000 N 
ATOM     21  H   UNL     1       2.145   7.105  17.768  0.00  0.00    +0.000 HD
BRANCH  20  22
ATOM     22  C   UNL     1       2.805   5.135  18.276  0.00  0.00    +0.000 C 
ATOM     23  C   UNL     1       1.659   4.262  17.757  0.00  0.00    +0.000 C 
BRANCH  22  24
ATOM     24  C   UNL     1       3.958   5.181  17.285  0.00  0.00    +0.000 A 
ATOM     25  C   UNL     1       4.426   4.002  16.684  0.00  0.00    +0.000 A 
ATOM     26  C   UNL     1       5.522   4.032  15.818  0.00  0.00    +0.000 A 
ATOM     27  C   UNL     1       6.163   5.237  15.539  0.00  0.00    +0.000 A 
ATOM     28  C   UNL     1       5.700   6.419  16.112  0.00  0.00    +0.000 A 
ATOM     29  C   UNL     1       4.603   6.391  16.975  0.00  0.00    +0.000 A 
ENDBRANCH  22  24
ENDBRANCH  20  22
ENDBRANCH   4  18
BRANCH   1  30
ATOM     30  C   UNL     1       1.429  11.758  17.896  0.00  0.00    +0.000 C 
BRANCH  30  32
ATOM     31  C   UNL     1       2.511  14.055  18.246  0.00  0.00    +0.000 C 
ATOM     32  C   UNL     1       2.710  12.547  18.189  0.00  0.00    +0.000 C 
ENDBRANCH  30  32
ENDBRANCH   1  30
TORSDOF 5
ENDMDL
MODEL 8
REMARK VINA RESULT:      -7.3      1.417      1.726
REMARK  Name = 
REMARK  7 active torsions:
REMARK  status: ('A' for Active; 'I' for Inactive)
REMARK    1  A    between atoms: C_1  and  C_2
REMARK    2  A    between atoms: C_2  and  C_3
REMARK    3  A    between atoms: C_3  and  N_4
REMARK    4  A    between atoms: C_7  and  C_8
REMARK    5  A    between atoms: N_10  and  C_11
REMARK    6  A    between atoms: C_11  and  C_12
REMARK    7  A    between atoms: C_11  and  C_13
REMARK                            x       y       z     vdW  Elec       q    Type
REMARK                         _______ _______ _______ _____ _____    ______ ____
ROOT
ATOM      1  N   UNL     1       2.058  13.093  19.309  0.00  0.00    +0.000 N 
ATOM      2  C   UNL     1       2.154  11.936  18.513  0.00  0.00    +0.000 A 
ATOM      3  N   UNL     1       2.961  11.819  17.493  0.00  0.00    +0.000 NA
ATOM      4  C   UNL     1       1.290  10.732  18.821  0.00  0.00    +0.000 A 
ATOM      5  C   UNL     1       0.431  10.875  19.845  0.00  0.00    +0.000 A 
ATOM      6  C   UNL     1       0.338  12.091  20.635  0.00  0.00    +0.000 A 
ATOM      7  C   UNL     1      -0.642  12.157  21.760  0.00  0.00    +0.000 A 
ATOM      8  O   UNL     1      -1.377  11.195  21.996  0.00  0.00    +0.000 OA
ATOM      9  N   UNL     1      -0.660  13.335  22.485  0.00  0.00    +0.000 N 
ATOM     10  C   UNL     1      -1.546  13.476  23.549  0.00  0.00    +0.000 A 
ATOM     11  C   UNL     1      -1.600  14.594  24.282  0.00  0.00    +0.000 A 
ATOM     12  C   UNL     1      -0.721  15.691  23.975  0.00  0.00    +0.000 A 
ATOM     13  C   UNL     1       0.145  15.599  22.960  0.00  0.00    +0.000 A 
ATOM     14  C   UNL     1       0.206  14.356  22.141  0.00  0.00    +0.000 A 
ATOM     15  N   UNL     1       1.051  14.297  21.164  0.00  0.00    +0.000 NA
ATOM     16  C   UNL     1       1.131  13.159  20.389  0.00  0.00    +0.000 A 
ATOM     17  H   UNL     1       3.504  12.668  17.348  0.00  0.00    +0.000 HD
ENDROOT
BRANCH   4  18
ATOM     18  C   UNL     1       1.320   9.413  18.098  0.00  0.00    +0.000 C 
ATOM     19  O   UNL     1       0.396   9.043  17.379  0.00  0.00    +0.000 OA
ATOM     20  N   UNL     1       2.440   8.666  18.320  0.00  0.00    +0.000 N 
ATOM     21  H   UNL     1       3.161   9.098  18.903  0.00  0.00    +0.000 HD
BRANCH  20  22
ATOM     22  C   UNL     1       2.733   7.398  17.678  0.00  0.00    +0.000 C 
ATOM     23  C   UNL     1       4.229   7.270  17.380  0.00  0.00    +0.000 C 
BRANCH  22  24
ATOM     24  C   UNL     1       2.242   6.254  18.552  0.00  0.00    +0.000 A 
ATOM     25  C   UNL     1       2.212   6.389  19.948  0.00  0.00    +0.000 A 
ATOM     26  C   UNL     1       1.817   5.322  20.758  0.00  0.00    +0.000 A 
ATOM     27  C   UNL     1       1.446   4.107  20.185  0.00  0.00    +0.000 A 
ATOM     28  C   UNL     1       1.452   3.962  18.800  0.00  0.00    +0.000 A 
ATOM     29  C   UNL     1       1.843   5.029  17.990  0.00  0.00    +0.000 A 
ENDBRANCH  22  24
ENDBRANCH  20  22
ENDBRANCH   4  18
BRANCH   1  30
ATOM     30  C   UNL     1       2.965  14.242  19.096  0.00  0.00    +0.000 C 
BRANCH  30  32
ATOM     31  C   UNL     1       3.411  16.002  17.288  0.00  0.00    +0.000 C 
ATOM     32  C   UNL     1       2.377  15.304  18.160  0.00  0.00    +0.000 C 
ENDBRANCH  30  32
ENDBRANCH   1  30
TORSDOF 5
ENDMDL
MODEL 9
REMARK VINA RESULT:      -7.3      2.924      8.944
REMARK  Name = 
REMARK  7 active torsions:
REMARK  status: ('A' for Active; 'I' for Inactive)
REMARK    1  A    between atoms: C_1  and  C_2
REMARK    2  A    between atoms: C_2  and  C_3
REMARK    3  A    between atoms: C_3  and  N_4
REMARK    4  A    between atoms: C_7  and  C_8
REMARK    5  A    between atoms: N_10  and  C_11
REMARK    6  A    between atoms: C_11  and  C_12
REMARK    7  A    between atoms: C_11  and  C_13
REMARK                            x       y       z     vdW  Elec       q    Type
REMARK                         _______ _______ _______ _____ _____    ______ ____
ROOT
ATOM      1  N   UNL     1       2.764   5.506  19.876  0.00  0.00    +0.000 N 
ATOM      2  C   UNL     1       1.974   6.570  20.354  0.00  0.00    +0.000 A 
ATOM      3  N   UNL     1       1.267   6.516  21.450  0.00  0.00    +0.000 NA
ATOM      4  C   UNL     1       1.912   7.871  19.583  0.00  0.00    +0.000 A 
ATOM      5  C   UNL     1       2.607   7.903  18.433  0.00  0.00    +0.000 A 
ATOM      6  C   UNL     1       3.395   6.781  17.954  0.00  0.00    +0.000 A 
ATOM      7  C   UNL     1       4.142   6.910  16.667  0.00  0.00    +0.000 A 
ATOM      8  O   UNL     1       4.068   7.953  16.012  0.00  0.00    +0.000 OA
ATOM      9  N   UNL     1       4.890   5.812  16.282  0.00  0.00    +0.000 N 
ATOM     10  C   UNL     1       5.615   5.853  15.096  0.00  0.00    +0.000 A 
ATOM     11  C   UNL     1       6.356   4.818  14.681  0.00  0.00    +0.000 A 
ATOM     12  C   UNL     1       6.418   3.622  15.478  0.00  0.00    +0.000 A 
ATOM     13  C   UNL     1       5.736   3.539  16.626  0.00  0.00    +0.000 A 
ATOM     14  C   UNL     1       4.908   4.689  17.088  0.00  0.00    +0.000 A 
ATOM     15  N   UNL     1       4.258   4.579  18.200  0.00  0.00    +0.000 NA
ATOM     16  C   UNL     1       3.485   5.626  18.654  0.00  0.00    +0.000 A 
ATOM     17  H   UNL     1       1.357   5.611  21.908  0.00  0.00    +0.000 HD
ENDROOT
BRANCH   4  18
ATOM     18  C   UNL     1       1.160   9.107  19.993  0.00  0.00    +0.000 C 
ATOM     19  O   UNL     1       1.193   9.539  21.142  0.00  0.00    +0.000 OA
ATOM     20  N   UNL     1       0.436   9.692  18.996  0.00  0.00    +0.000 N 
ATOM     21  H   UNL     1       0.521   9.267  18.069  0.00  0.00    +0.000 HD
BRANCH  20  22
ATOM     22  C   UNL     1      -0.308  10.932  19.126  0.00  0.00    +0.000 C 
ATOM     23  C   UNL     1       0.546  12.128  18.698  0.00  0.00    +0.000 C 
BRANCH  22  24
ATOM     24  C   UNL     1      -1.592  10.849  18.316  0.00  0.00    +0.000 A 
ATOM     25  C   UNL     1      -1.713   9.922  17.269  0.00  0.00    +0.000 A 
ATOM     26  C   UNL     1      -2.868   9.882  16.484  0.00  0.00    +0.000 A 
ATOM     27  C   UNL     1      -3.917  10.764  16.735  0.00  0.00    +0.000 A 
ATOM     28  C   UNL     1      -3.821  11.677  17.782  0.00  0.00    +0.000 A 
ATOM     29  C   UNL     1      -2.669  11.716  18.569  0.00  0.00    +0.000 A 
ENDBRANCH  22  24
ENDBRANCH  20  22
ENDBRANCH   4  18
BRANCH   1  30
ATOM     30  C   UNL     1       2.926   4.265  20.663  0.00  0.00    +0.000 C 
BRANCH  30  32
ATOM     31  C   UNL     1       0.690   3.225  19.963  0.00  0.00    +0.000 C 
ATOM     32  C   UNL     1       2.202   3.064  20.045  0.00  0.00    +0.000 C 
ENDBRANCH  30  32
ENDBRANCH   1  30
TORSDOF 5
ENDMDL
