MODEL 1
REMARK VINA RESULT:      -8.3      0.000      0.000
REMARK  Name = 
REMARK  8 active torsions:
REMARK  status: ('A' for Active; 'I' for Inactive)
REMARK    1  A    between atoms: C_1  and  O_2
REMARK    2  A    between atoms: O_2  and  C_3
REMARK    3  A    between atoms: C_5  and  C_6
REMARK    4  A    between atoms: C_7  and  C_8
REMARK    5  A    between atoms: C_8  and  C_10
REMARK    6  A    between atoms: C_14  and  N_15
REMARK    7  A    between atoms: C_16  and  C_18
REMARK    8  A    between atoms: C_29  and  O_30
REMARK                            x       y       z     vdW  Elec       q    Type
REMARK                         _______ _______ _______ _____ _____    ______ ____
ROOT
ATOM      1  C   UNL     1       1.216   9.504  19.224  0.00  0.00    +0.000 A 
ATOM      2  C   UNL     1       0.882   8.984  20.484  0.00  0.00    +0.000 A 
ATOM      3  C   UNL     1       1.338   7.726  20.866  0.00  0.00    +0.000 A 
ATOM      4  C   UNL     1       2.160   6.994  20.012  0.00  0.00    +0.000 A 
ATOM      5  C   UNL     1       2.539   7.511  18.770  0.00  0.00    +0.000 A 
ATOM      6  C   UNL     1       2.045   8.761  18.366  0.00  0.00    +0.000 A 
ENDROOT
BRANCH   5   7
ATOM      7  N   UNL     1       3.395   6.809  17.891  0.00  0.00    +0.000 N 
ATOM      8  C   UNL     1       4.394   5.916  18.267  0.00  0.00    +0.000 C 
ATOM      9  O   UNL     1       4.715   5.667  19.424  0.00  0.00    +0.000 OA
ATOM     10  H   UNL     1       3.399   7.129  16.930  0.00  0.00    +0.000 HD
BRANCH   8  11
ATOM     11  C   UNL     1       5.140   5.252  17.158  0.00  0.00    +0.000 A 
ATOM     12  C   UNL     1       4.664   4.084  16.532  0.00  0.00    +0.000 A 
ATOM     13 CL   UNL     1       3.149   3.337  16.920  0.00  0.00    +0.000 Cl
ATOM     14  C   UNL     1       5.398   3.466  15.511  0.00  0.00    +0.000 A 
ATOM     15  C   UNL     1       6.595   4.019  15.070  0.00  0.00    +0.000 A 
ATOM     16  C   UNL     1       7.061   5.195  15.647  0.00  0.00    +0.000 A 
ATOM     17  C   UNL     1       6.347   5.810  16.687  0.00  0.00    +0.000 A 
ATOM     18 CL   UNL     1       7.084   7.227  17.356  0.00  0.00    +0.000 Cl
ENDBRANCH   8  11
ENDBRANCH   5   7
BRANCH   1  19
ATOM     19  C   UNL     1       0.733  10.853  18.805  0.00  0.00    +0.000 C 
ATOM     20  O   UNL     1       1.483  11.821  18.801  0.00  0.00    +0.000 OA
BRANCH  19  22
ATOM     21  C   UNL     1      -1.600  11.701  18.984  0.00  0.00    +0.000 C 
ATOM     22  C   UNL     1      -0.687  10.943  18.357  0.00  0.00    +0.000 C 
BRANCH  21  25
ATOM     23  C   UNL     1      -5.363  12.215  19.132  0.00  0.00    +0.000 A 
ATOM     24  C   UNL     1      -3.997  12.184  19.475  0.00  0.00    +0.000 A 
ATOM     25  C   UNL     1      -3.018  11.743  18.573  0.00  0.00    +0.000 A 
ATOM     26  C   UNL     1      -3.428  11.368  17.288  0.00  0.00    +0.000 A 
ATOM     27  C   UNL     1      -4.778  11.385  16.933  0.00  0.00    +0.000 A 
ATOM     28  C   UNL     1      -5.743  11.799  17.852  0.00  0.00    +0.000 A 
BRANCH  23  30
ATOM     29  C   UNL     1      -5.604  12.755  21.453  0.00  0.00    +0.000 C 
ATOM     30  O   UNL     1      -6.164  12.664  20.149  0.00  0.00    +0.000 OA
ENDBRANCH  23  30
BRANCH  28  31
ATOM     31  O   UNL     1      -7.053  11.783  17.459  0.00  0.00    +0.000 OA
ATOM     32  H   UNL     1      -7.122  11.361  16.586  0.00  0.00    +0.000 HD
ENDBRANCH  28  31
ENDBRANCH  21  25
ENDBRANCH  19  22
ENDBRANCH   1  19
TORSDOF 7
ENDMDL
MODEL 2
REMARK VINA RESULT:      -8.1      0.557      1.775
REMARK  Name = 
REMARK  8 active torsions:
REMARK  status: ('A' for Active; 'I' for Inactive)
REMARK    1  A    between atoms: C_1  and  O_2
REMARK    2  A    between atoms: O_2  and  C_3
REMARK    3  A    between atoms: C_5  and  C_6
REMARK    4  A    between atoms: C_7  and  C_8
REMARK    5  A    between atoms: C_8  and  C_10
REMARK    6  A    between atoms: C_14  and  N_15
REMARK    7  A    between atoms: C_16  and  C_18
REMARK    8  A    between atoms: C_29  and  O_30
REMARK                            x       y       z     vdW  Elec       q    Type
REMARK                         _______ _______ _______ _____ _____    ______ ____
ROOT
ATOM      1  C   UNL     1       1.157   8.941  19.779  0.00  0.00    +0.000 A 
ATOM      2  C   UNL     1       0.866   8.250  20.964  0.00  0.00    +0.000 A 
ATOM      3  C   UNL     1       1.368   6.968  21.169  0.00  0.00    +0.000 A 
ATOM      4  C   UNL     1       2.194   6.383  20.213  0.00  0.00    +0.000 A 
ATOM      5  C   UNL     1       2.532   7.071  19.043  0.00  0.00    +0.000 A 
ATOM      6  C   UNL     1       1.991   8.346  18.817  0.00  0.00    +0.000 A 
ENDROOT
BRANCH   5   7
ATOM      7  N   UNL     1       3.390   6.519  18.066  0.00  0.00    +0.000 N 
ATOM      8  C   UNL     1       4.544   5.782  18.317  0.00  0.00    +0.000 C 
ATOM      9  O   UNL     1       5.013   5.569  19.430  0.00  0.00    +0.000 OA
ATOM     10  H   UNL     1       3.250   6.850  17.118  0.00  0.00    +0.000 HD
BRANCH   8  11
ATOM     11  C   UNL     1       5.266   5.256  17.122  0.00  0.00    +0.000 A 
ATOM     12  C   UNL     1       6.449   5.851  16.642  0.00  0.00    +0.000 A 
ATOM     13 CL   UNL     1       7.229   7.193  17.414  0.00  0.00    +0.000 Cl
ATOM     14  C   UNL     1       7.092   5.352  15.502  0.00  0.00    +0.000 A 
ATOM     15  C   UNL     1       6.593   4.234  14.843  0.00  0.00    +0.000 A 
ATOM     16  C   UNL     1       5.449   3.608  15.326  0.00  0.00    +0.000 A 
ATOM     17  C   UNL     1       4.782   4.112  16.453  0.00  0.00    +0.000 A 
ATOM     18 CL   UNL     1       3.334   3.272  16.895  0.00  0.00    +0.000 Cl
ENDBRANCH   8  11
ENDBRANCH   5   7
BRANCH   1  19
ATOM     19  C   UNL     1       0.625  10.318  19.549  0.00  0.00    +0.000 C 
ATOM     20  O   UNL     1       1.352  11.299  19.626  0.00  0.00    +0.000 OA
BRANCH  19  22
ATOM     21  C   UNL     1      -1.307  11.416  18.428  0.00  0.00    +0.000 C 
ATOM     22  C   UNL     1      -0.818  10.421  19.185  0.00  0.00    +0.000 C 
BRANCH  21  25
ATOM     23  C   UNL     1      -5.013  12.152  18.844  0.00  0.00    +0.000 A 
ATOM     24  C   UNL     1      -3.630  12.035  19.090  0.00  0.00    +0.000 A 
ATOM     25  C   UNL     1      -2.745  11.547  18.118  0.00  0.00    +0.000 A 
ATOM     26  C   UNL     1      -3.265  11.213  16.862  0.00  0.00    +0.000 A 
ATOM     27  C   UNL     1      -4.633  11.314  16.602  0.00  0.00    +0.000 A 
ATOM     28  C   UNL     1      -5.506  11.774  17.590  0.00  0.00    +0.000 A 
BRANCH  23  30
ATOM     29  C   UNL     1      -4.995  13.341  20.922  0.00  0.00    +0.000 C 
ATOM     30  O   UNL     1      -5.712  12.634  19.918  0.00  0.00    +0.000 OA
ENDBRANCH  23  30
BRANCH  28  31
ATOM     31  O   UNL     1      -6.838  11.840  17.290  0.00  0.00    +0.000 OA
ATOM     32  H   UNL     1      -7.154  12.749  17.425  0.00  0.00    +0.000 HD
ENDBRANCH  28  31
ENDBRANCH  21  25
ENDBRANCH  19  22
ENDBRANCH   1  19
TORSDOF 7
ENDMDL
MODEL 3
REMARK VINA RESULT:      -8.1      5.045     11.014
REMARK  Name = 
REMARK  8 active torsions:
REMARK  status: ('A' for Active; 'I' for Inactive)
REMARK    1  A    between atoms: C_1  and  O_2
REMARK    2  A    between atoms: O_2  and  C_3
REMARK    3  A    between atoms: C_5  and  C_6
REMARK    4  A    between atoms: C_7  and  C_8
REMARK    5  A    between atoms: C_8  and  C_10
REMARK    6  A    between atoms: C_14  and  N_15
REMARK    7  A    between atoms: C_16  and  C_18
REMARK    8  A    between atoms: C_29  and  O_30
REMARK                            x       y       z     vdW  Elec       q    Type
REMARK                         _______ _______ _______ _____ _____    ______ ____
ROOT
ATOM      1  C   UNL     1       0.500   9.915  20.626  0.00  0.00    +0.000 A 
ATOM      2  C   UNL     1       0.841   9.043  21.670  0.00  0.00    +0.000 A 
ATOM      3  C   UNL     1       0.276   9.207  22.932  0.00  0.00    +0.000 A 
ATOM      4  C   UNL     1      -0.660  10.215  23.150  0.00  0.00    +0.000 A 
ATOM      5  C   UNL     1      -1.046  11.068  22.112  0.00  0.00    +0.000 A 
ATOM      6  C   UNL     1      -0.445  10.931  20.851  0.00  0.00    +0.000 A 
ENDROOT
BRANCH   5   7
ATOM      7  N   UNL     1      -2.014  12.082  22.291  0.00  0.00    +0.000 N 
ATOM      8  C   UNL     1      -1.832  13.266  22.999  0.00  0.00    +0.000 C 
ATOM      9  O   UNL     1      -0.822  13.561  23.627  0.00  0.00    +0.000 OA
ATOM     10  H   UNL     1      -2.964  11.833  22.041  0.00  0.00    +0.000 HD
BRANCH   8  11
ATOM     11  C   UNL     1      -2.985  14.214  23.010  0.00  0.00    +0.000 A 
ATOM     12  C   UNL     1      -2.981  15.402  22.253  0.00  0.00    +0.000 A 
ATOM     13 CL   UNL     1      -1.694  15.855  21.185  0.00  0.00    +0.000 Cl
ATOM     14  C   UNL     1      -4.066  16.288  22.302  0.00  0.00    +0.000 A 
ATOM     15  C   UNL     1      -5.185  15.991  23.071  0.00  0.00    +0.000 A 
ATOM     16  C   UNL     1      -5.224  14.803  23.793  0.00  0.00    +0.000 A 
ATOM     17  C   UNL     1      -4.134  13.919  23.772  0.00  0.00    +0.000 A 
ATOM     18 CL   UNL     1      -4.297  12.516  24.775  0.00  0.00    +0.000 Cl
ENDBRANCH   8  11
ENDBRANCH   5   7
BRANCH   1  19
ATOM     19  C   UNL     1       1.098   9.747  19.268  0.00  0.00    +0.000 C 
ATOM     20  O   UNL     1       1.080  10.659  18.451  0.00  0.00    +0.000 OA
BRANCH  19  22
ATOM     21  C   UNL     1       2.689   8.279  18.039  0.00  0.00    +0.000 C 
ATOM     22  C   UNL     1       1.746   8.435  18.983  0.00  0.00    +0.000 C 
BRANCH  21  25
ATOM     23  C   UNL     1       3.198   4.516  17.872  0.00  0.00    +0.000 A 
ATOM     24  C   UNL     1       2.649   5.787  18.132  0.00  0.00    +0.000 A 
ATOM     25  C   UNL     1       3.287   6.967  17.721  0.00  0.00    +0.000 A 
ATOM     26  C   UNL     1       4.480   6.852  16.997  0.00  0.00    +0.000 A 
ATOM     27  C   UNL     1       5.043   5.602  16.737  0.00  0.00    +0.000 A 
ATOM     28  C   UNL     1       4.410   4.438  17.178  0.00  0.00    +0.000 A 
BRANCH  23  30
ATOM     29  C   UNL     1       2.757   2.971  19.649  0.00  0.00    +0.000 C 
ATOM     30  O   UNL     1       2.436   3.489  18.363  0.00  0.00    +0.000 OA
ENDBRANCH  23  30
BRANCH  28  31
ATOM     31  O   UNL     1       5.011   3.239  16.910  0.00  0.00    +0.000 OA
ATOM     32  H   UNL     1       5.253   2.807  17.746  0.00  0.00    +0.000 HD
ENDBRANCH  28  31
ENDBRANCH  21  25
ENDBRANCH  19  22
ENDBRANCH   1  19
TORSDOF 7
ENDMDL
MODEL 4
REMARK VINA RESULT:      -8.0      4.584     10.452
REMARK  Name = 
REMARK  8 active torsions:
REMARK  status: ('A' for Active; 'I' for Inactive)
REMARK    1  A    between atoms: C_1  and  O_2
REMARK    2  A    between atoms: O_2  and  C_3
REMARK    3  A    between atoms: C_5  and  C_6
REMARK    4  A    between atoms: C_7  and  C_8
REMARK    5  A    between atoms: C_8  and  C_10
REMARK    6  A    between atoms: C_14  and  N_15
REMARK    7  A    between atoms: C_16  and  C_18
REMARK    8  A    between atoms: C_29  and  O_30
REMARK                            x       y       z     vdW  Elec       q    Type
REMARK                         _______ _______ _______ _____ _____    ______ ____
ROOT
ATOM      1  C   UNL     1       0.148  10.271  18.355  0.00  0.00    +0.000 A 
ATOM      2  C   UNL     1      -0.940   9.771  17.627  0.00  0.00    +0.000 A 
ATOM      3  C   UNL     1      -2.238  10.149  17.958  0.00  0.00    +0.000 A 
ATOM      4  C   UNL     1      -2.457  11.057  18.991  0.00  0.00    +0.000 A 
ATOM      5  C   UNL     1      -1.383  11.601  19.703  0.00  0.00    +0.000 A 
ATOM      6  C   UNL     1      -0.077  11.186  19.397  0.00  0.00    +0.000 A 
ENDROOT
BRANCH   5   7
ATOM      7  N   UNL     1      -1.565  12.546  20.737  0.00  0.00    +0.000 N 
ATOM      8  C   UNL     1      -1.200  12.377  22.070  0.00  0.00    +0.000 C 
ATOM      9  O   UNL     1      -0.729  11.350  22.544  0.00  0.00    +0.000 OA
ATOM     10  H   UNL     1      -2.178  13.324  20.520  0.00  0.00    +0.000 HD
BRANCH   8  11
ATOM     11  C   UNL     1      -1.446  13.537  22.975  0.00  0.00    +0.000 A 
ATOM     12  C   UNL     1      -0.570  14.638  23.033  0.00  0.00    +0.000 A 
ATOM     13 CL   UNL     1       0.830  14.804  22.024  0.00  0.00    +0.000 Cl
ATOM     14  C   UNL     1      -0.811  15.702  23.912  0.00  0.00    +0.000 A 
ATOM     15  C   UNL     1      -1.943  15.708  24.719  0.00  0.00    +0.000 A 
ATOM     16  C   UNL     1      -2.842  14.650  24.646  0.00  0.00    +0.000 A 
ATOM     17  C   UNL     1      -2.599  13.566  23.787  0.00  0.00    +0.000 A 
ATOM     18 CL   UNL     1      -3.767  12.289  23.856  0.00  0.00    +0.000 Cl
ENDBRANCH   8  11
ENDBRANCH   5   7
BRANCH   1  19
ATOM     19  C   UNL     1       1.545   9.873  18.007  0.00  0.00    +0.000 C 
ATOM     20  O   UNL     1       2.431  10.709  17.887  0.00  0.00    +0.000 OA
BRANCH  19  22
ATOM     21  C   UNL     1       2.949   7.831  18.248  0.00  0.00    +0.000 C 
ATOM     22  C   UNL     1       1.803   8.411  17.857  0.00  0.00    +0.000 C 
BRANCH  21  25
ATOM     23  C   UNL     1       2.381   4.098  17.820  0.00  0.00    +0.000 A 
ATOM     24  C   UNL     1       2.162   5.480  17.986  0.00  0.00    +0.000 A 
ATOM     25  C   UNL     1       3.223   6.395  18.045  0.00  0.00    +0.000 A 
ATOM     26  C   UNL     1       4.525   5.903  17.890  0.00  0.00    +0.000 A 
ATOM     27  C   UNL     1       4.762   4.537  17.732  0.00  0.00    +0.000 A 
ATOM     28  C   UNL     1       3.696   3.635  17.704  0.00  0.00    +0.000 A 
BRANCH  23  30
ATOM     29  C   UNL     1       0.880   2.621  18.962  0.00  0.00    +0.000 C 
ATOM     30  O   UNL     1       1.222   3.367  17.800  0.00  0.00    +0.000 OA
ENDBRANCH  23  30
BRANCH  28  31
ATOM     31  O   UNL     1       3.983   2.306  17.563  0.00  0.00    +0.000 OA
ATOM     32  H   UNL     1       4.802   2.207  17.050  0.00  0.00    +0.000 HD
ENDBRANCH  28  31
ENDBRANCH  21  25
ENDBRANCH  19  22
ENDBRANCH   1  19
TORSDOF 7
ENDMDL
MODEL 5
REMARK VINA RESULT:      -8.0      4.881     11.200
REMARK  Name = 
REMARK  8 active torsions:
REMARK  status: ('A' for Active; 'I' for Inactive)
REMARK    1  A    between atoms: C_1  and  O_2
REMARK    2  A    between atoms: O_2  and  C_3
REMARK    3  A    between atoms: C_5  and  C_6
REMARK    4  A    between atoms: C_7  and  C_8
REMARK    5  A    between atoms: C_8  and  C_10
REMARK    6  A    between atoms: C_14  and  N_15
REMARK    7  A    between atoms: C_16  and  C_18
REMARK    8  A    between atoms: C_29  and  O_30
REMARK                            x       y       z     vdW  Elec       q    Type
REMARK                         _______ _______ _______ _____ _____    ______ ____
ROOT
ATOM      1  C   UNL     1       0.208  10.144  20.765  0.00  0.00    +0.000 A 
ATOM      2  C   UNL     1       0.498   9.310  21.854  0.00  0.00    +0.000 A 
ATOM      3  C   UNL     1      -0.074   9.558  23.098  0.00  0.00    +0.000 A 
ATOM      4  C   UNL     1      -0.968  10.614  23.255  0.00  0.00    +0.000 A 
ATOM      5  C   UNL     1      -1.304  11.432  22.173  0.00  0.00    +0.000 A 
ATOM      6  C   UNL     1      -0.694  11.210  20.929  0.00  0.00    +0.000 A 
ENDROOT
BRANCH   5   7
ATOM      7  N   UNL     1      -2.229  12.494  22.289  0.00  0.00    +0.000 N 
ATOM      8  C   UNL     1      -3.287  12.558  23.192  0.00  0.00    +0.000 C 
ATOM      9  O   UNL     1      -3.603  11.663  23.968  0.00  0.00    +0.000 OA
ATOM     10  H   UNL     1      -2.227  13.166  21.531  0.00  0.00    +0.000 HD
BRANCH   8  11
ATOM     11  C   UNL     1      -4.104  13.806  23.166  0.00  0.00    +0.000 A 
ATOM     12  C   UNL     1      -3.959  14.814  24.139  0.00  0.00    +0.000 A 
ATOM     13 CL   UNL     1      -2.784  14.757  25.411  0.00  0.00    +0.000 Cl
ATOM     14  C   UNL     1      -4.758  15.964  24.105  0.00  0.00    +0.000 A 
ATOM     15  C   UNL     1      -5.687  16.149  23.087  0.00  0.00    +0.000 A 
ATOM     16  C   UNL     1      -5.816  15.184  22.095  0.00  0.00    +0.000 A 
ATOM     17  C   UNL     1      -5.038  14.016  22.130  0.00  0.00    +0.000 A 
ATOM     18 CL   UNL     1      -5.359  12.873  20.869  0.00  0.00    +0.000 Cl
ENDBRANCH   8  11
ENDBRANCH   5   7
BRANCH   1  19
ATOM     19  C   UNL     1       0.816   9.887  19.425  0.00  0.00    +0.000 C 
ATOM     20  O   UNL     1       0.700  10.693  18.511  0.00  0.00    +0.000 OA
BRANCH  19  22
ATOM     21  C   UNL     1       2.269   8.311  18.160  0.00  0.00    +0.000 C 
ATOM     22  C   UNL     1       1.597   8.625  19.279  0.00  0.00    +0.000 C 
BRANCH  21  25
ATOM     23  C   UNL     1       3.155   4.627  18.464  0.00  0.00    +0.000 A 
ATOM     24  C   UNL     1       2.483   5.860  18.572  0.00  0.00    +0.000 A 
ATOM     25  C   UNL     1       2.994   7.034  17.999  0.00  0.00    +0.000 A 
ATOM     26  C   UNL     1       4.185   6.946  17.269  0.00  0.00    +0.000 A 
ATOM     27  C   UNL     1       4.870   5.735  17.158  0.00  0.00    +0.000 A 
ATOM     28  C   UNL     1       4.363   4.580  17.758  0.00  0.00    +0.000 A 
BRANCH  23  30
ATOM     29  C   UNL     1       1.610   2.802  18.338  0.00  0.00    +0.000 C 
ATOM     30  O   UNL     1       2.506   3.602  19.099  0.00  0.00    +0.000 OA
ENDBRANCH  23  30
BRANCH  28  31
ATOM     31  O   UNL     1       5.079   3.423  17.633  0.00  0.00    +0.000 OA
ATOM     32  H   UNL     1       5.543   3.240  18.466  0.00  0.00    +0.000 HD
ENDBRANCH  28  31
ENDBRANCH  21  25
ENDBRANCH  19  22
ENDBRANCH   1  19
TORSDOF 7
ENDMDL
MODEL 6
REMARK VINA RESULT:      -8.0      1.206      2.762
REMARK  Name = 
REMARK  8 active torsions:
REMARK  status: ('A' for Active; 'I' for Inactive)
REMARK    1  A    between atoms: C_1  and  O_2
REMARK    2  A    between atoms: O_2  and  C_3
REMARK    3  A    between atoms: C_5  and  C_6
REMARK    4  A    between atoms: C_7  and  C_8
REMARK    5  A    between atoms: C_8  and  C_10
REMARK    6  A    between atoms: C_14  and  N_15
REMARK    7  A    between atoms: C_16  and  C_18
REMARK    8  A    between atoms: C_29  and  O_30
REMARK                            x       y       z     vdW  Elec       q    Type
REMARK                         _______ _______ _______ _____ _____    ______ ____
ROOT
ATOM      1  C   UNL     1       1.245   9.383  20.013  0.00  0.00    +0.000 A 
ATOM      2  C   UNL     1       0.741   8.632  21.085  0.00  0.00    +0.000 A 
ATOM      3  C   UNL     1       1.003   7.267  21.168  0.00  0.00    +0.000 A 
ATOM      4  C   UNL     1       1.799   6.651  20.206  0.00  0.00    +0.000 A 
ATOM      5  C   UNL     1       2.346   7.389  19.153  0.00  0.00    +0.000 A 
ATOM      6  C   UNL     1       2.047   8.756  19.045  0.00  0.00    +0.000 A 
ENDROOT
BRANCH   5   7
ATOM      7  N   UNL     1       3.182   6.802  18.176  0.00  0.00    +0.000 N 
ATOM      8  C   UNL     1       4.243   5.936  18.426  0.00  0.00    +0.000 C 
ATOM      9  O   UNL     1       4.642   5.616  19.539  0.00  0.00    +0.000 OA
ATOM     10  H   UNL     1       3.115   7.196  17.244  0.00  0.00    +0.000 HD
BRANCH   8  11
ATOM     11  C   UNL     1       4.954   5.400  17.228  0.00  0.00    +0.000 A 
ATOM     12  C   UNL     1       6.113   6.012  16.712  0.00  0.00    +0.000 A 
ATOM     13 CL   UNL     1       6.876   7.388  17.439  0.00  0.00    +0.000 Cl
ATOM     14  C   UNL     1       6.746   5.503  15.571  0.00  0.00    +0.000 A 
ATOM     15  C   UNL     1       6.262   4.359  14.946  0.00  0.00    +0.000 A 
ATOM     16  C   UNL     1       5.142   3.717  15.465  0.00  0.00    +0.000 A 
ATOM     17  C   UNL     1       4.485   4.231  16.594  0.00  0.00    +0.000 A 
ATOM     18 CL   UNL     1       3.066   3.367  17.083  0.00  0.00    +0.000 Cl
ENDBRANCH   8  11
ENDBRANCH   5   7
BRANCH   1  19
ATOM     19  C   UNL     1       0.971  10.848  19.914  0.00  0.00    +0.000 C 
ATOM     20  O   UNL     1       1.822  11.673  20.221  0.00  0.00    +0.000 OA
BRANCH  19  22
ATOM     21  C   UNL     1      -1.188  10.378  18.770  0.00  0.00    +0.000 C 
ATOM     22  C   UNL     1      -0.368  11.241  19.389  0.00  0.00    +0.000 C 
BRANCH  21  25
ATOM     23  C   UNL     1      -4.028  10.840  16.287  0.00  0.00    +0.000 A 
ATOM     24  C   UNL     1      -2.810  10.450  16.877  0.00  0.00    +0.000 A 
ATOM     25  C   UNL     1      -2.489  10.784  18.201  0.00  0.00    +0.000 A 
ATOM     26  C   UNL     1      -3.439  11.488  18.951  0.00  0.00    +0.000 A 
ATOM     27  C   UNL     1      -4.648  11.889  18.381  0.00  0.00    +0.000 A 
ATOM     28  C   UNL     1      -4.940  11.574  17.053  0.00  0.00    +0.000 A 
BRANCH  23  30
ATOM     29  C   UNL     1      -2.977  10.020  14.297  0.00  0.00    +0.000 C 
ATOM     30  O   UNL     1      -4.152  10.432  14.985  0.00  0.00    +0.000 OA
ENDBRANCH  23  30
BRANCH  28  31
ATOM     31  O   UNL     1      -6.132  12.004  16.538  0.00  0.00    +0.000 OA
ATOM     32  H   UNL     1      -6.821  11.932  17.219  0.00  0.00    +0.000 HD
ENDBRANCH  28  31
ENDBRANCH  21  25
ENDBRANCH  19  22
ENDBRANCH   1  19
TORSDOF 7
ENDMDL
MODEL 7
REMARK VINA RESULT:      -7.9      4.481     10.649
REMARK  Name = 
REMARK  8 active torsions:
REMARK  status: ('A' for Active; 'I' for Inactive)
REMARK    1  A    between atoms: C_1  and  O_2
REMARK    2  A    between atoms: O_2  and  C_3
REMARK    3  A    between atoms: C_5  and  C_6
REMARK    4  A    between atoms: C_7  and  C_8
REMARK    5  A    between atoms: C_8  and  C_10
REMARK    6  A    between atoms: C_14  and  N_15
REMARK    7  A    between atoms: C_16  and  C_18
REMARK    8  A    between atoms: C_29  and  O_30
REMARK                            x       y       z     vdW  Elec       q    Type
REMARK                         _______ _______ _______ _____ _____    ______ ____
ROOT
ATOM      1  C   UNL     1       0.148  10.318  18.373  0.00  0.00    +0.000 A 
ATOM      2  C   UNL     1      -0.935   9.845  17.619  0.00  0.00    +0.000 A 
ATOM      3  C   UNL     1      -2.233  10.241  17.931  0.00  0.00    +0.000 A 
ATOM      4  C   UNL     1      -2.455  11.140  18.971  0.00  0.00    +0.000 A 
ATOM      5  C   UNL     1      -1.386  11.657  19.709  0.00  0.00    +0.000 A 
ATOM      6  C   UNL     1      -0.081  11.225  19.422  0.00  0.00    +0.000 A 
ENDROOT
BRANCH   5   7
ATOM      7  N   UNL     1      -1.572  12.593  20.751  0.00  0.00    +0.000 N 
ATOM      8  C   UNL     1      -1.327  12.367  22.102  0.00  0.00    +0.000 C 
ATOM      9  O   UNL     1      -0.979  11.295  22.584  0.00  0.00    +0.000 OA
ATOM     10  H   UNL     1      -2.101  13.423  20.509  0.00  0.00    +0.000 HD
BRANCH   8  11
ATOM     11  C   UNL     1      -1.548  13.525  23.017  0.00  0.00    +0.000 A 
ATOM     12  C   UNL     1      -2.658  13.591  23.882  0.00  0.00    +0.000 A 
ATOM     13 CL   UNL     1      -3.832  12.326  24.035  0.00  0.00    +0.000 Cl
ATOM     14  C   UNL     1      -2.856  14.703  24.712  0.00  0.00    +0.000 A 
ATOM     15  C   UNL     1      -1.938  15.747  24.723  0.00  0.00    +0.000 A 
ATOM     16  C   UNL     1      -0.815  15.681  23.906  0.00  0.00    +0.000 A 
ATOM     17  C   UNL     1      -0.617  14.584  23.053  0.00  0.00    +0.000 A 
ATOM     18 CL   UNL     1       0.787  14.673  22.043  0.00  0.00    +0.000 Cl
ENDBRANCH   8  11
ENDBRANCH   5   7
BRANCH   1  19
ATOM     19  C   UNL     1       1.544   9.901  18.045  0.00  0.00    +0.000 C 
ATOM     20  O   UNL     1       2.419  10.730  17.829  0.00  0.00    +0.000 OA
BRANCH  19  22
ATOM     21  C   UNL     1       3.051   7.925  17.912  0.00  0.00    +0.000 C 
ATOM     22  C   UNL     1       1.816   8.434  18.038  0.00  0.00    +0.000 C 
BRANCH  21  25
ATOM     23  C   UNL     1       4.876   4.626  17.426  0.00  0.00    +0.000 A 
ATOM     24  C   UNL     1       4.592   6.003  17.524  0.00  0.00    +0.000 A 
ATOM     25  C   UNL     1       3.311   6.473  17.847  0.00  0.00    +0.000 A 
ATOM     26  C   UNL     1       2.313   5.529  18.117  0.00  0.00    +0.000 A 
ATOM     27  C   UNL     1       2.573   4.161  18.017  0.00  0.00    +0.000 A 
ATOM     28  C   UNL     1       3.847   3.710  17.666  0.00  0.00    +0.000 A 
BRANCH  23  30
ATOM     29  C   UNL     1       7.000   5.461  16.697  0.00  0.00    +0.000 C 
ATOM     30  O   UNL     1       6.178   4.367  17.088  0.00  0.00    +0.000 OA
ENDBRANCH  23  30
BRANCH  28  31
ATOM     31  O   UNL     1       4.045   2.361  17.568  0.00  0.00    +0.000 OA
ATOM     32  H   UNL     1       3.875   2.076  16.654  0.00  0.00    +0.000 HD
ENDBRANCH  28  31
ENDBRANCH  21  25
ENDBRANCH  19  22
ENDBRANCH   1  19
TORSDOF 7
ENDMDL
MODEL 8
REMARK VINA RESULT:      -7.9      5.011     10.339
REMARK  Name = 
REMARK  8 active torsions:
REMARK  status: ('A' for Active; 'I' for Inactive)
REMARK    1  A    between atoms: C_1  and  O_2
REMARK    2  A    between atoms: O_2  and  C_3
REMARK    3  A    between atoms: C_5  and  C_6
REMARK    4  A    between atoms: C_7  and  C_8
REMARK    5  A    between atoms: C_8  and  C_10
REMARK    6  A    between atoms: C_14  and  N_15
REMARK    7  A    between atoms: C_16  and  C_18
REMARK    8  A    between atoms: C_29  and  O_30
REMARK                            x       y       z     vdW  Elec       q    Type
REMARK                         _______ _______ _______ _____ _____    ______ ____
ROOT
ATOM      1  C   UNL     1       1.340   9.250  19.684  0.00  0.00    +0.000 A 
ATOM      2  C   UNL     1       1.302   8.382  20.784  0.00  0.00    +0.000 A 
ATOM      3  C   UNL     1       0.704   8.786  21.975  0.00  0.00    +0.000 A 
ATOM      4  C   UNL     1       0.109  10.042  22.064  0.00  0.00    +0.000 A 
ATOM      5  C   UNL     1       0.098  10.906  20.965  0.00  0.00    +0.000 A 
ATOM      6  C   UNL     1       0.738  10.516  19.778  0.00  0.00    +0.000 A 
ENDROOT
BRANCH   5   7
ATOM      7  N   UNL     1      -0.522  12.175  21.010  0.00  0.00    +0.000 N 
ATOM      8  C   UNL     1       0.101  13.376  21.338  0.00  0.00    +0.000 C 
ATOM      9  O   UNL     1       1.266  13.486  21.702  0.00  0.00    +0.000 OA
ATOM     10  H   UNL     1      -1.536  12.171  20.984  0.00  0.00    +0.000 HD
BRANCH   8  11
ATOM     11  C   UNL     1      -0.748  14.601  21.270  0.00  0.00    +0.000 A 
ATOM     12  C   UNL     1      -1.495  15.055  22.374  0.00  0.00    +0.000 A 
ATOM     13 CL   UNL     1      -1.459  14.298  23.933  0.00  0.00    +0.000 Cl
ATOM     14  C   UNL     1      -2.305  16.194  22.274  0.00  0.00    +0.000 A 
ATOM     15  C   UNL     1      -2.357  16.921  21.090  0.00  0.00    +0.000 A 
ATOM     16  C   UNL     1      -1.594  16.512  20.001  0.00  0.00    +0.000 A 
ATOM     17  C   UNL     1      -0.797  15.359  20.081  0.00  0.00    +0.000 A 
ATOM     18 CL   UNL     1       0.040  14.934  18.626  0.00  0.00    +0.000 Cl
ENDBRANCH   8  11
ENDBRANCH   5   7
BRANCH   1  19
ATOM     19  C   UNL     1       1.978   8.826  18.401  0.00  0.00    +0.000 C 
ATOM     20  O   UNL     1       2.036   9.584  17.442  0.00  0.00    +0.000 OA
BRANCH  19  22
ATOM     21  C   UNL     1       1.830   6.351  18.178  0.00  0.00    +0.000 C 
ATOM     22  C   UNL     1       2.567   7.456  18.372  0.00  0.00    +0.000 C 
BRANCH  21  25
ATOM     23  C   UNL     1       2.490   2.756  19.219  0.00  0.00    +0.000 A 
ATOM     24  C   UNL     1       1.948   4.054  19.140  0.00  0.00    +0.000 A 
ATOM     25  C   UNL     1       2.408   4.993  18.206  0.00  0.00    +0.000 A 
ATOM     26  C   UNL     1       3.406   4.593  17.309  0.00  0.00    +0.000 A 
ATOM     27  C   UNL     1       3.961   3.314  17.376  0.00  0.00    +0.000 A 
ATOM     28  C   UNL     1       3.511   2.400  18.331  0.00  0.00    +0.000 A 
BRANCH  23  30
ATOM     29  C   UNL     1       1.462   2.646  21.379  0.00  0.00    +0.000 C 
ATOM     30  O   UNL     1       1.919   1.992  20.202  0.00  0.00    +0.000 OA
ENDBRANCH  23  30
BRANCH  28  31
ATOM     31  O   UNL     1       4.098   1.166  18.365  0.00  0.00    +0.000 OA
ATOM     32  H   UNL     1       5.015   1.254  18.675  0.00  0.00    +0.000 HD
ENDBRANCH  28  31
ENDBRANCH  21  25
ENDBRANCH  19  22
ENDBRANCH   1  19
TORSDOF 7
ENDMDL
MODEL 9
REMARK VINA RESULT:      -7.9      4.358     10.740
REMARK  Name = 
REMARK  8 active torsions:
REMARK  status: ('A' for Active; 'I' for Inactive)
REMARK    1  A    between atoms: C_1  and  O_2
REMARK    2  A    between atoms: O_2  and  C_3
REMARK    3  A    between atoms: C_5  and  C_6
REMARK    4  A    between atoms: C_7  and  C_8
REMARK    5  A    between atoms: C_8  and  C_10
REMARK    6  A    between atoms: C_14  and  N_15
REMARK    7  A    between atoms: C_16  and  C_18
REMARK    8  A    between atoms: C_29  and  O_30
REMARK                            x       y       z     vdW  Elec       q    Type
REMARK                         _______ _______ _______ _____ _____    ______ ____
ROOT
ATOM      1  C   UNL     1       0.216  10.111  18.249  0.00  0.00    +0.000 A 
ATOM      2  C   UNL     1      -0.849   9.776  17.400  0.00  0.00    +0.000 A 
ATOM      3  C   UNL     1      -2.156  10.103  17.752  0.00  0.00    +0.000 A 
ATOM      4  C   UNL     1      -2.405  10.799  18.932  0.00  0.00    +0.000 A 
ATOM      5  C   UNL     1      -1.354  11.180  19.773  0.00  0.00    +0.000 A 
ATOM      6  C   UNL     1      -0.042  10.812  19.439  0.00  0.00    +0.000 A 
ENDROOT
BRANCH   5   7
ATOM      7  N   UNL     1      -1.568  11.911  20.962  0.00  0.00    +0.000 N 
ATOM      8  C   UNL     1      -1.841  13.274  21.043  0.00  0.00    +0.000 C 
ATOM      9  O   UNL     1      -1.864  14.044  20.089  0.00  0.00    +0.000 OA
ATOM     10  H   UNL     1      -1.317  11.438  21.822  0.00  0.00    +0.000 HD
BRANCH   8  11
ATOM     11  C   UNL     1      -2.082  13.821  22.410  0.00  0.00    +0.000 A 
ATOM     12  C   UNL     1      -3.314  13.656  23.073  0.00  0.00    +0.000 A 
ATOM     13 CL   UNL     1      -4.641  12.753  22.421  0.00  0.00    +0.000 Cl
ATOM     14  C   UNL     1      -3.522  14.203  24.347  0.00  0.00    +0.000 A 
ATOM     15  C   UNL     1      -2.501  14.888  24.996  0.00  0.00    +0.000 A 
ATOM     16  C   UNL     1      -1.265  15.025  24.375  0.00  0.00    +0.000 A 
ATOM     17  C   UNL     1      -1.051  14.503  23.090  0.00  0.00    +0.000 A 
ATOM     18 CL   UNL     1       0.514  14.812  22.414  0.00  0.00    +0.000 Cl
ENDBRANCH   8  11
ENDBRANCH   5   7
BRANCH   1  19
ATOM     19  C   UNL     1       1.621   9.766  17.880  0.00  0.00    +0.000 C 
ATOM     20  O   UNL     1       2.472  10.635  17.746  0.00  0.00    +0.000 OA
BRANCH  19  22
ATOM     21  C   UNL     1       2.773   7.662  18.544  0.00  0.00    +0.000 C 
ATOM     22  C   UNL     1       1.932   8.315  17.727  0.00  0.00    +0.000 C 
BRANCH  21  25
ATOM     23  C   UNL     1       4.815   4.460  18.403  0.00  0.00    +0.000 A 
ATOM     24  C   UNL     1       4.433   5.802  18.596  0.00  0.00    +0.000 A 
ATOM     25  C   UNL     1       3.123   6.240  18.355  0.00  0.00    +0.000 A 
ATOM     26  C   UNL     1       2.176   5.291  17.951  0.00  0.00    +0.000 A 
ATOM     27  C   UNL     1       2.538   3.958  17.747  0.00  0.00    +0.000 A 
ATOM     28  C   UNL     1       3.853   3.544  17.964  0.00  0.00    +0.000 A 
BRANCH  23  30
ATOM     29  C   UNL     1       7.095   4.532  17.671  0.00  0.00    +0.000 C 
ATOM     30  O   UNL     1       6.138   4.231  18.679  0.00  0.00    +0.000 OA
ENDBRANCH  23  30
BRANCH  28  31
ATOM     31  O   UNL     1       4.159   2.231  17.735  0.00  0.00    +0.000 OA
ATOM     32  H   UNL     1       4.282   2.092  16.782  0.00  0.00    +0.000 HD
ENDBRANCH  28  31
ENDBRANCH  21  25
ENDBRANCH  19  22
ENDBRANCH   1  19
TORSDOF 7
ENDMDL
