MODEL 1
REMARK VINA RESULT:      -5.5      0.000      0.000
REMARK  Name = 
REMARK  19 active torsions:
REMARK  status: ('A' for Active; 'I' for Inactive)
REMARK    1  A    between atoms: C_1  and  C_2
REMARK    2  A    between atoms: C_2  and  C_3
REMARK    3  A    between atoms: C_3  and  C_4
REMARK    4  A    between atoms: C_4  and  C_5
REMARK    5  A    between atoms: C_5  and  C_6
REMARK    6  A    between atoms: C_7  and  C_8
REMARK    7  A    between atoms: C_8  and  C_9
REMARK    8  A    between atoms: C_10  and  C_11
REMARK    9  A    between atoms: C_11  and  C_12
REMARK   10  A    between atoms: C_13  and  C_14
REMARK   11  A    between atoms: C_14  and  C_15
REMARK   12  A    between atoms: C_16  and  C_17
REMARK   13  A    between atoms: C_17  and  C_18
REMARK   14  A    between atoms: C_18  and  C_19
REMARK   15  A    between atoms: C_19  and  C_20
REMARK   16  A    between atoms: C_20  and  O_21
REMARK   17  A    between atoms: O_21  and  C_22
REMARK   18  A    between atoms: C_22  and  C_23
REMARK   19  A    between atoms: C_23  and  C_24
REMARK                            x       y       z     vdW  Elec       q    Type
REMARK                         _______ _______ _______ _____ _____    ______ ____
ROOT
ATOM      1  C   UNL     1       1.625   3.660  21.149  0.00  0.00    +0.000 C 
ATOM      2  C   UNL     1       1.895   2.495  20.534  0.00  0.00    +0.000 C 
ENDROOT
BRANCH   2   3
ATOM      3  C   UNL     1       1.690   2.273  19.065  0.00  0.00    +0.000 C 
BRANCH   3   4
ATOM      4  C   UNL     1       2.912   1.735  18.385  0.00  0.00    +0.000 C 
ATOM      5  C   UNL     1       3.717   2.470  17.603  0.00  0.00    +0.000 C 
BRANCH   5   6
ATOM      6  C   UNL     1       3.496   3.935  17.351  0.00  0.00    +0.000 C 
BRANCH   6   7
ATOM      7  C   UNL     1       4.608   4.801  17.920  0.00  0.00    +0.000 C 
BRANCH   7   8
ATOM      8  C   UNL     1       4.545   6.206  17.317  0.00  0.00    +0.000 C 
BRANCH   8   9
ATOM      9  C   UNL     1       5.430   6.314  16.088  0.00  0.00    +0.000 C 
BRANCH   9  10
ATOM     10  O   UNL     1       6.473   5.348  16.188  0.00  0.00    +0.000 OA
BRANCH  10  11
ATOM     11  C   UNL     1       6.877   4.892  14.903  0.00  0.00    +0.000 C 
BRANCH  11  12
ATOM     12  C   UNL     1       5.708   4.168  14.251  0.00  0.00    +0.000 C 
ATOM     13  C   UNL     1       6.102   3.629  12.889  0.00  0.00    +0.000 C 
ENDBRANCH  11  12
ENDBRANCH  10  11
ENDBRANCH   9  10
ENDBRANCH   8   9
ENDBRANCH   7   8
ENDBRANCH   6   7
ENDBRANCH   5   6
ENDBRANCH   3   4
ENDBRANCH   2   3
BRANCH   1  14
ATOM     14  C   UNL     1       1.053   4.872  20.476  0.00  0.00    +0.000 C 
BRANCH  14  16
ATOM     15  C   UNL     1       1.981   7.212  20.444  0.00  0.00    +0.000 C 
ATOM     16  C   UNL     1       2.090   5.906  20.124  0.00  0.00    +0.000 C 
BRANCH  15  17
ATOM     17  C   UNL     1       0.840   7.784  21.220  0.00  0.00    +0.000 C 
BRANCH  17  19
ATOM     18  C   UNL     1       0.505  10.256  20.947  0.00  0.00    +0.000 C 
ATOM     19  C   UNL     1       1.100   9.222  21.556  0.00  0.00    +0.000 C 
BRANCH  18  20
ATOM     20  C   UNL     1      -0.501  10.071  19.850  0.00  0.00    +0.000 C 
BRANCH  20  21
ATOM     21  C   UNL     1      -0.120  10.793  18.568  0.00  0.00    +0.000 C 
BRANCH  21  22
ATOM     22  C   UNL     1      -1.029  12.005  18.373  0.00  0.00    +0.000 C 
BRANCH  22  24
ATOM     23  C   UNL     1       1.012  13.438  18.628  0.00  0.00    +0.000 C 
ATOM     24  C   UNL     1      -0.436  13.240  19.038  0.00  0.00    +0.000 C 
ENDBRANCH  22  24
ENDBRANCH  21  22
ENDBRANCH  20  21
ENDBRANCH  18  20
ENDBRANCH  17  19
ENDBRANCH  15  17
ENDBRANCH  14  16
ENDBRANCH   1  14
TORSDOF 17
ENDMDL
MODEL 2
REMARK VINA RESULT:      -5.5      4.581      7.691
REMARK  Name = 
REMARK  19 active torsions:
REMARK  status: ('A' for Active; 'I' for Inactive)
REMARK    1  A    between atoms: C_1  and  C_2
REMARK    2  A    between atoms: C_2  and  C_3
REMARK    3  A    between atoms: C_3  and  C_4
REMARK    4  A    between atoms: C_4  and  C_5
REMARK    5  A    between atoms: C_5  and  C_6
REMARK    6  A    between atoms: C_7  and  C_8
REMARK    7  A    between atoms: C_8  and  C_9
REMARK    8  A    between atoms: C_10  and  C_11
REMARK    9  A    between atoms: C_11  and  C_12
REMARK   10  A    between atoms: C_13  and  C_14
REMARK   11  A    between atoms: C_14  and  C_15
REMARK   12  A    between atoms: C_16  and  C_17
REMARK   13  A    between atoms: C_17  and  C_18
REMARK   14  A    between atoms: C_18  and  C_19
REMARK   15  A    between atoms: C_19  and  C_20
REMARK   16  A    between atoms: C_20  and  O_21
REMARK   17  A    between atoms: O_21  and  C_22
REMARK   18  A    between atoms: C_22  and  C_23
REMARK   19  A    between atoms: C_23  and  C_24
REMARK                            x       y       z     vdW  Elec       q    Type
REMARK                         _______ _______ _______ _____ _____    ______ ____
ROOT
ATOM      1  C   UNL     1       5.645   4.657  18.635  0.00  0.00    +0.000 C 
ATOM      2  C   UNL     1       6.664   5.506  18.852  0.00  0.00    +0.000 C 
ENDROOT
BRANCH   2   3
ATOM      3  C   UNL     1       7.510   6.074  17.751  0.00  0.00    +0.000 C 
BRANCH   3   4
ATOM      4  C   UNL     1       7.055   7.433  17.315  0.00  0.00    +0.000 C 
ATOM      5  C   UNL     1       7.612   8.580  17.737  0.00  0.00    +0.000 C 
BRANCH   5   6
ATOM      6  C   UNL     1       8.785   8.620  18.675  0.00  0.00    +0.000 C 
BRANCH   6   7
ATOM      7  C   UNL     1       9.075  10.021  19.189  0.00  0.00    +0.000 C 
BRANCH   7   8
ATOM      8  C   UNL     1       9.206  10.997  18.018  0.00  0.00    +0.000 C 
BRANCH   8   9
ATOM      9  C   UNL     1       9.819  12.312  18.467  0.00  0.00    +0.000 C 
BRANCH   9  10
ATOM     10  O   UNL     1       8.840  13.048  19.195  0.00  0.00    +0.000 OA
BRANCH  10  11
ATOM     11  C   UNL     1       9.439  13.814  20.233  0.00  0.00    +0.000 C 
BRANCH  11  12
ATOM     12  C   UNL     1       9.930  12.866  21.319  0.00  0.00    +0.000 C 
ATOM     13  C   UNL     1       8.760  12.252  22.064  0.00  0.00    +0.000 C 
ENDBRANCH  11  12
ENDBRANCH  10  11
ENDBRANCH   9  10
ENDBRANCH   8   9
ENDBRANCH   7   8
ENDBRANCH   6   7
ENDBRANCH   5   6
ENDBRANCH   3   4
ENDBRANCH   2   3
BRANCH   1  14
ATOM     14  C   UNL     1       5.236   4.133  17.290  0.00  0.00    +0.000 C 
BRANCH  14  16
ATOM     15  C   UNL     1       2.844   3.351  17.275  0.00  0.00    +0.000 C 
ATOM     16  C   UNL     1       3.767   4.296  17.004  0.00  0.00    +0.000 C 
BRANCH  15  17
ATOM     17  C   UNL     1       3.160   2.044  17.926  0.00  0.00    +0.000 C 
BRANCH  17  19
ATOM     18  C   UNL     1       2.721   2.560  20.342  0.00  0.00    +0.000 C 
ATOM     19  C   UNL     1       3.569   2.251  19.353  0.00  0.00    +0.000 C 
BRANCH  18  20
ATOM     20  C   UNL     1       1.249   2.730  20.113  0.00  0.00    +0.000 C 
BRANCH  20  21
ATOM     21  C   UNL     1       0.830   4.186  20.000  0.00  0.00    +0.000 C 
BRANCH  21  22
ATOM     22  C   UNL     1       1.882   5.075  20.660  0.00  0.00    +0.000 C 
BRANCH  22  24
ATOM     23  C   UNL     1       1.947   7.540  20.211  0.00  0.00    +0.000 C 
ATOM     24  C   UNL     1       2.347   6.166  19.705  0.00  0.00    +0.000 C 
ENDBRANCH  22  24
ENDBRANCH  21  22
ENDBRANCH  20  21
ENDBRANCH  18  20
ENDBRANCH  17  19
ENDBRANCH  15  17
ENDBRANCH  14  16
ENDBRANCH   1  14
TORSDOF 17
ENDMDL
MODEL 3
REMARK VINA RESULT:      -5.5      2.182      7.637
REMARK  Name = 
REMARK  19 active torsions:
REMARK  status: ('A' for Active; 'I' for Inactive)
REMARK    1  A    between atoms: C_1  and  C_2
REMARK    2  A    between atoms: C_2  and  C_3
REMARK    3  A    between atoms: C_3  and  C_4
REMARK    4  A    between atoms: C_4  and  C_5
REMARK    5  A    between atoms: C_5  and  C_6
REMARK    6  A    between atoms: C_7  and  C_8
REMARK    7  A    between atoms: C_8  and  C_9
REMARK    8  A    between atoms: C_10  and  C_11
REMARK    9  A    between atoms: C_11  and  C_12
REMARK   10  A    between atoms: C_13  and  C_14
REMARK   11  A    between atoms: C_14  and  C_15
REMARK   12  A    between atoms: C_16  and  C_17
REMARK   13  A    between atoms: C_17  and  C_18
REMARK   14  A    between atoms: C_18  and  C_19
REMARK   15  A    between atoms: C_19  and  C_20
REMARK   16  A    between atoms: C_20  and  O_21
REMARK   17  A    between atoms: O_21  and  C_22
REMARK   18  A    between atoms: C_22  and  C_23
REMARK   19  A    between atoms: C_23  and  C_24
REMARK                            x       y       z     vdW  Elec       q    Type
REMARK                         _______ _______ _______ _____ _____    ______ ____
ROOT
ATOM      1  C   UNL     1       4.512   2.616  19.674  0.00  0.00    +0.000 C 
ATOM      2  C   UNL     1       3.314   2.567  20.282  0.00  0.00    +0.000 C 
ENDROOT
BRANCH   2   3
ATOM      3  C   UNL     1       2.250   3.607  20.090  0.00  0.00    +0.000 C 
BRANCH   3   4
ATOM      4  C   UNL     1       1.512   3.447  18.796  0.00  0.00    +0.000 C 
ATOM      5  C   UNL     1       1.524   4.359  17.811  0.00  0.00    +0.000 C 
BRANCH   5   6
ATOM      6  C   UNL     1       2.314   5.634  17.889  0.00  0.00    +0.000 C 
BRANCH   6   7
ATOM      7  C   UNL     1       2.199   6.313  19.244  0.00  0.00    +0.000 C 
BRANCH   7   8
ATOM      8  C   UNL     1       2.440   7.818  19.104  0.00  0.00    +0.000 C 
BRANCH   8   9
ATOM      9  C   UNL     1       2.385   8.248  17.649  0.00  0.00    +0.000 C 
BRANCH   9  10
ATOM     10  O   UNL     1       1.735   9.514  17.570  0.00  0.00    +0.000 OA
BRANCH  10  11
ATOM     11  C   UNL     1       0.907   9.740  18.704  0.00  0.00    +0.000 C 
BRANCH  11  12
ATOM     12  C   UNL     1      -0.138  10.786  18.345  0.00  0.00    +0.000 C 
ATOM     13  C   UNL     1      -1.457  10.127  17.988  0.00  0.00    +0.000 C 
ENDBRANCH  11  12
ENDBRANCH  10  11
ENDBRANCH   9  10
ENDBRANCH   8   9
ENDBRANCH   7   8
ENDBRANCH   6   7
ENDBRANCH   5   6
ENDBRANCH   3   4
ENDBRANCH   2   3
BRANCH   1  14
ATOM     14  C   UNL     1       4.966   3.717  18.762  0.00  0.00    +0.000 C 
BRANCH  14  16
ATOM     15  C   UNL     1       6.516   5.695  18.912  0.00  0.00    +0.000 C 
ATOM     16  C   UNL     1       5.624   4.862  19.487  0.00  0.00    +0.000 C 
BRANCH  15  17
ATOM     17  C   UNL     1       6.931   5.609  17.480  0.00  0.00    +0.000 C 
BRANCH  17  19
ATOM     18  C   UNL     1       5.285   5.910  15.611  0.00  0.00    +0.000 C 
ATOM     19  C   UNL     1       6.010   6.417  16.615  0.00  0.00    +0.000 C 
BRANCH  18  20
ATOM     20  C   UNL     1       5.320   4.456  15.248  0.00  0.00    +0.000 C 
BRANCH  20  21
ATOM     21  C   UNL     1       6.316   4.144  14.143  0.00  0.00    +0.000 C 
BRANCH  21  22
ATOM     22  C   UNL     1       5.567   3.669  12.898  0.00  0.00    +0.000 C 
BRANCH  22  24
ATOM     23  C   UNL     1       5.954   1.729  11.359  0.00  0.00    +0.000 C 
ATOM     24  C   UNL     1       6.523   3.028  11.902  0.00  0.00    +0.000 C 
ENDBRANCH  22  24
ENDBRANCH  21  22
ENDBRANCH  20  21
ENDBRANCH  18  20
ENDBRANCH  17  19
ENDBRANCH  15  17
ENDBRANCH  14  16
ENDBRANCH   1  14
TORSDOF 17
ENDMDL
MODEL 4
REMARK VINA RESULT:      -5.5      4.702      7.892
REMARK  Name = 
REMARK  19 active torsions:
REMARK  status: ('A' for Active; 'I' for Inactive)
REMARK    1  A    between atoms: C_1  and  C_2
REMARK    2  A    between atoms: C_2  and  C_3
REMARK    3  A    between atoms: C_3  and  C_4
REMARK    4  A    between atoms: C_4  and  C_5
REMARK    5  A    between atoms: C_5  and  C_6
REMARK    6  A    between atoms: C_7  and  C_8
REMARK    7  A    between atoms: C_8  and  C_9
REMARK    8  A    between atoms: C_10  and  C_11
REMARK    9  A    between atoms: C_11  and  C_12
REMARK   10  A    between atoms: C_13  and  C_14
REMARK   11  A    between atoms: C_14  and  C_15
REMARK   12  A    between atoms: C_16  and  C_17
REMARK   13  A    between atoms: C_17  and  C_18
REMARK   14  A    between atoms: C_18  and  C_19
REMARK   15  A    between atoms: C_19  and  C_20
REMARK   16  A    between atoms: C_20  and  O_21
REMARK   17  A    between atoms: O_21  and  C_22
REMARK   18  A    between atoms: C_22  and  C_23
REMARK   19  A    between atoms: C_23  and  C_24
REMARK                            x       y       z     vdW  Elec       q    Type
REMARK                         _______ _______ _______ _____ _____    ______ ____
ROOT
ATOM      1  C   UNL     1       6.005   4.172  16.258  0.00  0.00    +0.000 C 
ATOM      2  C   UNL     1       6.972   5.105  16.227  0.00  0.00    +0.000 C 
ENDROOT
BRANCH   2   3
ATOM      3  C   UNL     1       7.287   6.003  17.386  0.00  0.00    +0.000 C 
BRANCH   3   4
ATOM      4  C   UNL     1       6.549   7.306  17.327  0.00  0.00    +0.000 C 
ATOM      5  C   UNL     1       7.116   8.498  17.569  0.00  0.00    +0.000 C 
BRANCH   5   6
ATOM      6  C   UNL     1       8.574   8.658  17.895  0.00  0.00    +0.000 C 
BRANCH   6   7
ATOM      7  C   UNL     1       8.835   9.793  18.871  0.00  0.00    +0.000 C 
BRANCH   7   8
ATOM      8  C   UNL     1       9.044  11.105  18.112  0.00  0.00    +0.000 C 
BRANCH   8   9
ATOM      9  C   UNL     1      10.519  11.369  17.870  0.00  0.00    +0.000 C 
BRANCH   9  10
ATOM     10  O   UNL     1      10.688  12.739  17.518  0.00  0.00    +0.000 OA
BRANCH  10  11
ATOM     11  C   UNL     1      10.137  13.598  18.509  0.00  0.00    +0.000 C 
BRANCH  11  12
ATOM     12  C   UNL     1       9.990  14.993  17.920  0.00  0.00    +0.000 C 
ATOM     13  C   UNL     1      11.294  15.762  18.029  0.00  0.00    +0.000 C 
ENDBRANCH  11  12
ENDBRANCH  10  11
ENDBRANCH   9  10
ENDBRANCH   8   9
ENDBRANCH   7   8
ENDBRANCH   6   7
ENDBRANCH   5   6
ENDBRANCH   3   4
ENDBRANCH   2   3
BRANCH   1  14
ATOM     14  C   UNL     1       5.091   3.922  17.421  0.00  0.00    +0.000 C 
BRANCH  14  16
ATOM     15  C   UNL     1       2.919   5.161  17.700  0.00  0.00    +0.000 C 
ATOM     16  C   UNL     1       3.642   4.187  17.111  0.00  0.00    +0.000 C 
BRANCH  15  17
ATOM     17  C   UNL     1       3.475   6.120  18.700  0.00  0.00    +0.000 C 
BRANCH  17  19
ATOM     18  C   UNL     1       1.770   6.391  20.520  0.00  0.00    +0.000 C 
ATOM     19  C   UNL     1       2.370   6.841  19.411  0.00  0.00    +0.000 C 
BRANCH  18  20
ATOM     20  C   UNL     1       2.156   5.098  21.174  0.00  0.00    +0.000 C 
BRANCH  20  21
ATOM     21  C   UNL     1       1.256   3.940  20.776  0.00  0.00    +0.000 C 
BRANCH  21  22
ATOM     22  C   UNL     1       2.062   2.642  20.777  0.00  0.00    +0.000 C 
BRANCH  22  24
ATOM     23  C   UNL     1       0.708   2.400  18.681  0.00  0.00    +0.000 C 
ATOM     24  C   UNL     1       1.932   1.921  19.442  0.00  0.00    +0.000 C 
ENDBRANCH  22  24
ENDBRANCH  21  22
ENDBRANCH  20  21
ENDBRANCH  18  20
ENDBRANCH  17  19
ENDBRANCH  15  17
ENDBRANCH  14  16
ENDBRANCH   1  14
TORSDOF 17
ENDMDL
MODEL 5
REMARK VINA RESULT:      -5.5      5.339      7.995
REMARK  Name = 
REMARK  19 active torsions:
REMARK  status: ('A' for Active; 'I' for Inactive)
REMARK    1  A    between atoms: C_1  and  C_2
REMARK    2  A    between atoms: C_2  and  C_3
REMARK    3  A    between atoms: C_3  and  C_4
REMARK    4  A    between atoms: C_4  and  C_5
REMARK    5  A    between atoms: C_5  and  C_6
REMARK    6  A    between atoms: C_7  and  C_8
REMARK    7  A    between atoms: C_8  and  C_9
REMARK    8  A    between atoms: C_10  and  C_11
REMARK    9  A    between atoms: C_11  and  C_12
REMARK   10  A    between atoms: C_13  and  C_14
REMARK   11  A    between atoms: C_14  and  C_15
REMARK   12  A    between atoms: C_16  and  C_17
REMARK   13  A    between atoms: C_17  and  C_18
REMARK   14  A    between atoms: C_18  and  C_19
REMARK   15  A    between atoms: C_19  and  C_20
REMARK   16  A    between atoms: C_20  and  O_21
REMARK   17  A    between atoms: O_21  and  C_22
REMARK   18  A    between atoms: C_22  and  C_23
REMARK   19  A    between atoms: C_23  and  C_24
REMARK                            x       y       z     vdW  Elec       q    Type
REMARK                         _______ _______ _______ _____ _____    ______ ____
ROOT
ATOM      1  C   UNL     1       7.837   6.347  18.806  0.00  0.00    +0.000 C 
ATOM      2  C   UNL     1       7.573   5.220  18.123  0.00  0.00    +0.000 C 
ENDROOT
BRANCH   2   3
ATOM      3  C   UNL     1       7.524   5.158  16.625  0.00  0.00    +0.000 C 
BRANCH   3   4
ATOM      4  C   UNL     1       6.329   4.412  16.115  0.00  0.00    +0.000 C 
ATOM      5  C   UNL     1       5.178   5.001  15.756  0.00  0.00    +0.000 C 
BRANCH   5   6
ATOM      6  C   UNL     1       4.974   6.489  15.795  0.00  0.00    +0.000 C 
BRANCH   6   7
ATOM      7  C   UNL     1       4.586   6.990  17.177  0.00  0.00    +0.000 C 
BRANCH   7   8
ATOM      8  C   UNL     1       3.536   6.066  17.799  0.00  0.00    +0.000 C 
BRANCH   8   9
ATOM      9  C   UNL     1       3.874   5.746  19.243  0.00  0.00    +0.000 C 
BRANCH   9  10
ATOM     10  O   UNL     1       2.675   5.397  19.928  0.00  0.00    +0.000 OA
BRANCH  10  11
ATOM     11  C   UNL     1       2.411   4.003  19.827  0.00  0.00    +0.000 C 
BRANCH  11  12
ATOM     12  C   UNL     1       1.127   3.692  20.583  0.00  0.00    +0.000 C 
ATOM     13  C   UNL     1       1.386   2.687  21.690  0.00  0.00    +0.000 C 
ENDBRANCH  11  12
ENDBRANCH  10  11
ENDBRANCH   9  10
ENDBRANCH   8   9
ENDBRANCH   7   8
ENDBRANCH   6   7
ENDBRANCH   5   6
ENDBRANCH   3   4
ENDBRANCH   2   3
BRANCH   1  14
ATOM     14  C   UNL     1       8.078   7.690  18.185  0.00  0.00    +0.000 C 
BRANCH  14  16
ATOM     15  C   UNL     1       8.952   9.965  18.813  0.00  0.00    +0.000 C 
ATOM     16  C   UNL     1       8.768   8.662  19.106  0.00  0.00    +0.000 C 
BRANCH  15  17
ATOM     17  C   UNL     1       8.462  10.613  17.560  0.00  0.00    +0.000 C 
BRANCH  17  19
ATOM     18  C   UNL     1       9.672  12.810  17.614  0.00  0.00    +0.000 C 
ATOM     19  C   UNL     1       8.535  12.106  17.675  0.00  0.00    +0.000 C 
BRANCH  18  20
ATOM     20  C   UNL     1      11.009  12.162  17.418  0.00  0.00    +0.000 C 
BRANCH  20  21
ATOM     21  C   UNL     1      11.902  12.259  18.644  0.00  0.00    +0.000 C 
BRANCH  21  22
ATOM     22  C   UNL     1      11.160  12.992  19.761  0.00  0.00    +0.000 C 
BRANCH  22  24
ATOM     23  C   UNL     1       9.457  12.383  21.496  0.00  0.00    +0.000 C 
ATOM     24  C   UNL     1      10.808  12.038  20.894  0.00  0.00    +0.000 C 
ENDBRANCH  22  24
ENDBRANCH  21  22
ENDBRANCH  20  21
ENDBRANCH  18  20
ENDBRANCH  17  19
ENDBRANCH  15  17
ENDBRANCH  14  16
ENDBRANCH   1  14
TORSDOF 17
ENDMDL
MODEL 6
REMARK VINA RESULT:      -5.4      2.094      7.868
REMARK  Name = 
REMARK  19 active torsions:
REMARK  status: ('A' for Active; 'I' for Inactive)
REMARK    1  A    between atoms: C_1  and  C_2
REMARK    2  A    between atoms: C_2  and  C_3
REMARK    3  A    between atoms: C_3  and  C_4
REMARK    4  A    between atoms: C_4  and  C_5
REMARK    5  A    between atoms: C_5  and  C_6
REMARK    6  A    between atoms: C_7  and  C_8
REMARK    7  A    between atoms: C_8  and  C_9
REMARK    8  A    between atoms: C_10  and  C_11
REMARK    9  A    between atoms: C_11  and  C_12
REMARK   10  A    between atoms: C_13  and  C_14
REMARK   11  A    between atoms: C_14  and  C_15
REMARK   12  A    between atoms: C_16  and  C_17
REMARK   13  A    between atoms: C_17  and  C_18
REMARK   14  A    between atoms: C_18  and  C_19
REMARK   15  A    between atoms: C_19  and  C_20
REMARK   16  A    between atoms: C_20  and  O_21
REMARK   17  A    between atoms: O_21  and  C_22
REMARK   18  A    between atoms: C_22  and  C_23
REMARK   19  A    between atoms: C_23  and  C_24
REMARK                            x       y       z     vdW  Elec       q    Type
REMARK                         _______ _______ _______ _____ _____    ______ ____
ROOT
ATOM      1  C   UNL     1       4.448   3.953  17.840  0.00  0.00    +0.000 C 
ATOM      2  C   UNL     1       3.578   2.944  17.661  0.00  0.00    +0.000 C 
ENDROOT
BRANCH   2   3
ATOM      3  C   UNL     1       3.262   1.932  18.723  0.00  0.00    +0.000 C 
BRANCH   3   4
ATOM      4  C   UNL     1       1.824   1.962  19.141  0.00  0.00    +0.000 C 
ATOM      5  C   UNL     1       1.363   2.672  20.183  0.00  0.00    +0.000 C 
BRANCH   5   6
ATOM      6  C   UNL     1       2.244   3.547  21.029  0.00  0.00    +0.000 C 
BRANCH   6   7
ATOM      7  C   UNL     1       1.763   4.988  21.080  0.00  0.00    +0.000 C 
BRANCH   7   8
ATOM      8  C   UNL     1       1.615   5.546  19.662  0.00  0.00    +0.000 C 
BRANCH   8   9
ATOM      9  C   UNL     1       2.647   6.625  19.388  0.00  0.00    +0.000 C 
BRANCH   9  10
ATOM     10  O   UNL     1       2.532   7.034  18.029  0.00  0.00    +0.000 OA
BRANCH  10  11
ATOM     11  C   UNL     1       2.635   8.447  17.905  0.00  0.00    +0.000 C 
BRANCH  11  12
ATOM     12  C   UNL     1       1.608   9.093  18.825  0.00  0.00    +0.000 C 
ATOM     13  C   UNL     1       0.484   9.718  18.019  0.00  0.00    +0.000 C 
ENDBRANCH  11  12
ENDBRANCH  10  11
ENDBRANCH   9  10
ENDBRANCH   8   9
ENDBRANCH   7   8
ENDBRANCH   6   7
ENDBRANCH   5   6
ENDBRANCH   3   4
ENDBRANCH   2   3
BRANCH   1  14
ATOM     14  C   UNL     1       5.243   4.189  19.090  0.00  0.00    +0.000 C 
BRANCH  14  16
ATOM     15  C   UNL     1       7.144   5.414  17.987  0.00  0.00    +0.000 C 
ATOM     16  C   UNL     1       6.226   5.324  18.969  0.00  0.00    +0.000 C 
BRANCH  15  17
ATOM     17  C   UNL     1       7.275   4.423  16.877  0.00  0.00    +0.000 C 
BRANCH  17  19
ATOM     18  C   UNL     1       6.841   5.233  14.543  0.00  0.00    +0.000 C 
ATOM     19  C   UNL     1       7.655   5.108  15.599  0.00  0.00    +0.000 C 
BRANCH  18  20
ATOM     20  C   UNL     1       5.444   4.691  14.536  0.00  0.00    +0.000 C 
BRANCH  20  21
ATOM     21  C   UNL     1       5.312   3.400  13.746  0.00  0.00    +0.000 C 
BRANCH  21  22
ATOM     22  C   UNL     1       6.088   3.520  12.435  0.00  0.00    +0.000 C 
BRANCH  22  24
ATOM     23  C   UNL     1       7.189   1.772  11.017  0.00  0.00    +0.000 C 
ATOM     24  C   UNL     1       5.871   2.292  11.562  0.00  0.00    +0.000 C 
ENDBRANCH  22  24
ENDBRANCH  21  22
ENDBRANCH  20  21
ENDBRANCH  18  20
ENDBRANCH  17  19
ENDBRANCH  15  17
ENDBRANCH  14  16
ENDBRANCH   1  14
TORSDOF 17
ENDMDL
MODEL 7
REMARK VINA RESULT:      -5.4      2.402      8.223
REMARK  Name = 
REMARK  19 active torsions:
REMARK  status: ('A' for Active; 'I' for Inactive)
REMARK    1  A    between atoms: C_1  and  C_2
REMARK    2  A    between atoms: C_2  and  C_3
REMARK    3  A    between atoms: C_3  and  C_4
REMARK    4  A    between atoms: C_4  and  C_5
REMARK    5  A    between atoms: C_5  and  C_6
REMARK    6  A    between atoms: C_7  and  C_8
REMARK    7  A    between atoms: C_8  and  C_9
REMARK    8  A    between atoms: C_10  and  C_11
REMARK    9  A    between atoms: C_11  and  C_12
REMARK   10  A    between atoms: C_13  and  C_14
REMARK   11  A    between atoms: C_14  and  C_15
REMARK   12  A    between atoms: C_16  and  C_17
REMARK   13  A    between atoms: C_17  and  C_18
REMARK   14  A    between atoms: C_18  and  C_19
REMARK   15  A    between atoms: C_19  and  C_20
REMARK   16  A    between atoms: C_20  and  O_21
REMARK   17  A    between atoms: O_21  and  C_22
REMARK   18  A    between atoms: C_22  and  C_23
REMARK   19  A    between atoms: C_23  and  C_24
REMARK                            x       y       z     vdW  Elec       q    Type
REMARK                         _______ _______ _______ _____ _____    ______ ____
ROOT
ATOM      1  C   UNL     1       2.365   5.620  20.342  0.00  0.00    +0.000 C 
ATOM      2  C   UNL     1       2.785   6.629  19.559  0.00  0.00    +0.000 C 
ENDROOT
BRANCH   2   3
ATOM      3  C   UNL     1       2.018   7.118  18.365  0.00  0.00    +0.000 C 
BRANCH   3   4
ATOM      4  C   UNL     1       2.481   8.460  17.890  0.00  0.00    +0.000 C 
ATOM      5  C   UNL     1       1.689   9.543  17.821  0.00  0.00    +0.000 C 
BRANCH   5   6
ATOM      6  C   UNL     1       0.250   9.530  18.249  0.00  0.00    +0.000 C 
BRANCH   6   7
ATOM      7  C   UNL     1      -0.144  10.781  19.018  0.00  0.00    +0.000 C 
BRANCH   7   8
ATOM      8  C   UNL     1       0.948  11.147  20.026  0.00  0.00    +0.000 C 
BRANCH   8   9
ATOM      9  C   UNL     1       1.269  12.629  19.971  0.00  0.00    +0.000 C 
BRANCH   9  10
ATOM     10  O   UNL     1       2.434  12.816  19.171  0.00  0.00    +0.000 OA
BRANCH  10  11
ATOM     11  C   UNL     1       3.075  14.049  19.475  0.00  0.00    +0.000 C 
BRANCH  11  12
ATOM     12  C   UNL     1       2.544  15.121  18.535  0.00  0.00    +0.000 C 
ATOM     13  C   UNL     1       3.571  15.460  17.472  0.00  0.00    +0.000 C 
ENDBRANCH  11  12
ENDBRANCH  10  11
ENDBRANCH   9  10
ENDBRANCH   8   9
ENDBRANCH   7   8
ENDBRANCH   6   7
ENDBRANCH   5   6
ENDBRANCH   3   4
ENDBRANCH   2   3
BRANCH   1  14
ATOM     14  C   UNL     1       1.113   4.825  20.120  0.00  0.00    +0.000 C 
BRANCH  14  16
ATOM     15  C   UNL     1       1.430   2.344  19.845  0.00  0.00    +0.000 C 
ATOM     16  C   UNL     1       1.201   3.413  20.634  0.00  0.00    +0.000 C 
BRANCH  15  17
ATOM     17  C   UNL     1       1.663   2.433  18.372  0.00  0.00    +0.000 C 
BRANCH  17  19
ATOM     18  C   UNL     1       3.975   2.870  17.502  0.00  0.00    +0.000 C 
ATOM     19  C   UNL     1       3.070   2.040  18.036  0.00  0.00    +0.000 C 
BRANCH  18  20
ATOM     20  C   UNL     1       3.664   4.302  17.184  0.00  0.00    +0.000 C 
BRANCH  20  21
ATOM     21  C   UNL     1       4.749   4.977  16.363  0.00  0.00    +0.000 C 
BRANCH  21  22
ATOM     22  C   UNL     1       5.933   4.026  16.197  0.00  0.00    +0.000 C 
BRANCH  22  24
ATOM     23  C   UNL     1       6.096   3.902  13.699  0.00  0.00    +0.000 C 
ATOM     24  C   UNL     1       6.759   4.396  14.972  0.00  0.00    +0.000 C 
ENDBRANCH  22  24
ENDBRANCH  21  22
ENDBRANCH  20  21
ENDBRANCH  18  20
ENDBRANCH  17  19
ENDBRANCH  15  17
ENDBRANCH  14  16
ENDBRANCH   1  14
TORSDOF 17
ENDMDL
MODEL 8
REMARK VINA RESULT:      -5.4      5.372      9.220
REMARK  Name = 
REMARK  19 active torsions:
REMARK  status: ('A' for Active; 'I' for Inactive)
REMARK    1  A    between atoms: C_1  and  C_2
REMARK    2  A    between atoms: C_2  and  C_3
REMARK    3  A    between atoms: C_3  and  C_4
REMARK    4  A    between atoms: C_4  and  C_5
REMARK    5  A    between atoms: C_5  and  C_6
REMARK    6  A    between atoms: C_7  and  C_8
REMARK    7  A    between atoms: C_8  and  C_9
REMARK    8  A    between atoms: C_10  and  C_11
REMARK    9  A    between atoms: C_11  and  C_12
REMARK   10  A    between atoms: C_13  and  C_14
REMARK   11  A    between atoms: C_14  and  C_15
REMARK   12  A    between atoms: C_16  and  C_17
REMARK   13  A    between atoms: C_17  and  C_18
REMARK   14  A    between atoms: C_18  and  C_19
REMARK   15  A    between atoms: C_19  and  C_20
REMARK   16  A    between atoms: C_20  and  O_21
REMARK   17  A    between atoms: O_21  and  C_22
REMARK   18  A    between atoms: C_22  and  C_23
REMARK   19  A    between atoms: C_23  and  C_24
REMARK                            x       y       z     vdW  Elec       q    Type
REMARK                         _______ _______ _______ _____ _____    ______ ____
ROOT
ATOM      1  C   UNL     1       7.455   7.325  17.509  0.00  0.00    +0.000 C 
ATOM      2  C   UNL     1       7.874   8.599  17.584  0.00  0.00    +0.000 C 
ENDROOT
BRANCH   2   3
ATOM      3  C   UNL     1       8.727   9.120  18.703  0.00  0.00    +0.000 C 
BRANCH   3   4
ATOM      4  C   UNL     1       9.329  10.458  18.398  0.00  0.00    +0.000 C 
ATOM      5  C   UNL     1       9.584  11.392  19.328  0.00  0.00    +0.000 C 
BRANCH   5   6
ATOM      6  C   UNL     1       9.322  11.181  20.792  0.00  0.00    +0.000 C 
BRANCH   6   7
ATOM      7  C   UNL     1       9.689  12.392  21.633  0.00  0.00    +0.000 C 
BRANCH   7   8
ATOM      8  C   UNL     1      10.250  13.503  20.744  0.00  0.00    +0.000 C 
BRANCH   8   9
ATOM      9  C   UNL     1       9.434  14.776  20.876  0.00  0.00    +0.000 C 
BRANCH   9  10
ATOM     10  O   UNL     1       8.050  14.443  20.794  0.00  0.00    +0.000 OA
BRANCH  10  11
ATOM     11  C   UNL     1       7.551  14.636  19.477  0.00  0.00    +0.000 C 
BRANCH  11  12
ATOM     12  C   UNL     1       6.643  15.857  19.473  0.00  0.00    +0.000 C 
ATOM     13  C   UNL     1       5.476  15.655  18.524  0.00  0.00    +0.000 C 
ENDBRANCH  11  12
ENDBRANCH  10  11
ENDBRANCH   9  10
ENDBRANCH   8   9
ENDBRANCH   7   8
ENDBRANCH   6   7
ENDBRANCH   5   6
ENDBRANCH   3   4
ENDBRANCH   2   3
BRANCH   1  14
ATOM     14  C   UNL     1       7.741   6.265  18.532  0.00  0.00    +0.000 C 
BRANCH  14  16
ATOM     15  C   UNL     1       5.911   4.538  18.567  0.00  0.00    +0.000 C 
ATOM     16  C   UNL     1       7.146   4.925  18.189  0.00  0.00    +0.000 C 
BRANCH  15  17
ATOM     17  C   UNL     1       4.969   5.403  19.338  0.00  0.00    +0.000 C 
BRANCH  17  19
ATOM     18  C   UNL     1       2.529   5.826  18.932  0.00  0.00    +0.000 C 
ATOM     19  C   UNL     1       3.793   5.787  18.491  0.00  0.00    +0.000 C 
BRANCH  18  20
ATOM     20  C   UNL     1       2.160   5.485  20.344  0.00  0.00    +0.000 C 
BRANCH  20  21
ATOM     21  C   UNL     1       2.093   3.987  20.595  0.00  0.00    +0.000 C 
BRANCH  21  22
ATOM     22  C   UNL     1       0.758   3.443  20.092  0.00  0.00    +0.000 C 
BRANCH  22  24
ATOM     23  C   UNL     1       2.360   2.040  18.771  0.00  0.00    +0.000 C 
ATOM     24  C   UNL     1       0.952   2.602  18.837  0.00  0.00    +0.000 C 
ENDBRANCH  22  24
ENDBRANCH  21  22
ENDBRANCH  20  21
ENDBRANCH  18  20
ENDBRANCH  17  19
ENDBRANCH  15  17
ENDBRANCH  14  16
ENDBRANCH   1  14
TORSDOF 17
ENDMDL
MODEL 9
REMARK VINA RESULT:      -5.4      2.672      7.882
REMARK  Name = 
REMARK  19 active torsions:
REMARK  status: ('A' for Active; 'I' for Inactive)
REMARK    1  A    between atoms: C_1  and  C_2
REMARK    2  A    between atoms: C_2  and  C_3
REMARK    3  A    between atoms: C_3  and  C_4
REMARK    4  A    between atoms: C_4  and  C_5
REMARK    5  A    between atoms: C_5  and  C_6
REMARK    6  A    between atoms: C_7  and  C_8
REMARK    7  A    between atoms: C_8  and  C_9
REMARK    8  A    between atoms: C_10  and  C_11
REMARK    9  A    between atoms: C_11  and  C_12
REMARK   10  A    between atoms: C_13  and  C_14
REMARK   11  A    between atoms: C_14  and  C_15
REMARK   12  A    between atoms: C_16  and  C_17
REMARK   13  A    between atoms: C_17  and  C_18
REMARK   14  A    between atoms: C_18  and  C_19
REMARK   15  A    between atoms: C_19  and  C_20
REMARK   16  A    between atoms: C_20  and  O_21
REMARK   17  A    between atoms: O_21  and  C_22
REMARK   18  A    between atoms: C_22  and  C_23
REMARK   19  A    between atoms: C_23  and  C_24
REMARK                            x       y       z     vdW  Elec       q    Type
REMARK                         _______ _______ _______ _____ _____    ______ ____
ROOT
ATOM      1  C   UNL     1       2.404   5.388  20.483  0.00  0.00    +0.000 C 
ATOM      2  C   UNL     1       2.982   6.206  19.586  0.00  0.00    +0.000 C 
ENDROOT
BRANCH   2   3
ATOM      3  C   UNL     1       2.289   6.689  18.346  0.00  0.00    +0.000 C 
BRANCH   3   4
ATOM      4  C   UNL     1       2.851   7.979  17.834  0.00  0.00    +0.000 C 
ATOM      5  C   UNL     1       2.193   9.149  17.872  0.00  0.00    +0.000 C 
BRANCH   5   6
ATOM      6  C   UNL     1       0.822   9.296  18.468  0.00  0.00    +0.000 C 
BRANCH   6   7
ATOM      7  C   UNL     1       0.416  10.749  18.651  0.00  0.00    +0.000 C 
BRANCH   7   8
ATOM      8  C   UNL     1       1.658  11.638  18.740  0.00  0.00    +0.000 C 
BRANCH   8   9
ATOM      9  C   UNL     1       1.672  12.432  20.034  0.00  0.00    +0.000 C 
BRANCH   9  10
ATOM     10  O   UNL     1       2.390  13.644  19.820  0.00  0.00    +0.000 OA
BRANCH  10  11
ATOM     11  C   UNL     1       2.398  14.002  18.444  0.00  0.00    +0.000 C 
BRANCH  11  12
ATOM     12  C   UNL     1       3.664  14.796  18.154  0.00  0.00    +0.000 C 
ATOM     13  C   UNL     1       3.357  15.991  17.271  0.00  0.00    +0.000 C 
ENDBRANCH  11  12
ENDBRANCH  10  11
ENDBRANCH   9  10
ENDBRANCH   8   9
ENDBRANCH   7   8
ENDBRANCH   6   7
ENDBRANCH   5   6
ENDBRANCH   3   4
ENDBRANCH   2   3
BRANCH   1  14
ATOM     14  C   UNL     1       1.022   4.819  20.359  0.00  0.00    +0.000 C 
BRANCH  14  16
ATOM     15  C   UNL     1       1.338   2.455  19.556  0.00  0.00    +0.000 C 
ATOM     16  C   UNL     1       0.973   3.323  20.521  0.00  0.00    +0.000 C 
BRANCH  15  17
ATOM     17  C   UNL     1       1.871   2.871  18.223  0.00  0.00    +0.000 C 
BRANCH  17  19
ATOM     18  C   UNL     1       4.278   2.618  17.564  0.00  0.00    +0.000 C 
ATOM     19  C   UNL     1       3.094   2.076  17.874  0.00  0.00    +0.000 C 
BRANCH  18  20
ATOM     20  C   UNL     1       4.503   4.100  17.538  0.00  0.00    +0.000 C 
BRANCH  20  21
ATOM     21  C   UNL     1       4.616   4.659  16.129  0.00  0.00    +0.000 C 
BRANCH  21  22
ATOM     22  C   UNL     1       5.515   5.894  16.139  0.00  0.00    +0.000 C 
BRANCH  22  24
ATOM     23  C   UNL     1       7.360   6.677  17.643  0.00  0.00    +0.000 C 
ATOM     24  C   UNL     1       6.881   5.566  16.727  0.00  0.00    +0.000 C 
ENDBRANCH  22  24
ENDBRANCH  21  22
ENDBRANCH  20  21
ENDBRANCH  18  20
ENDBRANCH  17  19
ENDBRANCH  15  17
ENDBRANCH  14  16
ENDBRANCH   1  14
TORSDOF 17
ENDMDL
