MODEL 1
REMARK VINA RESULT:      -8.4      0.000      0.000
REMARK  Name = 
REMARK  6 active torsions:
REMARK  status: ('A' for Active; 'I' for Inactive)
REMARK    1  A    between atoms: C_1  and  C_2
REMARK    2  A    between atoms: C_2  and  C_3
REMARK    3  A    between atoms: C_6  and  C_8
REMARK    4  A    between atoms: C_13  and  O_14
REMARK    5  A    between atoms: O_14  and  C_15
REMARK    6  A    between atoms: C_18  and  C_19
REMARK                            x       y       z     vdW  Elec       q    Type
REMARK                         _______ _______ _______ _____ _____    ______ ____
ROOT
ATOM      1  C   UNL     1       2.197   7.246  18.555  0.00  0.00    +0.000 A 
ATOM      2  C   UNL     1       2.162   8.315  17.668  0.00  0.00    +0.000 A 
ATOM      3  C   UNL     1       1.777   9.563  18.152  0.00  0.00    +0.000 A 
ATOM      4  C   UNL     1       1.415   9.706  19.502  0.00  0.00    +0.000 A 
ATOM      5  C   UNL     1       0.933  10.913  20.043  0.00  0.00    +0.000 A 
ATOM      6  C   UNL     1       0.541  10.979  21.384  0.00  0.00    +0.000 A 
ATOM      7  C   UNL     1       0.592   9.828  22.170  0.00  0.00    +0.000 A 
ATOM      8  C   UNL     1       1.113   8.648  21.643  0.00  0.00    +0.000 A 
ATOM      9  C   UNL     1       1.524   8.568  20.326  0.00  0.00    +0.000 A 
ATOM     10  N   UNL     1       1.952   7.386  19.878  0.00  0.00    +0.000 NA
ENDROOT
BRANCH   1  14
ATOM     11  C   UNL     1       4.781   3.139  18.343  0.00  0.00    +0.000 C 
ATOM     12  C   UNL     1       3.963   4.025  17.368  0.00  0.00    +0.000 C 
ATOM     13  N   UNL     1       3.749   5.366  17.916  0.00  0.00    +0.000 N 
ATOM     14  C   UNL     1       2.447   5.859  18.035  0.00  0.00    +0.000 C 
ATOM     15  O   UNL     1       1.456   5.169  17.771  0.00  0.00    +0.000 OA
ATOM     16  C   UNL     1       4.998   6.038  18.293  0.00  0.00    +0.000 C 
ATOM     17  C   UNL     1       5.893   5.157  19.180  0.00  0.00    +0.000 C 
ATOM     18  N   UNL     1       6.070   3.777  18.708  0.00  0.00    +0.000 NA
ATOM     19  H   UNL     1       6.526   3.233  19.440  0.00  0.00    +0.000 HD
BRANCH  11  21
ATOM     20  C   UNL     1       2.614   2.153  19.276  0.00  0.00    +0.000 C 
ATOM     21  C   UNL     1       3.986   2.731  19.602  0.00  0.00    +0.000 C 
ENDBRANCH  11  21
ENDBRANCH   1  14
BRANCH   6  22
ATOM     22  O   UNL     1       0.040  12.179  21.835  0.00  0.00    +0.000 OA
BRANCH  22  23
ATOM     23  C   UNL     1      -1.341  12.335  21.881  0.00  0.00    +0.000 A 
ATOM     24  C   UNL     1      -1.944  12.211  23.122  0.00  0.00    +0.000 A 
ATOM     25  C   UNL     1      -3.327  12.373  23.204  0.00  0.00    +0.000 A 
ATOM     26  C   UNL     1      -4.064  12.649  22.047  0.00  0.00    +0.000 A 
ATOM     27  C   UNL     1      -3.369  12.736  20.851  0.00  0.00    +0.000 A 
ATOM     28  N   UNL     1      -2.033  12.571  20.742  0.00  0.00    +0.000 NA
BRANCH  26  29
ATOM     29  C   UNL     1      -5.548  12.847  22.046  0.00  0.00    +0.000 C 
ATOM     30  F   UNL     1      -5.927  14.112  21.715  0.00  0.00    +0.000 F 
ATOM     31  F   UNL     1      -6.181  12.025  21.165  0.00  0.00    +0.000 F 
ATOM     32  F   UNL     1      -6.107  12.593  23.261  0.00  0.00    +0.000 F 
ENDBRANCH  26  29
ENDBRANCH  22  23
ENDBRANCH   6  22
TORSDOF 5
ENDMDL
MODEL 2
REMARK VINA RESULT:      -8.3      2.341      3.196
REMARK  Name = 
REMARK  6 active torsions:
REMARK  status: ('A' for Active; 'I' for Inactive)
REMARK    1  A    between atoms: C_1  and  C_2
REMARK    2  A    between atoms: C_2  and  C_3
REMARK    3  A    between atoms: C_6  and  C_8
REMARK    4  A    between atoms: C_13  and  O_14
REMARK    5  A    between atoms: O_14  and  C_15
REMARK    6  A    between atoms: C_18  and  C_19
REMARK                            x       y       z     vdW  Elec       q    Type
REMARK                         _______ _______ _______ _____ _____    ______ ____
ROOT
ATOM      1  C   UNL     1       2.742   7.016  19.251  0.00  0.00    +0.000 A 
ATOM      2  C   UNL     1       2.905   7.582  17.993  0.00  0.00    +0.000 A 
ATOM      3  C   UNL     1       2.210   8.753  17.701  0.00  0.00    +0.000 A 
ATOM      4  C   UNL     1       1.353   9.314  18.662  0.00  0.00    +0.000 A 
ATOM      5  C   UNL     1       0.553  10.445  18.410  0.00  0.00    +0.000 A 
ATOM      6  C   UNL     1      -0.318  10.927  19.392  0.00  0.00    +0.000 A 
ATOM      7  C   UNL     1      -0.417  10.253  20.609  0.00  0.00    +0.000 A 
ATOM      8  C   UNL     1       0.410   9.163  20.871  0.00  0.00    +0.000 A 
ATOM      9  C   UNL     1       1.291   8.684  19.921  0.00  0.00    +0.000 A 
ATOM     10  N   UNL     1       2.004   7.597  20.224  0.00  0.00    +0.000 NA
ENDROOT
BRANCH   1  14
ATOM     11  C   UNL     1       2.581   2.162  19.326  0.00  0.00    +0.000 C 
ATOM     12  C   UNL     1       3.156   3.299  20.210  0.00  0.00    +0.000 C 
ATOM     13  N   UNL     1       2.536   4.587  19.894  0.00  0.00    +0.000 N 
ATOM     14  C   UNL     1       3.345   5.671  19.542  0.00  0.00    +0.000 C 
ATOM     15  O   UNL     1       4.568   5.560  19.406  0.00  0.00    +0.000 OA
ATOM     16  C   UNL     1       1.071   4.558  19.986  0.00  0.00    +0.000 C 
ATOM     17  C   UNL     1       0.459   3.383  19.205  0.00  0.00    +0.000 C 
ATOM     18  N   UNL     1       1.103   2.083  19.433  0.00  0.00    +0.000 NA
ATOM     19  H   UNL     1       0.746   1.414  18.752  0.00  0.00    +0.000 HD
BRANCH  11  21
ATOM     20  C   UNL     1       4.476   2.708  17.697  0.00  0.00    +0.000 C 
ATOM     21  C   UNL     1       3.027   2.258  17.851  0.00  0.00    +0.000 C 
ENDBRANCH  11  21
ENDBRANCH   1  14
BRANCH   6  22
ATOM     22  O   UNL     1      -1.101  12.010  19.062  0.00  0.00    +0.000 OA
BRANCH  22  23
ATOM     23  C   UNL     1      -2.474  11.818  18.964  0.00  0.00    +0.000 A 
ATOM     24  C   UNL     1      -2.922  11.017  17.925  0.00  0.00    +0.000 A 
ATOM     25  C   UNL     1      -4.294  10.795  17.805  0.00  0.00    +0.000 A 
ATOM     26  C   UNL     1      -5.175  11.383  18.720  0.00  0.00    +0.000 A 
ATOM     27  C   UNL     1      -4.628  12.181  19.712  0.00  0.00    +0.000 A 
ATOM     28  N   UNL     1      -3.306  12.422  19.843  0.00  0.00    +0.000 NA
BRANCH  26  29
ATOM     29  C   UNL     1      -6.658  11.190  18.671  0.00  0.00    +0.000 C 
ATOM     30  F   UNL     1      -7.323  11.824  19.676  0.00  0.00    +0.000 F 
ATOM     31  F   UNL     1      -7.204  11.653  17.513  0.00  0.00    +0.000 F 
ATOM     32  F   UNL     1      -7.015   9.879  18.753  0.00  0.00    +0.000 F 
ENDBRANCH  26  29
ENDBRANCH  22  23
ENDBRANCH   6  22
TORSDOF 5
ENDMDL
MODEL 3
REMARK VINA RESULT:      -8.2      2.263      2.959
REMARK  Name = 
REMARK  6 active torsions:
REMARK  status: ('A' for Active; 'I' for Inactive)
REMARK    1  A    between atoms: C_1  and  C_2
REMARK    2  A    between atoms: C_2  and  C_3
REMARK    3  A    between atoms: C_6  and  C_8
REMARK    4  A    between atoms: C_13  and  O_14
REMARK    5  A    between atoms: O_14  and  C_15
REMARK    6  A    between atoms: C_18  and  C_19
REMARK                            x       y       z     vdW  Elec       q    Type
REMARK                         _______ _______ _______ _____ _____    ______ ____
ROOT
ATOM      1  C   UNL     1       2.654   7.422  18.931  0.00  0.00    +0.000 A 
ATOM      2  C   UNL     1       2.737   8.167  17.761  0.00  0.00    +0.000 A 
ATOM      3  C   UNL     1       1.995   9.342  17.671  0.00  0.00    +0.000 A 
ATOM      4  C   UNL     1       1.170   9.729  18.741  0.00  0.00    +0.000 A 
ATOM      5  C   UNL     1       0.325  10.855  18.690  0.00  0.00    +0.000 A 
ATOM      6  C   UNL     1      -0.509  11.160  19.770  0.00  0.00    +0.000 A 
ATOM      7  C   UNL     1      -0.528  10.317  20.880  0.00  0.00    +0.000 A 
ATOM      8  C   UNL     1       0.343   9.231  20.946  0.00  0.00    +0.000 A 
ATOM      9  C   UNL     1       1.189   8.925  19.898  0.00  0.00    +0.000 A 
ATOM     10  N   UNL     1       1.948   7.832  20.009  0.00  0.00    +0.000 NA
ENDROOT
BRANCH   1  14
ATOM     11  C   UNL     1       2.517   2.606  19.541  0.00  0.00    +0.000 C 
ATOM     12  C   UNL     1       3.474   3.774  19.891  0.00  0.00    +0.000 C 
ATOM     13  N   UNL     1       2.790   5.066  19.816  0.00  0.00    +0.000 N 
ATOM     14  C   UNL     1       3.310   6.072  18.998  0.00  0.00    +0.000 C 
ATOM     15  O   UNL     1       4.287   5.883  18.264  0.00  0.00    +0.000 OA
ATOM     16  C   UNL     1       1.583   5.126  20.649  0.00  0.00    +0.000 C 
ATOM     17  C   UNL     1       0.647   3.930  20.410  0.00  0.00    +0.000 C 
ATOM     18  N   UNL     1       1.306   2.618  20.398  0.00  0.00    +0.000 NA
ATOM     19  H   UNL     1       0.644   1.919  20.065  0.00  0.00    +0.000 HD
BRANCH  11  21
ATOM     20  C   UNL     1       3.333   2.778  17.123  0.00  0.00    +0.000 C 
ATOM     21  C   UNL     1       2.138   2.561  18.044  0.00  0.00    +0.000 C 
ENDBRANCH  11  21
ENDBRANCH   1  14
BRANCH   6  22
ATOM     22  O   UNL     1      -1.339  12.249  19.634  0.00  0.00    +0.000 OA
BRANCH  22  23
ATOM     23  C   UNL     1      -2.683  12.018  19.365  0.00  0.00    +0.000 A 
ATOM     24  C   UNL     1      -3.602  12.570  20.243  0.00  0.00    +0.000 A 
ATOM     25  C   UNL     1      -4.960  12.366  19.994  0.00  0.00    +0.000 A 
ATOM     26  C   UNL     1      -5.357  11.614  18.882  0.00  0.00    +0.000 A 
ATOM     27  C   UNL     1      -4.359  11.090  18.075  0.00  0.00    +0.000 A 
ATOM     28  N   UNL     1      -3.039  11.262  18.300  0.00  0.00    +0.000 NA
BRANCH  26  29
ATOM     29  C   UNL     1      -6.789  11.355  18.536  0.00  0.00    +0.000 C 
ATOM     30  F   UNL     1      -7.171  11.909  17.353  0.00  0.00    +0.000 F 
ATOM     31  F   UNL     1      -7.067  10.026  18.432  0.00  0.00    +0.000 F 
ATOM     32  F   UNL     1      -7.647  11.843  19.474  0.00  0.00    +0.000 F 
ENDBRANCH  26  29
ENDBRANCH  22  23
ENDBRANCH   6  22
TORSDOF 5
ENDMDL
MODEL 4
REMARK VINA RESULT:      -8.2      0.497      1.113
REMARK  Name = 
REMARK  6 active torsions:
REMARK  status: ('A' for Active; 'I' for Inactive)
REMARK    1  A    between atoms: C_1  and  C_2
REMARK    2  A    between atoms: C_2  and  C_3
REMARK    3  A    between atoms: C_6  and  C_8
REMARK    4  A    between atoms: C_13  and  O_14
REMARK    5  A    between atoms: O_14  and  C_15
REMARK    6  A    between atoms: C_18  and  C_19
REMARK                            x       y       z     vdW  Elec       q    Type
REMARK                         _______ _______ _______ _____ _____    ______ ____
ROOT
ATOM      1  C   UNL     1       2.182   7.271  18.594  0.00  0.00    +0.000 A 
ATOM      2  C   UNL     1       2.181   8.343  17.711  0.00  0.00    +0.000 A 
ATOM      3  C   UNL     1       1.796   9.593  18.190  0.00  0.00    +0.000 A 
ATOM      4  C   UNL     1       1.398   9.734  19.530  0.00  0.00    +0.000 A 
ATOM      5  C   UNL     1       0.914  10.944  20.063  0.00  0.00    +0.000 A 
ATOM      6  C   UNL     1       0.487  11.009  21.393  0.00  0.00    +0.000 A 
ATOM      7  C   UNL     1       0.507   9.855  22.175  0.00  0.00    +0.000 A 
ATOM      8  C   UNL     1       1.030   8.671  21.658  0.00  0.00    +0.000 A 
ATOM      9  C   UNL     1       1.475   8.593  20.352  0.00  0.00    +0.000 A 
ATOM     10  N   UNL     1       1.904   7.408  19.910  0.00  0.00    +0.000 NA
ENDROOT
BRANCH   1  14
ATOM     11  C   UNL     1       4.799   3.187  18.341  0.00  0.00    +0.000 C 
ATOM     12  C   UNL     1       3.950   4.060  17.382  0.00  0.00    +0.000 C 
ATOM     13  N   UNL     1       3.737   5.402  17.928  0.00  0.00    +0.000 N 
ATOM     14  C   UNL     1       2.433   5.884  18.075  0.00  0.00    +0.000 C 
ATOM     15  O   UNL     1       1.443   5.184  17.838  0.00  0.00    +0.000 OA
ATOM     16  C   UNL     1       4.987   6.087  18.272  0.00  0.00    +0.000 C 
ATOM     17  C   UNL     1       5.911   5.219  19.143  0.00  0.00    +0.000 C 
ATOM     18  N   UNL     1       6.090   3.839  18.673  0.00  0.00    +0.000 NA
ATOM     19  H   UNL     1       6.568   3.303  19.396  0.00  0.00    +0.000 HD
BRANCH  11  21
ATOM     20  C   UNL     1       2.667   2.177  19.330  0.00  0.00    +0.000 C 
ATOM     21  C   UNL     1       4.037   2.778  19.621  0.00  0.00    +0.000 C 
ENDBRANCH  11  21
ENDBRANCH   1  14
BRANCH   6  22
ATOM     22  O   UNL     1      -0.014  12.212  21.835  0.00  0.00    +0.000 OA
BRANCH  22  23
ATOM     23  C   UNL     1      -1.395  12.368  21.880  0.00  0.00    +0.000 A 
ATOM     24  C   UNL     1      -2.033  12.642  20.681  0.00  0.00    +0.000 A 
ATOM     25  C   UNL     1      -3.420  12.793  20.689  0.00  0.00    +0.000 A 
ATOM     26  C   UNL     1      -4.125  12.673  21.893  0.00  0.00    +0.000 A 
ATOM     27  C   UNL     1      -3.391  12.416  23.040  0.00  0.00    +0.000 A 
ATOM     28  N   UNL     1      -2.048  12.277  23.061  0.00  0.00    +0.000 NA
BRANCH  26  29
ATOM     29  C   UNL     1      -5.612  12.810  21.990  0.00  0.00    +0.000 C 
ATOM     30  F   UNL     1      -6.292  11.870  21.279  0.00  0.00    +0.000 F 
ATOM     31  F   UNL     1      -6.060  12.706  23.272  0.00  0.00    +0.000 F 
ATOM     32  F   UNL     1      -6.053  14.016  21.538  0.00  0.00    +0.000 F 
ENDBRANCH  26  29
ENDBRANCH  22  23
ENDBRANCH   6  22
TORSDOF 5
ENDMDL
MODEL 5
REMARK VINA RESULT:      -8.2      2.262      3.105
REMARK  Name = 
REMARK  6 active torsions:
REMARK  status: ('A' for Active; 'I' for Inactive)
REMARK    1  A    between atoms: C_1  and  C_2
REMARK    2  A    between atoms: C_2  and  C_3
REMARK    3  A    between atoms: C_6  and  C_8
REMARK    4  A    between atoms: C_13  and  O_14
REMARK    5  A    between atoms: O_14  and  C_15
REMARK    6  A    between atoms: C_18  and  C_19
REMARK                            x       y       z     vdW  Elec       q    Type
REMARK                         _______ _______ _______ _____ _____    ______ ____
ROOT
ATOM      1  C   UNL     1       2.595   7.558  18.895  0.00  0.00    +0.000 A 
ATOM      2  C   UNL     1       2.645   8.328  17.739  0.00  0.00    +0.000 A 
ATOM      3  C   UNL     1       1.894   9.500  17.694  0.00  0.00    +0.000 A 
ATOM      4  C   UNL     1       1.095   9.859  18.791  0.00  0.00    +0.000 A 
ATOM      5  C   UNL     1       0.243  10.981  18.786  0.00  0.00    +0.000 A 
ATOM      6  C   UNL     1      -0.566  11.258  19.892  0.00  0.00    +0.000 A 
ATOM      7  C   UNL     1      -0.553  10.392  20.985  0.00  0.00    +0.000 A 
ATOM      8  C   UNL     1       0.325   9.310  21.005  0.00  0.00    +0.000 A 
ATOM      9  C   UNL     1       1.147   9.031  19.930  0.00  0.00    +0.000 A 
ATOM     10  N   UNL     1       1.914   7.940  19.998  0.00  0.00    +0.000 NA
ENDROOT
BRANCH   1  14
ATOM     11  C   UNL     1       2.514   2.738  19.487  0.00  0.00    +0.000 C 
ATOM     12  C   UNL     1       3.485   3.909  19.787  0.00  0.00    +0.000 C 
ATOM     13  N   UNL     1       2.792   5.198  19.759  0.00  0.00    +0.000 N 
ATOM     14  C   UNL     1       3.260   6.210  18.916  0.00  0.00    +0.000 C 
ATOM     15  O   UNL     1       4.192   6.030  18.126  0.00  0.00    +0.000 OA
ATOM     16  C   UNL     1       1.636   5.248  20.661  0.00  0.00    +0.000 C 
ATOM     17  C   UNL     1       0.692   4.049  20.470  0.00  0.00    +0.000 C 
ATOM     18  N   UNL     1       1.355   2.740  20.413  0.00  0.00    +0.000 NA
ATOM     19  H   UNL     1       0.677   2.039  20.115  0.00  0.00    +0.000 HD
BRANCH  11  21
ATOM     20  C   UNL     1       3.182   2.957  17.028  0.00  0.00    +0.000 C 
ATOM     21  C   UNL     1       2.049   2.699  18.014  0.00  0.00    +0.000 C 
ENDBRANCH  11  21
ENDBRANCH   1  14
BRANCH   6  22
ATOM     22  O   UNL     1      -1.405  12.346  19.801  0.00  0.00    +0.000 OA
BRANCH  22  23
ATOM     23  C   UNL     1      -2.741  12.117  19.492  0.00  0.00    +0.000 A 
ATOM     24  C   UNL     1      -3.003  11.425  18.321  0.00  0.00    +0.000 A 
ATOM     25  C   UNL     1      -4.334  11.169  17.988  0.00  0.00    +0.000 A 
ATOM     26  C   UNL     1      -5.359  11.616  18.830  0.00  0.00    +0.000 A 
ATOM     27  C   UNL     1      -4.992  12.314  19.969  0.00  0.00    +0.000 A 
ATOM     28  N   UNL     1      -3.714  12.586  20.308  0.00  0.00    +0.000 NA
BRANCH  26  29
ATOM     29  C   UNL     1      -6.810  11.376  18.554  0.00  0.00    +0.000 C 
ATOM     30  F   UNL     1      -7.135  10.057  18.459  0.00  0.00    +0.000 F 
ATOM     31  F   UNL     1      -7.615  11.889  19.525  0.00  0.00    +0.000 F 
ATOM     32  F   UNL     1      -7.219  11.948  17.389  0.00  0.00    +0.000 F 
ENDBRANCH  26  29
ENDBRANCH  22  23
ENDBRANCH   6  22
TORSDOF 5
ENDMDL
MODEL 6
REMARK VINA RESULT:      -8.0      0.708      1.082
REMARK  Name = 
REMARK  6 active torsions:
REMARK  status: ('A' for Active; 'I' for Inactive)
REMARK    1  A    between atoms: C_1  and  C_2
REMARK    2  A    between atoms: C_2  and  C_3
REMARK    3  A    between atoms: C_6  and  C_8
REMARK    4  A    between atoms: C_13  and  O_14
REMARK    5  A    between atoms: O_14  and  C_15
REMARK    6  A    between atoms: C_18  and  C_19
REMARK                            x       y       z     vdW  Elec       q    Type
REMARK                         _______ _______ _______ _____ _____    ______ ____
ROOT
ATOM      1  C   UNL     1       2.155   7.268  18.480  0.00  0.00    +0.000 A 
ATOM      2  C   UNL     1       2.226   8.265  17.515  0.00  0.00    +0.000 A 
ATOM      3  C   UNL     1       1.871   9.562  17.876  0.00  0.00    +0.000 A 
ATOM      4  C   UNL     1       1.429   9.825  19.183  0.00  0.00    +0.000 A 
ATOM      5  C   UNL     1       0.970  11.090  19.598  0.00  0.00    +0.000 A 
ATOM      6  C   UNL     1       0.496  11.277  20.900  0.00  0.00    +0.000 A 
ATOM      7  C   UNL     1       0.443  10.190  21.772  0.00  0.00    +0.000 A 
ATOM      8  C   UNL     1       0.941   8.952  21.373  0.00  0.00    +0.000 A 
ATOM      9  C   UNL     1       1.432   8.752  20.097  0.00  0.00    +0.000 A 
ATOM     10  N   UNL     1       1.832   7.521  19.768  0.00  0.00    +0.000 NA
ENDROOT
BRANCH   1  14
ATOM     11  C   UNL     1       4.684   3.123  18.574  0.00  0.00    +0.000 C 
ATOM     12  C   UNL     1       3.846   3.926  17.546  0.00  0.00    +0.000 C 
ATOM     13  N   UNL     1       3.665   5.315  17.973  0.00  0.00    +0.000 N 
ATOM     14  C   UNL     1       2.373   5.835  18.083  0.00  0.00    +0.000 C 
ATOM     15  O   UNL     1       1.366   5.139  17.914  0.00  0.00    +0.000 OA
ATOM     16  C   UNL     1       4.932   6.001  18.248  0.00  0.00    +0.000 C 
ATOM     17  C   UNL     1       5.843   5.193  19.187  0.00  0.00    +0.000 C 
ATOM     18  N   UNL     1       5.990   3.773  18.840  0.00  0.00    +0.000 NA
ATOM     19  H   UNL     1       6.462   3.293  19.605  0.00  0.00    +0.000 HD
BRANCH  11  21
ATOM     20  C   UNL     1       2.497   2.357  19.658  0.00  0.00    +0.000 C 
ATOM     21  C   UNL     1       3.923   2.844  19.889  0.00  0.00    +0.000 C 
ENDBRANCH  11  21
ENDBRANCH   1  14
BRANCH   6  22
ATOM     22  O   UNL     1       0.024  12.529  21.224  0.00  0.00    +0.000 OA
BRANCH  22  23
ATOM     23  C   UNL     1      -1.235  12.622  21.807  0.00  0.00    +0.000 A 
ATOM     24  C   UNL     1      -1.279  12.928  23.157  0.00  0.00    +0.000 A 
ATOM     25  C   UNL     1      -2.527  13.040  23.770  0.00  0.00    +0.000 A 
ATOM     26  C   UNL     1      -3.690  12.838  23.018  0.00  0.00    +0.000 A 
ATOM     27  C   UNL     1      -3.538  12.519  21.678  0.00  0.00    +0.000 A 
ATOM     28  N   UNL     1      -2.343  12.392  21.064  0.00  0.00    +0.000 NA
BRANCH  26  29
ATOM     29  C   UNL     1      -5.068  12.949  23.592  0.00  0.00    +0.000 C 
ATOM     30  F   UNL     1      -5.253  12.194  24.710  0.00  0.00    +0.000 F 
ATOM     31  F   UNL     1      -5.381  14.225  23.948  0.00  0.00    +0.000 F 
ATOM     32  F   UNL     1      -6.031  12.559  22.713  0.00  0.00    +0.000 F 
ENDBRANCH  26  29
ENDBRANCH  22  23
ENDBRANCH   6  22
TORSDOF 5
ENDMDL
MODEL 7
REMARK VINA RESULT:      -8.0      2.449      3.099
REMARK  Name = 
REMARK  6 active torsions:
REMARK  status: ('A' for Active; 'I' for Inactive)
REMARK    1  A    between atoms: C_1  and  C_2
REMARK    2  A    between atoms: C_2  and  C_3
REMARK    3  A    between atoms: C_6  and  C_8
REMARK    4  A    between atoms: C_13  and  O_14
REMARK    5  A    between atoms: O_14  and  C_15
REMARK    6  A    between atoms: C_18  and  C_19
REMARK                            x       y       z     vdW  Elec       q    Type
REMARK                         _______ _______ _______ _____ _____    ______ ____
ROOT
ATOM      1  C   UNL     1       2.571   7.244  19.324  0.00  0.00    +0.000 A 
ATOM      2  C   UNL     1       2.360   7.906  18.121  0.00  0.00    +0.000 A 
ATOM      3  C   UNL     1       1.515   9.013  18.115  0.00  0.00    +0.000 A 
ATOM      4  C   UNL     1       0.884   9.414  19.304  0.00  0.00    +0.000 A 
ATOM      5  C   UNL     1      -0.050  10.467  19.360  0.00  0.00    +0.000 A 
ATOM      6  C   UNL     1      -0.682  10.787  20.565  0.00  0.00    +0.000 A 
ATOM      7  C   UNL     1      -0.411  10.028  21.703  0.00  0.00    +0.000 A 
ATOM      8  C   UNL     1       0.547   9.018  21.655  0.00  0.00    +0.000 A 
ATOM      9  C   UNL     1       1.197   8.699  20.477  0.00  0.00    +0.000 A 
ATOM     10  N   UNL     1       2.055   7.677  20.496  0.00  0.00    +0.000 NA
ENDROOT
BRANCH   1  14
ATOM     11  C   UNL     1       2.833   2.395  19.243  0.00  0.00    +0.000 C 
ATOM     12  C   UNL     1       3.583   3.567  19.926  0.00  0.00    +0.000 C 
ATOM     13  N   UNL     1       2.792   4.798  19.894  0.00  0.00    +0.000 N 
ATOM     14  C   UNL     1       3.342   5.954  19.335  0.00  0.00    +0.000 C 
ATOM     15  O   UNL     1       4.449   5.956  18.786  0.00  0.00    +0.000 OA
ATOM     16  C   UNL     1       1.455   4.637  20.478  0.00  0.00    +0.000 C 
ATOM     17  C   UNL     1       0.708   3.422  19.903  0.00  0.00    +0.000 C 
ATOM     18  N   UNL     1       1.493   2.182  19.843  0.00  0.00    +0.000 NA
ATOM     19  H   UNL     1       0.979   1.492  19.297  0.00  0.00    +0.000 HD
BRANCH  11  21
ATOM     20  C   UNL     1       4.027   3.068  17.084  0.00  0.00    +0.000 C 
ATOM     21  C   UNL     1       2.738   2.548  17.709  0.00  0.00    +0.000 C 
ENDBRANCH  11  21
ENDBRANCH   1  14
BRANCH   6  22
ATOM     22  O   UNL     1      -1.614  11.800  20.537  0.00  0.00    +0.000 OA
BRANCH  22  23
ATOM     23  C   UNL     1      -1.721  12.621  21.654  0.00  0.00    +0.000 A 
ATOM     24  C   UNL     1      -2.883  12.513  22.401  0.00  0.00    +0.000 A 
ATOM     25  C   UNL     1      -3.017  13.315  23.535  0.00  0.00    +0.000 A 
ATOM     26  C   UNL     1      -1.992  14.203  23.882  0.00  0.00    +0.000 A 
ATOM     27  C   UNL     1      -0.878  14.249  23.059  0.00  0.00    +0.000 A 
ATOM     28  N   UNL     1      -0.729  13.492  21.950  0.00  0.00    +0.000 NA
BRANCH  26  29
ATOM     29  C   UNL     1      -2.049  15.092  25.085  0.00  0.00    +0.000 C 
ATOM     30  F   UNL     1      -0.848  15.243  25.707  0.00  0.00    +0.000 F 
ATOM     31  F   UNL     1      -2.473  16.350  24.782  0.00  0.00    +0.000 F 
ATOM     32  F   UNL     1      -2.907  14.628  26.034  0.00  0.00    +0.000 F 
ENDBRANCH  26  29
ENDBRANCH  22  23
ENDBRANCH   6  22
TORSDOF 5
ENDMDL
MODEL 8
REMARK VINA RESULT:      -7.9      5.381     10.717
REMARK  Name = 
REMARK  6 active torsions:
REMARK  status: ('A' for Active; 'I' for Inactive)
REMARK    1  A    between atoms: C_1  and  C_2
REMARK    2  A    between atoms: C_2  and  C_3
REMARK    3  A    between atoms: C_6  and  C_8
REMARK    4  A    between atoms: C_13  and  O_14
REMARK    5  A    between atoms: O_14  and  C_15
REMARK    6  A    between atoms: C_18  and  C_19
REMARK                            x       y       z     vdW  Elec       q    Type
REMARK                         _______ _______ _______ _____ _____    ______ ____
ROOT
ATOM      1  C   UNL     1       0.052  11.198  21.533  0.00  0.00    +0.000 A 
ATOM      2  C   UNL     1      -0.150  10.294  22.568  0.00  0.00    +0.000 A 
ATOM      3  C   UNL     1       0.319   8.992  22.409  0.00  0.00    +0.000 A 
ATOM      4  C   UNL     1       0.954   8.620  21.212  0.00  0.00    +0.000 A 
ATOM      5  C   UNL     1       1.375   7.304  20.944  0.00  0.00    +0.000 A 
ATOM      6  C   UNL     1       1.957   6.986  19.713  0.00  0.00    +0.000 A 
ATOM      7  C   UNL     1       2.078   7.975  18.737  0.00  0.00    +0.000 A 
ATOM      8  C   UNL     1       1.702   9.286  19.023  0.00  0.00    +0.000 A 
ATOM      9  C   UNL     1       1.144   9.624  20.242  0.00  0.00    +0.000 A 
ATOM     10  N   UNL     1       0.751  10.888  20.418  0.00  0.00    +0.000 NA
ENDROOT
BRANCH   1  14
ATOM     11  C   UNL     1      -3.676  14.238  20.862  0.00  0.00    +0.000 C 
ATOM     12  C   UNL     1      -2.130  14.284  20.748  0.00  0.00    +0.000 C 
ATOM     13  N   UNL     1      -1.559  12.938  20.678  0.00  0.00    +0.000 N 
ATOM     14  C   UNL     1      -0.582  12.558  21.603  0.00  0.00    +0.000 C 
ATOM     15  O   UNL     1      -0.240  13.292  22.536  0.00  0.00    +0.000 OA
ATOM     16  C   UNL     1      -2.128  12.128  19.595  0.00  0.00    +0.000 C 
ATOM     17  C   UNL     1      -3.666  12.134  19.605  0.00  0.00    +0.000 C 
ATOM     18  N   UNL     1      -4.281  13.460  19.753  0.00  0.00    +0.000 NA
ATOM     19  H   UNL     1      -5.279  13.344  19.922  0.00  0.00    +0.000 HD
BRANCH  11  21
ATOM     20  C   UNL     1      -3.908  14.717  23.363  0.00  0.00    +0.000 C 
ATOM     21  C   UNL     1      -4.167  13.727  22.234  0.00  0.00    +0.000 C 
ENDBRANCH  11  21
ENDBRANCH   1  14
BRANCH   6  22
ATOM     22  O   UNL     1       2.306   5.671  19.503  0.00  0.00    +0.000 OA
BRANCH  22  23
ATOM     23  C   UNL     1       3.483   5.410  18.809  0.00  0.00    +0.000 A 
ATOM     24  C   UNL     1       3.354   4.912  17.523  0.00  0.00    +0.000 A 
ATOM     25  C   UNL     1       4.515   4.650  16.796  0.00  0.00    +0.000 A 
ATOM     26  C   UNL     1       5.767   4.887  17.377  0.00  0.00    +0.000 A 
ATOM     27  C   UNL     1       5.788   5.369  18.677  0.00  0.00    +0.000 A 
ATOM     28  N   UNL     1       4.680   5.619  19.406  0.00  0.00    +0.000 NA
BRANCH  26  29
ATOM     29  C   UNL     1       7.061   4.643  16.666  0.00  0.00    +0.000 C 
ATOM     30  F   UNL     1       8.051   4.185  17.481  0.00  0.00    +0.000 F 
ATOM     31  F   UNL     1       6.941   3.721  15.671  0.00  0.00    +0.000 F 
ATOM     32  F   UNL     1       7.550   5.768  16.076  0.00  0.00    +0.000 F 
ENDBRANCH  26  29
ENDBRANCH  22  23
ENDBRANCH   6  22
TORSDOF 5
ENDMDL
MODEL 9
REMARK VINA RESULT:      -7.9      5.418     10.476
REMARK  Name = 
REMARK  6 active torsions:
REMARK  status: ('A' for Active; 'I' for Inactive)
REMARK    1  A    between atoms: C_1  and  C_2
REMARK    2  A    between atoms: C_2  and  C_3
REMARK    3  A    between atoms: C_6  and  C_8
REMARK    4  A    between atoms: C_13  and  O_14
REMARK    5  A    between atoms: O_14  and  C_15
REMARK    6  A    between atoms: C_18  and  C_19
REMARK                            x       y       z     vdW  Elec       q    Type
REMARK                         _______ _______ _______ _____ _____    ______ ____
ROOT
ATOM      1  C   UNL     1       0.993  10.962  19.452  0.00  0.00    +0.000 A 
ATOM      2  C   UNL     1       1.608  10.720  18.230  0.00  0.00    +0.000 A 
ATOM      3  C   UNL     1       2.064   9.431  17.963  0.00  0.00    +0.000 A 
ATOM      4  C   UNL     1       1.918   8.425  18.932  0.00  0.00    +0.000 A 
ATOM      5  C   UNL     1       2.431   7.124  18.770  0.00  0.00    +0.000 A 
ATOM      6  C   UNL     1       2.296   6.180  19.793  0.00  0.00    +0.000 A 
ATOM      7  C   UNL     1       1.686   6.550  20.991  0.00  0.00    +0.000 A 
ATOM      8  C   UNL     1       1.139   7.824  21.129  0.00  0.00    +0.000 A 
ATOM      9  C   UNL     1       1.244   8.765  20.122  0.00  0.00    +0.000 A 
ATOM     10  N   UNL     1       0.751   9.984  20.354  0.00  0.00    +0.000 NA
ENDROOT
BRANCH   1  14
ATOM     11  C   UNL     1      -2.187  14.369  20.817  0.00  0.00    +0.000 C 
ATOM     12  C   UNL     1      -0.933  14.276  19.911  0.00  0.00    +0.000 C 
ATOM     13  N   UNL     1      -0.630  12.887  19.559  0.00  0.00    +0.000 N 
ATOM     14  C   UNL     1       0.638  12.370  19.837  0.00  0.00    +0.000 C 
ATOM     15  O   UNL     1       1.493  13.019  20.450  0.00  0.00    +0.000 OA
ATOM     16  C   UNL     1      -1.763  12.192  18.938  0.00  0.00    +0.000 C 
ATOM     17  C   UNL     1      -3.059  12.341  19.751  0.00  0.00    +0.000 C 
ATOM     18  N   UNL     1      -3.360  13.709  20.193  0.00  0.00    +0.000 NA
ATOM     19  H   UNL     1      -4.131  13.678  20.860  0.00  0.00    +0.000 HD
BRANCH  11  21
ATOM     20  C   UNL     1      -0.695  14.422  22.894  0.00  0.00    +0.000 C 
ATOM     21  C   UNL     1      -1.943  13.835  22.246  0.00  0.00    +0.000 C 
ENDBRANCH  11  21
ENDBRANCH   1  14
BRANCH   6  22
ATOM     22  O   UNL     1       2.859   4.941  19.584  0.00  0.00    +0.000 OA
BRANCH  22  23
ATOM     23  C   UNL     1       3.752   4.798  18.528  0.00  0.00    +0.000 A 
ATOM     24  C   UNL     1       3.284   4.152  17.395  0.00  0.00    +0.000 A 
ATOM     25  C   UNL     1       4.153   4.002  16.313  0.00  0.00    +0.000 A 
ATOM     26  C   UNL     1       5.459   4.496  16.398  0.00  0.00    +0.000 A 
ATOM     27  C   UNL     1       5.835   5.111  17.583  0.00  0.00    +0.000 A 
ATOM     28  N   UNL     1       5.019   5.258  18.648  0.00  0.00    +0.000 NA
BRANCH  26  29
ATOM     29  C   UNL     1       6.452   4.388  15.283  0.00  0.00    +0.000 C 
ATOM     30  F   UNL     1       6.382   5.414  14.391  0.00  0.00    +0.000 F 
ATOM     31  F   UNL     1       7.737   4.371  15.732  0.00  0.00    +0.000 F 
ATOM     32  F   UNL     1       6.295   3.247  14.557  0.00  0.00    +0.000 F 
ENDBRANCH  26  29
ENDBRANCH  22  23
ENDBRANCH   6  22
TORSDOF 5
ENDMDL
