MODEL 1
REMARK VINA RESULT:      -8.3      0.000      0.000
REMARK  Name = 
REMARK  4 active torsions:
REMARK  status: ('A' for Active; 'I' for Inactive)
REMARK    1  A    between atoms: C_2  and  C_3
REMARK    2  A    between atoms: C_3  and  C_4
REMARK    3  A    between atoms: N_10  and  C_11
REMARK    4  A    between atoms: C_13  and  C_14
REMARK                            x       y       z     vdW  Elec       q    Type
REMARK                         _______ _______ _______ _____ _____    ______ ____
ROOT
ATOM      1  C   UNL     1       6.441   6.576  17.262  0.00  0.00    +0.000 A 
ATOM      2  C   UNL     1       5.582   6.168  18.210  0.00  0.00    +0.000 A 
ATOM      3  C   UNL     1       5.045   4.820  18.253  0.00  0.00    +0.000 A 
ATOM      4  C   UNL     1       5.404   3.948  17.295  0.00  0.00    +0.000 A 
ATOM      5  N   UNL     1       6.294   4.313  16.315  0.00  0.00    +0.000 N 
ATOM      6  C   UNL     1       6.876   5.559  16.231  0.00  0.00    +0.000 A 
ATOM      7  O   UNL     1       7.700   5.847  15.367  0.00  0.00    +0.000 OA
ATOM      8  H   UNL     1       6.571   3.644  15.607  0.00  0.00    +0.000 HD
ENDROOT
BRANCH   3   9
ATOM      9  C   UNL     1       4.110   4.393  19.304  0.00  0.00    +0.000 A 
ATOM     10  C   UNL     1       3.197   5.300  19.842  0.00  0.00    +0.000 A 
ATOM     11  C   UNL     1       2.302   4.841  20.791  0.00  0.00    +0.000 A 
ATOM     12  N   UNL     1       2.260   3.564  21.228  0.00  0.00    +0.000 NA
ATOM     13  C   UNL     1       3.145   2.703  20.680  0.00  0.00    +0.000 A 
ATOM     14  C   UNL     1       4.080   3.063  19.725  0.00  0.00    +0.000 A 
ENDBRANCH   3   9
BRANCH   1  17
ATOM     15  O   UNL     1       8.603   7.895  18.749  0.00  0.00    +0.000 OA
ATOM     16  C   UNL     1       7.945   8.451  17.870  0.00  0.00    +0.000 C 
ATOM     17  N   UNL     1       6.948   7.855  17.119  0.00  0.00    +0.000 N 
ATOM     18  H   UNL     1       6.474   8.412  16.410  0.00  0.00    +0.000 HD
BRANCH  16  19
ATOM     19  C   UNL     1       8.177   9.916  17.552  0.00  0.00    +0.000 C 
BRANCH  19  20
ATOM     20  C   UNL     1       9.241  10.544  18.420  0.00  0.00    +0.000 A 
ATOM     21  C   UNL     1      10.434  11.026  17.860  0.00  0.00    +0.000 A 
ATOM     22  C   UNL     1      11.414  11.609  18.667  0.00  0.00    +0.000 A 
ATOM     23  C   UNL     1      11.209  11.722  20.039  0.00  0.00    +0.000 A 
ATOM     24  C   UNL     1      10.021  11.259  20.605  0.00  0.00    +0.000 A 
ATOM     25  C   UNL     1       9.041  10.676  19.800  0.00  0.00    +0.000 A 
ENDBRANCH  19  20
ENDBRANCH  16  19
ENDBRANCH   1  17
TORSDOF 4
ENDMDL
MODEL 2
REMARK VINA RESULT:      -8.3      0.175      1.020
REMARK  Name = 
REMARK  4 active torsions:
REMARK  status: ('A' for Active; 'I' for Inactive)
REMARK    1  A    between atoms: C_2  and  C_3
REMARK    2  A    between atoms: C_3  and  C_4
REMARK    3  A    between atoms: N_10  and  C_11
REMARK    4  A    between atoms: C_13  and  C_14
REMARK                            x       y       z     vdW  Elec       q    Type
REMARK                         _______ _______ _______ _____ _____    ______ ____
ROOT
ATOM      1  C   UNL     1       6.362   6.630  17.275  0.00  0.00    +0.000 A 
ATOM      2  C   UNL     1       5.462   6.262  18.201  0.00  0.00    +0.000 A 
ATOM      3  C   UNL     1       4.906   4.922  18.263  0.00  0.00    +0.000 A 
ATOM      4  C   UNL     1       5.290   4.017  17.346  0.00  0.00    +0.000 A 
ATOM      5  N   UNL     1       6.222   4.342  16.391  0.00  0.00    +0.000 N 
ATOM      6  C   UNL     1       6.823   5.577  16.293  0.00  0.00    +0.000 A 
ATOM      7  O   UNL     1       7.684   5.830  15.453  0.00  0.00    +0.000 OA
ATOM      8  H   UNL     1       6.517   3.648  15.715  0.00  0.00    +0.000 HD
ENDROOT
BRANCH   3   9
ATOM      9  C   UNL     1       3.925   4.538  19.289  0.00  0.00    +0.000 A 
ATOM     10  C   UNL     1       3.010   5.474  19.769  0.00  0.00    +0.000 A 
ATOM     11  C   UNL     1       2.072   5.055  20.696  0.00  0.00    +0.000 A 
ATOM     12  N   UNL     1       1.992   3.791  21.163  0.00  0.00    +0.000 NA
ATOM     13  C   UNL     1       2.880   2.902  20.671  0.00  0.00    +0.000 A 
ATOM     14  C   UNL     1       3.856   3.221  19.742  0.00  0.00    +0.000 A 
ENDBRANCH   3   9
BRANCH   1  17
ATOM     15  O   UNL     1       8.591   7.909  18.697  0.00  0.00    +0.000 OA
ATOM     16  C   UNL     1       7.920   8.476  17.835  0.00  0.00    +0.000 C 
ATOM     17  N   UNL     1       6.890   7.899  17.114  0.00  0.00    +0.000 N 
ATOM     18  H   UNL     1       6.409   8.463  16.416  0.00  0.00    +0.000 HD
BRANCH  16  19
ATOM     19  C   UNL     1       8.173   9.935  17.505  0.00  0.00    +0.000 C 
BRANCH  19  20
ATOM     20  C   UNL     1       9.213  10.567  18.399  0.00  0.00    +0.000 A 
ATOM     21  C   UNL     1       9.038  10.604  19.792  0.00  0.00    +0.000 A 
ATOM     22  C   UNL     1      10.005  11.185  20.615  0.00  0.00    +0.000 A 
ATOM     23  C   UNL     1      11.158  11.730  20.057  0.00  0.00    +0.000 A 
ATOM     24  C   UNL     1      11.350  11.686  18.676  0.00  0.00    +0.000 A 
ATOM     25  C   UNL     1      10.384  11.106  17.852  0.00  0.00    +0.000 A 
ENDBRANCH  19  20
ENDBRANCH  16  19
ENDBRANCH   1  17
TORSDOF 4
ENDMDL
MODEL 3
REMARK VINA RESULT:      -8.2      4.383      7.827
REMARK  Name = 
REMARK  4 active torsions:
REMARK  status: ('A' for Active; 'I' for Inactive)
REMARK    1  A    between atoms: C_2  and  C_3
REMARK    2  A    between atoms: C_3  and  C_4
REMARK    3  A    between atoms: N_10  and  C_11
REMARK    4  A    between atoms: C_13  and  C_14
REMARK                            x       y       z     vdW  Elec       q    Type
REMARK                         _______ _______ _______ _____ _____    ______ ____
ROOT
ATOM      1  C   UNL     1       5.212   5.050  17.724  0.00  0.00    +0.000 A 
ATOM      2  C   UNL     1       5.256   4.829  16.401  0.00  0.00    +0.000 A 
ATOM      3  C   UNL     1       6.503   4.661  15.676  0.00  0.00    +0.000 A 
ATOM      4  C   UNL     1       7.662   4.748  16.351  0.00  0.00    +0.000 A 
ATOM      5  N   UNL     1       7.667   4.954  17.709  0.00  0.00    +0.000 N 
ATOM      6  C   UNL     1       6.527   5.082  18.470  0.00  0.00    +0.000 A 
ATOM      7  O   UNL     1       6.558   5.226  19.690  0.00  0.00    +0.000 OA
ATOM      8  H   UNL     1       8.546   5.001  18.211  0.00  0.00    +0.000 HD
ENDROOT
BRANCH   3   9
ATOM      9  C   UNL     1       6.528   4.415  14.227  0.00  0.00    +0.000 A 
ATOM     10  C   UNL     1       7.528   4.981  13.436  0.00  0.00    +0.000 A 
ATOM     11  C   UNL     1       7.543   4.681  12.086  0.00  0.00    +0.000 A 
ATOM     12  N   UNL     1       6.644   3.870  11.488  0.00  0.00    +0.000 NA
ATOM     13  C   UNL     1       5.695   3.323  12.279  0.00  0.00    +0.000 A 
ATOM     14  C   UNL     1       5.596   3.560  13.639  0.00  0.00    +0.000 A 
ENDBRANCH   3   9
BRANCH   1  17
ATOM     15  O   UNL     1       3.516   7.445  17.842  0.00  0.00    +0.000 OA
ATOM     16  C   UNL     1       3.323   6.441  18.526  0.00  0.00    +0.000 C 
ATOM     17  N   UNL     1       4.071   5.279  18.473  0.00  0.00    +0.000 N 
ATOM     18  H   UNL     1       3.813   4.505  19.082  0.00  0.00    +0.000 HD
BRANCH  16  19
ATOM     19  C   UNL     1       2.204   6.418  19.552  0.00  0.00    +0.000 C 
BRANCH  19  20
ATOM     20  C   UNL     1       1.896   5.028  20.052  0.00  0.00    +0.000 A 
ATOM     21  C   UNL     1       1.194   4.114  19.251  0.00  0.00    +0.000 A 
ATOM     22  C   UNL     1       0.914   2.828  19.717  0.00  0.00    +0.000 A 
ATOM     23  C   UNL     1       1.338   2.439  20.984  0.00  0.00    +0.000 A 
ATOM     24  C   UNL     1       2.049   3.333  21.784  0.00  0.00    +0.000 A 
ATOM     25  C   UNL     1       2.329   4.620  21.321  0.00  0.00    +0.000 A 
ENDBRANCH  19  20
ENDBRANCH  16  19
ENDBRANCH   1  17
TORSDOF 4
ENDMDL
MODEL 4
REMARK VINA RESULT:      -8.2      4.520      7.888
REMARK  Name = 
REMARK  4 active torsions:
REMARK  status: ('A' for Active; 'I' for Inactive)
REMARK    1  A    between atoms: C_2  and  C_3
REMARK    2  A    between atoms: C_3  and  C_4
REMARK    3  A    between atoms: N_10  and  C_11
REMARK    4  A    between atoms: C_13  and  C_14
REMARK                            x       y       z     vdW  Elec       q    Type
REMARK                         _______ _______ _______ _____ _____    ______ ____
ROOT
ATOM      1  C   UNL     1       5.127   4.944  17.763  0.00  0.00    +0.000 A 
ATOM      2  C   UNL     1       5.259   4.807  16.434  0.00  0.00    +0.000 A 
ATOM      3  C   UNL     1       6.548   4.620  15.792  0.00  0.00    +0.000 A 
ATOM      4  C   UNL     1       7.656   4.602  16.552  0.00  0.00    +0.000 A 
ATOM      5  N   UNL     1       7.568   4.719  17.918  0.00  0.00    +0.000 N 
ATOM      6  C   UNL     1       6.382   4.859  18.602  0.00  0.00    +0.000 A 
ATOM      7  O   UNL     1       6.328   4.921  19.828  0.00  0.00    +0.000 OA
ATOM      8  H   UNL     1       8.408   4.687  18.484  0.00  0.00    +0.000 HD
ENDROOT
BRANCH   3   9
ATOM      9  C   UNL     1       6.670   4.468  14.334  0.00  0.00    +0.000 A 
ATOM     10  C   UNL     1       7.618   5.208  13.628  0.00  0.00    +0.000 A 
ATOM     11  C   UNL     1       7.733   4.994  12.266  0.00  0.00    +0.000 A 
ATOM     12  N   UNL     1       6.979   4.109  11.580  0.00  0.00    +0.000 NA
ATOM     13  C   UNL     1       6.079   3.395  12.290  0.00  0.00    +0.000 A 
ATOM     14  C   UNL     1       5.888   3.534  13.654  0.00  0.00    +0.000 A 
ENDBRANCH   3   9
BRANCH   1  17
ATOM     15  O   UNL     1       3.563   7.423  17.951  0.00  0.00    +0.000 OA
ATOM     16  C   UNL     1       3.261   6.383  18.535  0.00  0.00    +0.000 C 
ATOM     17  N   UNL     1       3.945   5.185  18.442  0.00  0.00    +0.000 N 
ATOM     18  H   UNL     1       3.598   4.384  18.965  0.00  0.00    +0.000 HD
BRANCH  16  19
ATOM     19  C   UNL     1       2.066   6.351  19.470  0.00  0.00    +0.000 C 
BRANCH  19  20
ATOM     20  C   UNL     1       1.818   4.982  20.057  0.00  0.00    +0.000 A 
ATOM     21  C   UNL     1       2.341   4.632  21.312  0.00  0.00    +0.000 A 
ATOM     22  C   UNL     1       2.106   3.366  21.853  0.00  0.00    +0.000 A 
ATOM     23  C   UNL     1       1.341   2.440  21.149  0.00  0.00    +0.000 A 
ATOM     24  C   UNL     1       0.804   2.781  19.908  0.00  0.00    +0.000 A 
ATOM     25  C   UNL     1       1.039   4.046  19.365  0.00  0.00    +0.000 A 
ENDBRANCH  19  20
ENDBRANCH  16  19
ENDBRANCH   1  17
TORSDOF 4
ENDMDL
MODEL 5
REMARK VINA RESULT:      -8.0      4.322      7.013
REMARK  Name = 
REMARK  4 active torsions:
REMARK  status: ('A' for Active; 'I' for Inactive)
REMARK    1  A    between atoms: C_2  and  C_3
REMARK    2  A    between atoms: C_3  and  C_4
REMARK    3  A    between atoms: N_10  and  C_11
REMARK    4  A    between atoms: C_13  and  C_14
REMARK                            x       y       z     vdW  Elec       q    Type
REMARK                         _______ _______ _______ _____ _____    ______ ____
ROOT
ATOM      1  C   UNL     1       6.018   4.251  16.902  0.00  0.00    +0.000 A 
ATOM      2  C   UNL     1       4.760   3.891  17.202  0.00  0.00    +0.000 A 
ATOM      3  C   UNL     1       4.221   3.976  18.548  0.00  0.00    +0.000 A 
ATOM      4  C   UNL     1       5.017   4.412  19.539  0.00  0.00    +0.000 A 
ATOM      5  N   UNL     1       6.306   4.809  19.278  0.00  0.00    +0.000 N 
ATOM      6  C   UNL     1       6.873   4.796  18.023  0.00  0.00    +0.000 A 
ATOM      7  O   UNL     1       8.016   5.195  17.810  0.00  0.00    +0.000 OA
ATOM      8  H   UNL     1       6.892   5.153  20.029  0.00  0.00    +0.000 HD
ENDROOT
BRANCH   3   9
ATOM      9  C   UNL     1       2.838   3.581  18.854  0.00  0.00    +0.000 A 
ATOM     10  C   UNL     1       2.237   2.534  18.156  0.00  0.00    +0.000 A 
ATOM     11  C   UNL     1       0.953   2.163  18.513  0.00  0.00    +0.000 A 
ATOM     12  N   UNL     1       0.247   2.757  19.498  0.00  0.00    +0.000 NA
ATOM     13  C   UNL     1       0.858   3.759  20.167  0.00  0.00    +0.000 A 
ATOM     14  C   UNL     1       2.138   4.203  19.887  0.00  0.00    +0.000 A 
ENDBRANCH   3   9
BRANCH   1  17
ATOM     15  O   UNL     1       5.939   6.109  14.629  0.00  0.00    +0.000 OA
ATOM     16  C   UNL     1       6.525   5.028  14.603  0.00  0.00    +0.000 C 
ATOM     17  N   UNL     1       6.621   4.143  15.662  0.00  0.00    +0.000 N 
ATOM     18  H   UNL     1       7.141   3.278  15.528  0.00  0.00    +0.000 HD
BRANCH  16  19
ATOM     19  C   UNL     1       7.197   4.553  13.328  0.00  0.00    +0.000 C 
BRANCH  19  20
ATOM     20  C   UNL     1       6.313   3.651  12.501  0.00  0.00    +0.000 A 
ATOM     21  C   UNL     1       4.965   3.972  12.278  0.00  0.00    +0.000 A 
ATOM     22  C   UNL     1       4.152   3.136  11.508  0.00  0.00    +0.000 A 
ATOM     23  C   UNL     1       4.679   1.975  10.949  0.00  0.00    +0.000 A 
ATOM     24  C   UNL     1       6.021   1.653  11.152  0.00  0.00    +0.000 A 
ATOM     25  C   UNL     1       6.835   2.487  11.921  0.00  0.00    +0.000 A 
ENDBRANCH  19  20
ENDBRANCH  16  19
ENDBRANCH   1  17
TORSDOF 4
ENDMDL
MODEL 6
REMARK VINA RESULT:      -8.0      4.323      6.947
REMARK  Name = 
REMARK  4 active torsions:
REMARK  status: ('A' for Active; 'I' for Inactive)
REMARK    1  A    between atoms: C_2  and  C_3
REMARK    2  A    between atoms: C_3  and  C_4
REMARK    3  A    between atoms: N_10  and  C_11
REMARK    4  A    between atoms: C_13  and  C_14
REMARK                            x       y       z     vdW  Elec       q    Type
REMARK                         _______ _______ _______ _____ _____    ______ ____
ROOT
ATOM      1  C   UNL     1       6.060   4.273  16.910  0.00  0.00    +0.000 A 
ATOM      2  C   UNL     1       4.798   3.915  17.197  0.00  0.00    +0.000 A 
ATOM      3  C   UNL     1       4.258   3.966  18.544  0.00  0.00    +0.000 A 
ATOM      4  C   UNL     1       5.055   4.367  19.549  0.00  0.00    +0.000 A 
ATOM      5  N   UNL     1       6.347   4.761  19.301  0.00  0.00    +0.000 N 
ATOM      6  C   UNL     1       6.917   4.779  18.048  0.00  0.00    +0.000 A 
ATOM      7  O   UNL     1       8.064   5.173  17.848  0.00  0.00    +0.000 OA
ATOM      8  H   UNL     1       6.936   5.077  20.062  0.00  0.00    +0.000 HD
ENDROOT
BRANCH   3   9
ATOM      9  C   UNL     1       2.871   3.574  18.836  0.00  0.00    +0.000 A 
ATOM     10  C   UNL     1       2.301   2.477  18.192  0.00  0.00    +0.000 A 
ATOM     11  C   UNL     1       1.011   2.113  18.536  0.00  0.00    +0.000 A 
ATOM     12  N   UNL     1       0.271   2.761  19.461  0.00  0.00    +0.000 NA
ATOM     13  C   UNL     1       0.852   3.811  20.080  0.00  0.00    +0.000 A 
ATOM     14  C   UNL     1       2.135   4.253  19.808  0.00  0.00    +0.000 A 
ENDBRANCH   3   9
BRANCH   1  17
ATOM     15  O   UNL     1       5.900   6.137  14.646  0.00  0.00    +0.000 OA
ATOM     16  C   UNL     1       6.529   5.081  14.613  0.00  0.00    +0.000 C 
ATOM     17  N   UNL     1       6.664   4.196  15.668  0.00  0.00    +0.000 N 
ATOM     18  H   UNL     1       7.219   3.353  15.529  0.00  0.00    +0.000 HD
BRANCH  16  19
ATOM     19  C   UNL     1       7.217   4.640  13.334  0.00  0.00    +0.000 C 
BRANCH  19  20
ATOM     20  C   UNL     1       6.371   3.704  12.506  0.00  0.00    +0.000 A 
ATOM     21  C   UNL     1       6.925   2.546  11.937  0.00  0.00    +0.000 A 
ATOM     22  C   UNL     1       6.137   1.681  11.175  0.00  0.00    +0.000 A 
ATOM     23  C   UNL     1       4.787   1.960  10.979  0.00  0.00    +0.000 A 
ATOM     24  C   UNL     1       4.222   3.099  11.551  0.00  0.00    +0.000 A 
ATOM     25  C   UNL     1       5.008   3.965  12.313  0.00  0.00    +0.000 A 
ENDBRANCH  19  20
ENDBRANCH  16  19
ENDBRANCH   1  17
TORSDOF 4
ENDMDL
MODEL 7
REMARK VINA RESULT:      -8.0      6.464      9.706
REMARK  Name = 
REMARK  4 active torsions:
REMARK  status: ('A' for Active; 'I' for Inactive)
REMARK    1  A    between atoms: C_2  and  C_3
REMARK    2  A    between atoms: C_3  and  C_4
REMARK    3  A    between atoms: N_10  and  C_11
REMARK    4  A    between atoms: C_13  and  C_14
REMARK                            x       y       z     vdW  Elec       q    Type
REMARK                         _______ _______ _______ _____ _____    ______ ____
ROOT
ATOM      1  C   UNL     1       0.604   9.448  19.945  0.00  0.00    +0.000 A 
ATOM      2  C   UNL     1      -0.319   9.606  18.982  0.00  0.00    +0.000 A 
ATOM      3  C   UNL     1      -1.308  10.669  19.014  0.00  0.00    +0.000 A 
ATOM      4  C   UNL     1      -1.315  11.518  20.056  0.00  0.00    +0.000 A 
ATOM      5  N   UNL     1      -0.379  11.407  21.054  0.00  0.00    +0.000 N 
ATOM      6  C   UNL     1       0.613  10.453  21.074  0.00  0.00    +0.000 A 
ATOM      7  O   UNL     1       1.463  10.400  21.960  0.00  0.00    +0.000 OA
ATOM      8  H   UNL     1      -0.383  12.063  21.827  0.00  0.00    +0.000 HD
ENDROOT
BRANCH   3   9
ATOM      9  C   UNL     1      -2.307  10.828  17.947  0.00  0.00    +0.000 A 
ATOM     10  C   UNL     1      -2.107  10.227  16.704  0.00  0.00    +0.000 A 
ATOM     11  C   UNL     1      -3.098  10.359  15.747  0.00  0.00    +0.000 A 
ATOM     12  N   UNL     1      -4.248  11.038  15.947  0.00  0.00    +0.000 NA
ATOM     13  C   UNL     1      -4.422  11.597  17.164  0.00  0.00    +0.000 A 
ATOM     14  C   UNL     1      -3.493  11.521  18.187  0.00  0.00    +0.000 A 
ENDBRANCH   3   9
BRANCH   1  17
ATOM     15  O   UNL     1       2.149   8.187  17.789  0.00  0.00    +0.000 OA
ATOM     16  C   UNL     1       2.215   7.837  18.966  0.00  0.00    +0.000 C 
ATOM     17  N   UNL     1       1.537   8.429  20.016  0.00  0.00    +0.000 N 
ATOM     18  H   UNL     1       1.676   8.060  20.955  0.00  0.00    +0.000 HD
BRANCH  16  19
ATOM     19  C   UNL     1       3.072   6.650  19.365  0.00  0.00    +0.000 C 
BRANCH  19  20
ATOM     20  C   UNL     1       2.301   5.352  19.390  0.00  0.00    +0.000 A 
ATOM     21  C   UNL     1       1.808   4.831  20.596  0.00  0.00    +0.000 A 
ATOM     22  C   UNL     1       1.092   3.632  20.614  0.00  0.00    +0.000 A 
ATOM     23  C   UNL     1       0.856   2.945  19.426  0.00  0.00    +0.000 A 
ATOM     24  C   UNL     1       1.328   3.460  18.219  0.00  0.00    +0.000 A 
ATOM     25  C   UNL     1       2.045   4.658  18.200  0.00  0.00    +0.000 A 
ENDBRANCH  19  20
ENDBRANCH  16  19
ENDBRANCH   1  17
TORSDOF 4
ENDMDL
MODEL 8
REMARK VINA RESULT:      -7.9      6.581      9.710
REMARK  Name = 
REMARK  4 active torsions:
REMARK  status: ('A' for Active; 'I' for Inactive)
REMARK    1  A    between atoms: C_2  and  C_3
REMARK    2  A    between atoms: C_3  and  C_4
REMARK    3  A    between atoms: N_10  and  C_11
REMARK    4  A    between atoms: C_13  and  C_14
REMARK                            x       y       z     vdW  Elec       q    Type
REMARK                         _______ _______ _______ _____ _____    ______ ____
ROOT
ATOM      1  C   UNL     1       0.507   9.572  19.823  0.00  0.00    +0.000 A 
ATOM      2  C   UNL     1      -0.421   9.676  18.858  0.00  0.00    +0.000 A 
ATOM      3  C   UNL     1      -1.426  10.724  18.848  0.00  0.00    +0.000 A 
ATOM      4  C   UNL     1      -1.443  11.616  19.853  0.00  0.00    +0.000 A 
ATOM      5  N   UNL     1      -0.502  11.562  20.852  0.00  0.00    +0.000 N 
ATOM      6  C   UNL     1       0.504  10.623  20.909  0.00  0.00    +0.000 A 
ATOM      7  O   UNL     1       1.357  10.621  21.794  0.00  0.00    +0.000 OA
ATOM      8  H   UNL     1      -0.514  12.249  21.597  0.00  0.00    +0.000 HD
ENDROOT
BRANCH   3   9
ATOM      9  C   UNL     1      -2.430  10.822  17.778  0.00  0.00    +0.000 A 
ATOM     10  C   UNL     1      -3.618  11.521  17.993  0.00  0.00    +0.000 A 
ATOM     11  C   UNL     1      -4.510  11.631  16.941  0.00  0.00    +0.000 A 
ATOM     12  N   UNL     1      -4.297  11.101  15.718  0.00  0.00    +0.000 NA
ATOM     13  C   UNL     1      -3.133  10.443  15.533  0.00  0.00    +0.000 A 
ATOM     14  C   UNL     1      -2.176  10.278  16.519  0.00  0.00    +0.000 A 
ENDBRANCH   3   9
BRANCH   1  17
ATOM     15  O   UNL     1       2.128   8.304  17.728  0.00  0.00    +0.000 OA
ATOM     16  C   UNL     1       2.170   7.975  18.912  0.00  0.00    +0.000 C 
ATOM     17  N   UNL     1       1.455   8.571  19.935  0.00  0.00    +0.000 N 
ATOM     18  H   UNL     1       1.576   8.219  20.883  0.00  0.00    +0.000 HD
BRANCH  16  19
ATOM     19  C   UNL     1       3.037   6.808  19.352  0.00  0.00    +0.000 C 
BRANCH  19  20
ATOM     20  C   UNL     1       2.292   5.496  19.363  0.00  0.00    +0.000 A 
ATOM     21  C   UNL     1       1.775   4.973  20.559  0.00  0.00    +0.000 A 
ATOM     22  C   UNL     1       1.083   3.759  20.564  0.00  0.00    +0.000 A 
ATOM     23  C   UNL     1       0.894   3.060  19.375  0.00  0.00    +0.000 A 
ATOM     24  C   UNL     1       1.391   3.577  18.179  0.00  0.00    +0.000 A 
ATOM     25  C   UNL     1       2.084   4.789  18.172  0.00  0.00    +0.000 A 
ENDBRANCH  19  20
ENDBRANCH  16  19
ENDBRANCH   1  17
TORSDOF 4
ENDMDL
MODEL 9
REMARK VINA RESULT:      -7.9      6.491      9.647
REMARK  Name = 
REMARK  4 active torsions:
REMARK  status: ('A' for Active; 'I' for Inactive)
REMARK    1  A    between atoms: C_2  and  C_3
REMARK    2  A    between atoms: C_3  and  C_4
REMARK    3  A    between atoms: N_10  and  C_11
REMARK    4  A    between atoms: C_13  and  C_14
REMARK                            x       y       z     vdW  Elec       q    Type
REMARK                         _______ _______ _______ _____ _____    ______ ____
ROOT
ATOM      1  C   UNL     1       0.576   9.461  19.947  0.00  0.00    +0.000 A 
ATOM      2  C   UNL     1      -0.360   9.597  18.994  0.00  0.00    +0.000 A 
ATOM      3  C   UNL     1      -1.349  10.661  19.015  0.00  0.00    +0.000 A 
ATOM      4  C   UNL     1      -1.341  11.534  20.036  0.00  0.00    +0.000 A 
ATOM      5  N   UNL     1      -0.391  11.447  21.024  0.00  0.00    +0.000 N 
ATOM      6  C   UNL     1       0.601  10.493  21.052  0.00  0.00    +0.000 A 
ATOM      7  O   UNL     1       1.464  10.461  21.927  0.00  0.00    +0.000 OA
ATOM      8  H   UNL     1      -0.383  12.120  21.781  0.00  0.00    +0.000 HD
ENDROOT
BRANCH   3   9
ATOM      9  C   UNL     1      -2.363  10.795  17.958  0.00  0.00    +0.000 A 
ATOM     10  C   UNL     1      -3.542  11.499  18.202  0.00  0.00    +0.000 A 
ATOM     11  C   UNL     1      -4.444  11.643  17.163  0.00  0.00    +0.000 A 
ATOM     12  N   UNL     1      -4.249  11.141  15.925  0.00  0.00    +0.000 NA
ATOM     13  C   UNL     1      -3.093  10.476  15.712  0.00  0.00    +0.000 A 
ATOM     14  C   UNL     1      -2.127  10.278  16.684  0.00  0.00    +0.000 A 
ENDBRANCH   3   9
BRANCH   1  17
ATOM     15  O   UNL     1       2.133   8.189  17.807  0.00  0.00    +0.000 OA
ATOM     16  C   UNL     1       2.194   7.847  18.986  0.00  0.00    +0.000 C 
ATOM     17  N   UNL     1       1.510   8.444  20.030  0.00  0.00    +0.000 N 
ATOM     18  H   UNL     1       1.644   8.081  20.972  0.00  0.00    +0.000 HD
BRANCH  16  19
ATOM     19  C   UNL     1       3.050   6.662  19.397  0.00  0.00    +0.000 C 
BRANCH  19  20
ATOM     20  C   UNL     1       2.285   5.362  19.409  0.00  0.00    +0.000 A 
ATOM     21  C   UNL     1       2.066   4.645  18.222  0.00  0.00    +0.000 A 
ATOM     22  C   UNL     1       1.360   3.439  18.238  0.00  0.00    +0.000 A 
ATOM     23  C   UNL     1       0.872   2.935  19.441  0.00  0.00    +0.000 A 
ATOM     24  C   UNL     1       1.096   3.631  20.629  0.00  0.00    +0.000 A 
ATOM     25  C   UNL     1       1.801   4.836  20.614  0.00  0.00    +0.000 A 
ENDBRANCH  19  20
ENDBRANCH  16  19
ENDBRANCH   1  17
TORSDOF 4
ENDMDL
