MODEL 1
REMARK VINA RESULT:      -6.4      0.000      0.000
REMARK  Name = 
REMARK  10 active torsions:
REMARK  status: ('A' for Active; 'I' for Inactive)
REMARK    1  A    between atoms: C_1  and  C_2
REMARK    2  A    between atoms: C_4  and  C_5
REMARK    3  A    between atoms: C_5  and  C_6
REMARK    4  A    between atoms: C_5  and  C_7
REMARK    5  A    between atoms: C_9  and  C_10
REMARK    6  A    between atoms: C_10  and  C_11
REMARK    7  A    between atoms: C_10  and  N_12
REMARK    8  A    between atoms: N_12  and  C_13
REMARK    9  A    between atoms: N_12  and  C_14
REMARK   10  A    between atoms: C_14  and  C_15
REMARK                            x       y       z     vdW  Elec       q    Type
REMARK                         _______ _______ _______ _____ _____    ______ ____
ROOT
ATOM      1  C   UNL     1       3.203   4.521  18.163  0.00  0.00    +0.000 C 
ATOM      2  C   UNL     1       2.233   3.521  17.516  0.00  0.00    +0.000 C 
ENDROOT
BRANCH   1   8
ATOM      3  C   UNL     1       1.601   3.953  21.060  0.00  0.00    +0.000 C 
ATOM      4  C   UNL     1       1.856   5.238  20.359  0.00  0.00    +0.000 A 
ATOM      5  N   UNL     1       1.370   6.377  20.982  0.00  0.00    +0.000 NA
ATOM      6  C   UNL     1       1.650   7.454  20.280  0.00  0.00    +0.000 A 
ATOM      7  S   UNL     1       2.502   7.162  18.823  0.00  0.00    +0.000 S 
ATOM      8  C   UNL     1       2.522   5.460  19.158  0.00  0.00    +0.000 A 
BRANCH   6   9
ATOM      9  C   UNL     1       1.284   8.851  20.710  0.00  0.00    +0.000 C 
ATOM     10  C   UNL     1       0.930   9.719  19.499  0.00  0.00    +0.000 C 
ATOM     11  C   UNL     1       0.106   8.813  21.688  0.00  0.00    +0.000 C 
ENDBRANCH   6   9
ENDBRANCH   1   8
BRANCH   1  12
ATOM     12  N   UNL     1       4.438   3.915  18.733  0.00  0.00    +0.000 NA
ATOM     13  C   UNL     1       4.228   2.560  19.252  0.00  0.00    +0.000 C 
BRANCH  12  14
ATOM     14  C   UNL     1       5.593   3.906  17.814  0.00  0.00    +0.000 C 
BRANCH  14  15
ATOM     15  C   UNL     1       6.400   5.163  17.866  0.00  0.00    +0.000 A 
ATOM     16  N   UNL     1       7.423   5.245  18.815  0.00  0.00    +0.000 NA
ATOM     17  N   UNL     1       8.036   6.418  18.787  0.00  0.00    +0.000 NA
ATOM     18  S   UNL     1       7.406   7.448  17.624  0.00  0.00    +0.000 S 
ATOM     19  C   UNL     1       6.250   6.311  17.115  0.00  0.00    +0.000 A 
ATOM     20 CL   UNL     1       5.141   6.676  15.871  0.00  0.00    +0.000 Cl
ENDBRANCH  14  15
ENDBRANCH  12  14
ENDBRANCH   1  12
TORSDOF 5
ENDMDL
MODEL 2
REMARK VINA RESULT:      -6.4      3.466      6.945
REMARK  Name = 
REMARK  10 active torsions:
REMARK  status: ('A' for Active; 'I' for Inactive)
REMARK    1  A    between atoms: C_1  and  C_2
REMARK    2  A    between atoms: C_4  and  C_5
REMARK    3  A    between atoms: C_5  and  C_6
REMARK    4  A    between atoms: C_5  and  C_7
REMARK    5  A    between atoms: C_9  and  C_10
REMARK    6  A    between atoms: C_10  and  C_11
REMARK    7  A    between atoms: C_10  and  N_12
REMARK    8  A    between atoms: N_12  and  C_13
REMARK    9  A    between atoms: N_12  and  C_14
REMARK   10  A    between atoms: C_14  and  C_15
REMARK                            x       y       z     vdW  Elec       q    Type
REMARK                         _______ _______ _______ _____ _____    ______ ____
ROOT
ATOM      1  C   UNL     1       4.208   5.837  17.456  0.00  0.00    +0.000 C 
ATOM      2  C   UNL     1       3.760   7.305  17.522  0.00  0.00    +0.000 C 
ENDROOT
BRANCH   1   8
ATOM      3  C   UNL     1       7.433   6.770  17.547  0.00  0.00    +0.000 C 
ATOM      4  C   UNL     1       6.707   5.986  16.514  0.00  0.00    +0.000 A 
ATOM      5  N   UNL     1       7.458   5.571  15.426  0.00  0.00    +0.000 NA
ATOM      6  C   UNL     1       6.720   4.888  14.578  0.00  0.00    +0.000 A 
ATOM      7  S   UNL     1       5.076   4.715  15.029  0.00  0.00    +0.000 S 
ATOM      8  C   UNL     1       5.368   5.606  16.489  0.00  0.00    +0.000 A 
BRANCH   6   9
ATOM      9  C   UNL     1       7.255   4.273  13.310  0.00  0.00    +0.000 C 
ATOM     10  C   UNL     1       6.155   3.513  12.566  0.00  0.00    +0.000 C 
ATOM     11  C   UNL     1       7.847   5.356  12.405  0.00  0.00    +0.000 C 
ENDBRANCH   6   9
ENDBRANCH   1   8
BRANCH   1  12
ATOM     12  N   UNL     1       4.456   5.199  18.778  0.00  0.00    +0.000 NA
ATOM     13  C   UNL     1       3.588   5.716  19.840  0.00  0.00    +0.000 C 
BRANCH  12  14
ATOM     14  C   UNL     1       4.380   3.724  18.769  0.00  0.00    +0.000 C 
BRANCH  14  15
ATOM     15  C   UNL     1       2.980   3.204  18.815  0.00  0.00    +0.000 A 
ATOM     16  N   UNL     1       2.246   3.199  17.625  0.00  0.00    +0.000 NA
ATOM     17  N   UNL     1       1.012   2.753  17.804  0.00  0.00    +0.000 NA
ATOM     18  S   UNL     1       0.703   2.326  19.396  0.00  0.00    +0.000 S 
ATOM     19  C   UNL     1       2.267   2.751  19.906  0.00  0.00    +0.000 A 
ATOM     20 CL   UNL     1       2.734   2.597  21.540  0.00  0.00    +0.000 Cl
ENDBRANCH  14  15
ENDBRANCH  12  14
ENDBRANCH   1  12
TORSDOF 5
ENDMDL
MODEL 3
REMARK VINA RESULT:      -6.3      3.193      6.885
REMARK  Name = 
REMARK  10 active torsions:
REMARK  status: ('A' for Active; 'I' for Inactive)
REMARK    1  A    between atoms: C_1  and  C_2
REMARK    2  A    between atoms: C_4  and  C_5
REMARK    3  A    between atoms: C_5  and  C_6
REMARK    4  A    between atoms: C_5  and  C_7
REMARK    5  A    between atoms: C_9  and  C_10
REMARK    6  A    between atoms: C_10  and  C_11
REMARK    7  A    between atoms: C_10  and  N_12
REMARK    8  A    between atoms: N_12  and  C_13
REMARK    9  A    between atoms: N_12  and  C_14
REMARK   10  A    between atoms: C_14  and  C_15
REMARK                            x       y       z     vdW  Elec       q    Type
REMARK                         _______ _______ _______ _____ _____    ______ ____
ROOT
ATOM      1  C   UNL     1       5.075   5.397  18.546  0.00  0.00    +0.000 C 
ATOM      2  C   UNL     1       5.115   4.051  19.284  0.00  0.00    +0.000 C 
ENDROOT
BRANCH   1   8
ATOM      3  C   UNL     1       7.636   7.308  17.511  0.00  0.00    +0.000 C 
ATOM      4  C   UNL     1       6.956   6.185  16.816  0.00  0.00    +0.000 A 
ATOM      5  N   UNL     1       7.440   5.867  15.556  0.00  0.00    +0.000 NA
ATOM      6  C   UNL     1       6.770   4.864  15.034  0.00  0.00    +0.000 A 
ATOM      7  S   UNL     1       5.508   4.249  16.017  0.00  0.00    +0.000 S 
ATOM      8  C   UNL     1       5.894   5.400  17.256  0.00  0.00    +0.000 A 
BRANCH   6   9
ATOM      9  C   UNL     1       7.079   4.263  13.686  0.00  0.00    +0.000 C 
ATOM     10  C   UNL     1       5.804   3.750  13.012  0.00  0.00    +0.000 C 
ATOM     11  C   UNL     1       7.766   5.297  12.790  0.00  0.00    +0.000 C 
ENDBRANCH   6   9
ENDBRANCH   1   8
BRANCH   1  12
ATOM     12  N   UNL     1       3.710   5.953  18.333  0.00  0.00    +0.000 NA
ATOM     13  C   UNL     1       3.718   7.277  17.705  0.00  0.00    +0.000 C 
BRANCH  12  14
ATOM     14  C   UNL     1       2.800   5.067  17.580  0.00  0.00    +0.000 C 
BRANCH  14  15
ATOM     15  C   UNL     1       2.010   4.149  18.456  0.00  0.00    +0.000 A 
ATOM     16  N   UNL     1       1.633   2.909  17.931  0.00  0.00    +0.000 NA
ATOM     17  N   UNL     1       0.907   2.206  18.787  0.00  0.00    +0.000 NA
ATOM     18  S   UNL     1       0.661   3.010  20.238  0.00  0.00    +0.000 S 
ATOM     19  C   UNL     1       1.546   4.371  19.736  0.00  0.00    +0.000 A 
ATOM     20 CL   UNL     1       1.736   5.725  20.757  0.00  0.00    +0.000 Cl
ENDBRANCH  14  15
ENDBRANCH  12  14
ENDBRANCH   1  12
TORSDOF 5
ENDMDL
MODEL 4
REMARK VINA RESULT:      -6.3      3.395      6.866
REMARK  Name = 
REMARK  10 active torsions:
REMARK  status: ('A' for Active; 'I' for Inactive)
REMARK    1  A    between atoms: C_1  and  C_2
REMARK    2  A    between atoms: C_4  and  C_5
REMARK    3  A    between atoms: C_5  and  C_6
REMARK    4  A    between atoms: C_5  and  C_7
REMARK    5  A    between atoms: C_9  and  C_10
REMARK    6  A    between atoms: C_10  and  C_11
REMARK    7  A    between atoms: C_10  and  N_12
REMARK    8  A    between atoms: N_12  and  C_13
REMARK    9  A    between atoms: N_12  and  C_14
REMARK   10  A    between atoms: C_14  and  C_15
REMARK                            x       y       z     vdW  Elec       q    Type
REMARK                         _______ _______ _______ _____ _____    ______ ____
ROOT
ATOM      1  C   UNL     1       4.304   5.521  17.361  0.00  0.00    +0.000 C 
ATOM      2  C   UNL     1       3.748   6.950  17.445  0.00  0.00    +0.000 C 
ENDROOT
BRANCH   1   8
ATOM      3  C   UNL     1       7.483   6.605  17.375  0.00  0.00    +0.000 C 
ATOM      4  C   UNL     1       6.758   5.819  16.342  0.00  0.00    +0.000 A 
ATOM      5  N   UNL     1       7.490   5.474  15.216  0.00  0.00    +0.000 NA
ATOM      6  C   UNL     1       6.756   4.784  14.371  0.00  0.00    +0.000 A 
ATOM      7  S   UNL     1       5.139   4.518  14.871  0.00  0.00    +0.000 S 
ATOM      8  C   UNL     1       5.439   5.376  16.349  0.00  0.00    +0.000 A 
BRANCH   6   9
ATOM      9  C   UNL     1       7.275   4.234  13.067  0.00  0.00    +0.000 C 
ATOM     10  C   UNL     1       6.191   3.433  12.343  0.00  0.00    +0.000 C 
ATOM     11  C   UNL     1       7.769   5.374  12.172  0.00  0.00    +0.000 C 
ENDBRANCH   6   9
ENDBRANCH   1   8
BRANCH   1  12
ATOM     12  N   UNL     1       4.651   4.907  18.672  0.00  0.00    +0.000 NA
ATOM     13  C   UNL     1       4.028   5.588  19.811  0.00  0.00    +0.000 C 
BRANCH  12  14
ATOM     14  C   UNL     1       4.372   3.461  18.763  0.00  0.00    +0.000 C 
BRANCH  14  15
ATOM     15  C   UNL     1       3.348   3.120  19.798  0.00  0.00    +0.000 A 
ATOM     16  N   UNL     1       3.801   2.685  21.047  0.00  0.00    +0.000 NA
ATOM     17  N   UNL     1       2.801   2.379  21.860  0.00  0.00    +0.000 NA
ATOM     18  S   UNL     1       1.299   2.608  21.151  0.00  0.00    +0.000 S 
ATOM     19  C   UNL     1       1.973   3.135  19.683  0.00  0.00    +0.000 A 
ATOM     20 CL   UNL     1       0.983   3.567  18.362  0.00  0.00    +0.000 Cl
ENDBRANCH  14  15
ENDBRANCH  12  14
ENDBRANCH   1  12
TORSDOF 5
ENDMDL
MODEL 5
REMARK VINA RESULT:      -6.2      3.165      6.540
REMARK  Name = 
REMARK  10 active torsions:
REMARK  status: ('A' for Active; 'I' for Inactive)
REMARK    1  A    between atoms: C_1  and  C_2
REMARK    2  A    between atoms: C_4  and  C_5
REMARK    3  A    between atoms: C_5  and  C_6
REMARK    4  A    between atoms: C_5  and  C_7
REMARK    5  A    between atoms: C_9  and  C_10
REMARK    6  A    between atoms: C_10  and  C_11
REMARK    7  A    between atoms: C_10  and  N_12
REMARK    8  A    between atoms: N_12  and  C_13
REMARK    9  A    between atoms: N_12  and  C_14
REMARK   10  A    between atoms: C_14  and  C_15
REMARK                            x       y       z     vdW  Elec       q    Type
REMARK                         _______ _______ _______ _____ _____    ______ ____
ROOT
ATOM      1  C   UNL     1       4.741   5.025  18.644  0.00  0.00    +0.000 C 
ATOM      2  C   UNL     1       4.876   3.608  19.222  0.00  0.00    +0.000 C 
ENDROOT
BRANCH   1   8
ATOM      3  C   UNL     1       7.616   6.670  18.089  0.00  0.00    +0.000 C 
ATOM      4  C   UNL     1       6.760   5.918  17.135  0.00  0.00    +0.000 A 
ATOM      5  N   UNL     1       7.202   5.880  15.821  0.00  0.00    +0.000 NA
ATOM      6  C   UNL     1       6.374   5.192  15.066  0.00  0.00    +0.000 A 
ATOM      7  S   UNL     1       5.007   4.560  15.884  0.00  0.00    +0.000 S 
ATOM      8  C   UNL     1       5.570   5.240  17.378  0.00  0.00    +0.000 A 
BRANCH   6   9
ATOM      9  C   UNL     1       6.595   4.940  13.596  0.00  0.00    +0.000 C 
ATOM     10  C   UNL     1       8.047   5.227  13.207  0.00  0.00    +0.000 C 
ATOM     11  C   UNL     1       6.235   3.494  13.247  0.00  0.00    +0.000 C 
ENDBRANCH   6   9
ENDBRANCH   1   8
BRANCH   1  12
ATOM     12  N   UNL     1       3.340   5.499  18.473  0.00  0.00    +0.000 NA
ATOM     13  C   UNL     1       2.386   4.409  18.247  0.00  0.00    +0.000 C 
BRANCH  12  14
ATOM     14  C   UNL     1       2.845   6.352  19.572  0.00  0.00    +0.000 C 
BRANCH  14  15
ATOM     15  C   UNL     1       2.269   7.648  19.100  0.00  0.00    +0.000 A 
ATOM     16  N   UNL     1       2.570   8.062  17.799  0.00  0.00    +0.000 NA
ATOM     17  N   UNL     1       2.035   9.240  17.515  0.00  0.00    +0.000 NA
ATOM     18  S   UNL     1       1.158   9.876  18.794  0.00  0.00    +0.000 S 
ATOM     19  C   UNL     1       1.491   8.548  19.800  0.00  0.00    +0.000 A 
ATOM     20 CL   UNL     1       0.899   8.481  21.399  0.00  0.00    +0.000 Cl
ENDBRANCH  14  15
ENDBRANCH  12  14
ENDBRANCH   1  12
TORSDOF 5
ENDMDL
MODEL 6
REMARK VINA RESULT:      -6.2      1.192      1.356
REMARK  Name = 
REMARK  10 active torsions:
REMARK  status: ('A' for Active; 'I' for Inactive)
REMARK    1  A    between atoms: C_1  and  C_2
REMARK    2  A    between atoms: C_4  and  C_5
REMARK    3  A    between atoms: C_5  and  C_6
REMARK    4  A    between atoms: C_5  and  C_7
REMARK    5  A    between atoms: C_9  and  C_10
REMARK    6  A    between atoms: C_10  and  C_11
REMARK    7  A    between atoms: C_10  and  N_12
REMARK    8  A    between atoms: N_12  and  C_13
REMARK    9  A    between atoms: N_12  and  C_14
REMARK   10  A    between atoms: C_14  and  C_15
REMARK                            x       y       z     vdW  Elec       q    Type
REMARK                         _______ _______ _______ _____ _____    ______ ____
ROOT
ATOM      1  C   UNL     1       2.254   3.406  18.212  0.00  0.00    +0.000 C 
ATOM      2  C   UNL     1       1.125   2.437  18.595  0.00  0.00    +0.000 C 
ENDROOT
BRANCH   1   8
ATOM      3  C   UNL     1       2.104   4.228  21.466  0.00  0.00    +0.000 C 
ATOM      4  C   UNL     1       2.093   5.109  20.268  0.00  0.00    +0.000 A 
ATOM      5  N   UNL     1       2.012   6.470  20.516  0.00  0.00    +0.000 NA
ATOM      6  C   UNL     1       2.009   7.153  19.392  0.00  0.00    +0.000 A 
ATOM      7  S   UNL     1       2.091   6.202  17.969  0.00  0.00    +0.000 S 
ATOM      8  C   UNL     1       2.156   4.755  18.924  0.00  0.00    +0.000 A 
BRANCH   6   9
ATOM      9  C   UNL     1       1.963   8.659  19.329  0.00  0.00    +0.000 C 
ATOM     10  C   UNL     1       1.691   9.136  17.900  0.00  0.00    +0.000 C 
ATOM     11  C   UNL     1       0.886   9.196  20.275  0.00  0.00    +0.000 C 
ENDBRANCH   6   9
ENDBRANCH   1   8
BRANCH   1  12
ATOM     12  N   UNL     1       3.625   2.834  18.301  0.00  0.00    +0.000 NA
ATOM     13  C   UNL     1       3.635   1.371  18.393  0.00  0.00    +0.000 C 
BRANCH  12  14
ATOM     14  C   UNL     1       4.535   3.254  17.216  0.00  0.00    +0.000 C 
BRANCH  14  15
ATOM     15  C   UNL     1       5.514   4.301  17.639  0.00  0.00    +0.000 A 
ATOM     16  N   UNL     1       6.020   4.235  18.940  0.00  0.00    +0.000 NA
ATOM     17  N   UNL     1       6.846   5.236  19.205  0.00  0.00    +0.000 NA
ATOM     18  S   UNL     1       7.038   6.275  17.904  0.00  0.00    +0.000 S 
ATOM     19  C   UNL     1       5.977   5.384  16.921  0.00  0.00    +0.000 A 
ATOM     20 CL   UNL     1       5.628   5.878  15.325  0.00  0.00    +0.000 Cl
ENDBRANCH  14  15
ENDBRANCH  12  14
ENDBRANCH   1  12
TORSDOF 5
ENDMDL
MODEL 7
REMARK VINA RESULT:      -6.1      2.452      6.124
REMARK  Name = 
REMARK  10 active torsions:
REMARK  status: ('A' for Active; 'I' for Inactive)
REMARK    1  A    between atoms: C_1  and  C_2
REMARK    2  A    between atoms: C_4  and  C_5
REMARK    3  A    between atoms: C_5  and  C_6
REMARK    4  A    between atoms: C_5  and  C_7
REMARK    5  A    between atoms: C_9  and  C_10
REMARK    6  A    between atoms: C_10  and  C_11
REMARK    7  A    between atoms: C_10  and  N_12
REMARK    8  A    between atoms: N_12  and  C_13
REMARK    9  A    between atoms: N_12  and  C_14
REMARK   10  A    between atoms: C_14  and  C_15
REMARK                            x       y       z     vdW  Elec       q    Type
REMARK                         _______ _______ _______ _____ _____    ______ ____
ROOT
ATOM      1  C   UNL     1       4.559   4.299  19.144  0.00  0.00    +0.000 C 
ATOM      2  C   UNL     1       4.432   2.853  19.648  0.00  0.00    +0.000 C 
ENDROOT
BRANCH   1   8
ATOM      3  C   UNL     1       7.646   5.587  18.840  0.00  0.00    +0.000 C 
ATOM      4  C   UNL     1       6.775   4.969  17.806  0.00  0.00    +0.000 A 
ATOM      5  N   UNL     1       7.303   4.906  16.526  0.00  0.00    +0.000 NA
ATOM      6  C   UNL     1       6.453   4.343  15.694  0.00  0.00    +0.000 A 
ATOM      7  S   UNL     1       4.965   3.868  16.396  0.00  0.00    +0.000 S 
ATOM      8  C   UNL     1       5.497   4.438  17.946  0.00  0.00    +0.000 A 
BRANCH   6   9
ATOM      9  C   UNL     1       6.747   4.100  14.236  0.00  0.00    +0.000 C 
ATOM     10  C   UNL     1       5.452   3.924  13.440  0.00  0.00    +0.000 C 
ATOM     11  C   UNL     1       7.561   5.262  13.659  0.00  0.00    +0.000 C 
ENDBRANCH   6   9
ENDBRANCH   1   8
BRANCH   1  12
ATOM     12  N   UNL     1       3.264   4.997  18.915  0.00  0.00    +0.000 NA
ATOM     13  C   UNL     1       2.133   4.077  18.760  0.00  0.00    +0.000 C 
BRANCH  12  14
ATOM     14  C   UNL     1       2.926   6.008  19.936  0.00  0.00    +0.000 C 
BRANCH  14  15
ATOM     15  C   UNL     1       2.457   7.302  19.354  0.00  0.00    +0.000 A 
ATOM     16  N   UNL     1       1.527   8.048  20.084  0.00  0.00    +0.000 NA
ATOM     17  N   UNL     1       1.162   9.150  19.446  0.00  0.00    +0.000 NA
ATOM     18  S   UNL     1       1.926   9.321  17.963  0.00  0.00    +0.000 S 
ATOM     19  C   UNL     1       2.788   7.868  18.140  0.00  0.00    +0.000 A 
ATOM     20 CL   UNL     1       3.850   7.318  16.922  0.00  0.00    +0.000 Cl
ENDBRANCH  14  15
ENDBRANCH  12  14
ENDBRANCH   1  12
TORSDOF 5
ENDMDL
MODEL 8
REMARK VINA RESULT:      -6.1      3.325      6.608
REMARK  Name = 
REMARK  10 active torsions:
REMARK  status: ('A' for Active; 'I' for Inactive)
REMARK    1  A    between atoms: C_1  and  C_2
REMARK    2  A    between atoms: C_4  and  C_5
REMARK    3  A    between atoms: C_5  and  C_6
REMARK    4  A    between atoms: C_5  and  C_7
REMARK    5  A    between atoms: C_9  and  C_10
REMARK    6  A    between atoms: C_10  and  C_11
REMARK    7  A    between atoms: C_10  and  N_12
REMARK    8  A    between atoms: N_12  and  C_13
REMARK    9  A    between atoms: N_12  and  C_14
REMARK   10  A    between atoms: C_14  and  C_15
REMARK                            x       y       z     vdW  Elec       q    Type
REMARK                         _______ _______ _______ _____ _____    ______ ____
ROOT
ATOM      1  C   UNL     1       6.232   5.825  18.871  0.00  0.00    +0.000 C 
ATOM      2  C   UNL     1       7.661   5.627  19.397  0.00  0.00    +0.000 C 
ENDROOT
BRANCH   1   8
ATOM      3  C   UNL     1       4.228   7.245  16.580  0.00  0.00    +0.000 C 
ATOM      4  C   UNL     1       5.293   6.224  16.399  0.00  0.00    +0.000 A 
ATOM      5  N   UNL     1       5.503   5.788  15.100  0.00  0.00    +0.000 NA
ATOM      6  C   UNL     1       6.464   4.891  15.054  0.00  0.00    +0.000 A 
ATOM      7  S   UNL     1       7.164   4.506  16.570  0.00  0.00    +0.000 S 
ATOM      8  C   UNL     1       6.118   5.644  17.358  0.00  0.00    +0.000 A 
BRANCH   6   9
ATOM      9  C   UNL     1       6.950   4.250  13.779  0.00  0.00    +0.000 C 
ATOM     10  C   UNL     1       5.776   3.703  12.963  0.00  0.00    +0.000 C 
ATOM     11  C   UNL     1       7.740   5.262  12.945  0.00  0.00    +0.000 C 
ENDBRANCH   6   9
ENDBRANCH   1   8
BRANCH   1  12
ATOM     12  N   UNL     1       5.186   5.055  19.599  0.00  0.00    +0.000 NA
ATOM     13  C   UNL     1       3.882   5.723  19.611  0.00  0.00    +0.000 C 
BRANCH  12  14
ATOM     14  C   UNL     1       5.012   3.666  19.130  0.00  0.00    +0.000 C 
BRANCH  14  15
ATOM     15  C   UNL     1       3.592   3.320  18.820  0.00  0.00    +0.000 A 
ATOM     16  N   UNL     1       3.163   3.442  17.495  0.00  0.00    +0.000 NA
ATOM     17  N   UNL     1       1.880   3.145  17.357  0.00  0.00    +0.000 NA
ATOM     18  S   UNL     1       1.158   2.710  18.807  0.00  0.00    +0.000 S 
ATOM     19  C   UNL     1       2.595   2.923  19.688  0.00  0.00    +0.000 A 
ATOM     20 CL   UNL     1       2.643   2.662  21.374  0.00  0.00    +0.000 Cl
ENDBRANCH  14  15
ENDBRANCH  12  14
ENDBRANCH   1  12
TORSDOF 5
ENDMDL
MODEL 9
REMARK VINA RESULT:      -6.1      2.609      5.683
REMARK  Name = 
REMARK  10 active torsions:
REMARK  status: ('A' for Active; 'I' for Inactive)
REMARK    1  A    between atoms: C_1  and  C_2
REMARK    2  A    between atoms: C_4  and  C_5
REMARK    3  A    between atoms: C_5  and  C_6
REMARK    4  A    between atoms: C_5  and  C_7
REMARK    5  A    between atoms: C_9  and  C_10
REMARK    6  A    between atoms: C_10  and  C_11
REMARK    7  A    between atoms: C_10  and  N_12
REMARK    8  A    between atoms: N_12  and  C_13
REMARK    9  A    between atoms: N_12  and  C_14
REMARK   10  A    between atoms: C_14  and  C_15
REMARK                            x       y       z     vdW  Elec       q    Type
REMARK                         _______ _______ _______ _____ _____    ______ ____
ROOT
ATOM      1  C   UNL     1       3.170   4.201  20.231  0.00  0.00    +0.000 C 
ATOM      2  C   UNL     1       2.937   2.804  20.826  0.00  0.00    +0.000 C 
ENDROOT
BRANCH   1   8
ATOM      3  C   UNL     1       2.756   2.798  17.207  0.00  0.00    +0.000 C 
ATOM      4  C   UNL     1       3.890   3.607  17.725  0.00  0.00    +0.000 A 
ATOM      5  N   UNL     1       4.935   3.824  16.840  0.00  0.00    +0.000 NA
ATOM      6  C   UNL     1       5.882   4.547  17.398  0.00  0.00    +0.000 A 
ATOM      7  S   UNL     1       5.580   5.000  19.023  0.00  0.00    +0.000 S 
ATOM      8  C   UNL     1       4.050   4.183  18.981  0.00  0.00    +0.000 A 
BRANCH   6   9
ATOM      9  C   UNL     1       7.135   4.981  16.681  0.00  0.00    +0.000 C 
ATOM     10  C   UNL     1       6.996   4.780  15.170  0.00  0.00    +0.000 C 
ATOM     11  C   UNL     1       7.439   6.450  16.988  0.00  0.00    +0.000 C 
ENDBRANCH   6   9
ENDBRANCH   1   8
BRANCH   1  12
ATOM     12  N   UNL     1       1.936   5.007  20.026  0.00  0.00    +0.000 NA
ATOM     13  C   UNL     1       0.714   4.300  20.422  0.00  0.00    +0.000 C 
BRANCH  12  14
ATOM     14  C   UNL     1       1.957   6.333  20.673  0.00  0.00    +0.000 C 
BRANCH  14  15
ATOM     15  C   UNL     1       1.885   7.466  19.702  0.00  0.00    +0.000 A 
ATOM     16  N   UNL     1       2.518   7.309  18.466  0.00  0.00    +0.000 NA
ATOM     17  N   UNL     1       2.416   8.393  17.712  0.00  0.00    +0.000 NA
ATOM     18  S   UNL     1       1.559   9.623  18.462  0.00  0.00    +0.000 S 
ATOM     19  C   UNL     1       1.299   8.705  19.868  0.00  0.00    +0.000 A 
ATOM     20 CL   UNL     1       0.443   9.349  21.197  0.00  0.00    +0.000 Cl
ENDBRANCH  14  15
ENDBRANCH  12  14
ENDBRANCH   1  12
TORSDOF 5
ENDMDL
