MODEL 1
REMARK VINA RESULT:      -5.1      0.000      0.000
REMARK  Name = 
REMARK  9 active torsions:
REMARK  status: ('A' for Active; 'I' for Inactive)
REMARK    1  A    between atoms: C_1  and  C_2
REMARK    2  A    between atoms: C_2  and  O_3
REMARK    3  A    between atoms: O_3  and  P_4
REMARK    4  A    between atoms: P_4  and  O_6
REMARK    5  A    between atoms: P_4  and  C_9
REMARK    6  A    between atoms: O_6  and  C_7
REMARK    7  A    between atoms: C_7  and  C_8
REMARK    8  A    between atoms: C_9  and  N_10
REMARK    9  A    between atoms: C_9  and  C_11
REMARK                            x       y       z     vdW  Elec       q    Type
REMARK                         _______ _______ _______ _____ _____    ______ ____
ROOT
ATOM      1  P   UNL     1       4.153   4.200  18.551  0.00  0.00    +0.000 P 
ATOM      2  O   UNL     1       4.217   3.278  17.313  0.00  0.00    +0.000 OA
ENDROOT
BRANCH   1   3
ATOM      3  O   UNL     1       4.576   5.567  17.578  0.00  0.00    +0.000 OA
BRANCH   3   5
ATOM      4  C   UNL     1       2.509   6.582  18.277  0.00  0.00    +0.000 C 
ATOM      5  C   UNL     1       3.875   6.800  17.625  0.00  0.00    +0.000 C 
ENDBRANCH   3   5
ENDBRANCH   1   3
BRANCH   1   6
ATOM      6  O   UNL     1       5.717   4.253  19.230  0.00  0.00    +0.000 OA
BRANCH   6   7
ATOM      7  C   UNL     1       6.744   4.819  18.422  0.00  0.00    +0.000 C 
ATOM      8  C   UNL     1       7.759   5.761  19.085  0.00  0.00    +0.000 C 
ENDBRANCH   6   7
ENDBRANCH   1   6
BRANCH   1   9
ATOM      9  C   UNL     1       3.706   2.754  19.580  0.00  0.00    +0.000 C 
BRANCH   9  10
ATOM     10  N   UNL     1       4.942   2.034  19.986  0.00  0.00    +0.000 NA
ATOM     11  H   UNL     1       5.057   1.269  19.315  0.00  0.00    +0.000 HD
ATOM     12  H   UNL     1       4.661   1.521  20.834  0.00  0.00    +0.000 HD
ENDBRANCH   9  10
BRANCH   9  13
ATOM     13  C   UNL     1       2.924   3.043  20.838  0.00  0.00    +0.000 C 
ATOM     14  C   UNL     1       1.850   4.105  20.988  0.00  0.00    +0.000 C 
ATOM     15  C   UNL     1       1.441   2.654  20.919  0.00  0.00    +0.000 C 
ENDBRANCH   9  13
ENDBRANCH   1   9
TORSDOF 7
ENDMDL
MODEL 2
REMARK VINA RESULT:      -5.1      1.402      1.654
REMARK  Name = 
REMARK  9 active torsions:
REMARK  status: ('A' for Active; 'I' for Inactive)
REMARK    1  A    between atoms: C_1  and  C_2
REMARK    2  A    between atoms: C_2  and  O_3
REMARK    3  A    between atoms: O_3  and  P_4
REMARK    4  A    between atoms: P_4  and  O_6
REMARK    5  A    between atoms: P_4  and  C_9
REMARK    6  A    between atoms: O_6  and  C_7
REMARK    7  A    between atoms: C_7  and  C_8
REMARK    8  A    between atoms: C_9  and  N_10
REMARK    9  A    between atoms: C_9  and  C_11
REMARK                            x       y       z     vdW  Elec       q    Type
REMARK                         _______ _______ _______ _____ _____    ______ ____
ROOT
ATOM      1  P   UNL     1       4.119   3.820  18.421  0.00  0.00    +0.000 P 
ATOM      2  O   UNL     1       4.156   2.657  17.406  0.00  0.00    +0.000 OA
ENDROOT
BRANCH   1   3
ATOM      3  O   UNL     1       4.542   4.945  17.177  0.00  0.00    +0.000 OA
BRANCH   3   5
ATOM      4  C   UNL     1       6.265   5.282  15.531  0.00  0.00    +0.000 C 
ATOM      5  C   UNL     1       4.971   4.548  15.883  0.00  0.00    +0.000 C 
ENDBRANCH   3   5
ENDBRANCH   1   3
BRANCH   1   6
ATOM      6  O   UNL     1       5.692   3.995  19.056  0.00  0.00    +0.000 OA
BRANCH   6   7
ATOM      7  C   UNL     1       6.147   5.326  19.276  0.00  0.00    +0.000 C 
ATOM      8  C   UNL     1       7.630   5.642  19.033  0.00  0.00    +0.000 C 
ENDBRANCH   6   7
ENDBRANCH   1   6
BRANCH   1   9
ATOM      9  C   UNL     1       3.671   2.630  19.737  0.00  0.00    +0.000 C 
BRANCH   9  10
ATOM     10  N   UNL     1       4.904   1.985  20.263  0.00  0.00    +0.000 NA
ATOM     11  H   UNL     1       5.149   2.498  21.114  0.00  0.00    +0.000 HD
ATOM     12  H   UNL     1       5.641   2.298  19.616  0.00  0.00    +0.000 HD
ENDBRANCH   9  10
BRANCH   9  13
ATOM     13  C   UNL     1       2.921   3.192  20.921  0.00  0.00    +0.000 C 
ATOM     14  C   UNL     1       1.716   4.111  20.851  0.00  0.00    +0.000 C 
ATOM     15  C   UNL     1       1.515   2.670  21.249  0.00  0.00    +0.000 C 
ENDBRANCH   9  13
ENDBRANCH   1   9
TORSDOF 7
ENDMDL
MODEL 3
REMARK VINA RESULT:      -4.9      4.097      5.592
REMARK  Name = 
REMARK  9 active torsions:
REMARK  status: ('A' for Active; 'I' for Inactive)
REMARK    1  A    between atoms: C_1  and  C_2
REMARK    2  A    between atoms: C_2  and  O_3
REMARK    3  A    between atoms: O_3  and  P_4
REMARK    4  A    between atoms: P_4  and  O_6
REMARK    5  A    between atoms: P_4  and  C_9
REMARK    6  A    between atoms: O_6  and  C_7
REMARK    7  A    between atoms: C_7  and  C_8
REMARK    8  A    between atoms: C_9  and  N_10
REMARK    9  A    between atoms: C_9  and  C_11
REMARK                            x       y       z     vdW  Elec       q    Type
REMARK                         _______ _______ _______ _____ _____    ______ ____
ROOT
ATOM      1  P   UNL     1       5.767   5.410  15.940  0.00  0.00    +0.000 P 
ATOM      2  O   UNL     1       5.200   6.767  15.469  0.00  0.00    +0.000 OA
ENDROOT
BRANCH   1   3
ATOM      3  O   UNL     1       5.097   5.655  17.516  0.00  0.00    +0.000 OA
BRANCH   3   5
ATOM      4  C   UNL     1       3.676   3.757  17.105  0.00  0.00    +0.000 C 
ATOM      5  C   UNL     1       3.933   4.986  17.978  0.00  0.00    +0.000 C 
ENDBRANCH   3   5
ENDBRANCH   1   3
BRANCH   1   6
ATOM      6  O   UNL     1       7.313   5.703  16.598  0.00  0.00    +0.000 OA
BRANCH   6   7
ATOM      7  C   UNL     1       7.366   6.523  17.761  0.00  0.00    +0.000 C 
ATOM      8  C   UNL     1       7.775   7.994  17.600  0.00  0.00    +0.000 C 
ENDBRANCH   6   7
ENDBRANCH   1   6
BRANCH   1   9
ATOM      9  C   UNL     1       6.476   5.151  14.273  0.00  0.00    +0.000 C 
BRANCH   9  10
ATOM     10  N   UNL     1       7.948   5.362  14.321  0.00  0.00    +0.000 NA
ATOM     11  H   UNL     1       8.340   4.785  13.572  0.00  0.00    +0.000 HD
ATOM     12  H   UNL     1       8.244   4.839  15.157  0.00  0.00    +0.000 HD
ENDBRANCH   9  10
BRANCH   9  13
ATOM     13  C   UNL     1       6.239   3.798  13.647  0.00  0.00    +0.000 C 
ATOM     14  C   UNL     1       5.161   3.469  12.632  0.00  0.00    +0.000 C 
ATOM     15  C   UNL     1       6.593   3.569  12.170  0.00  0.00    +0.000 C 
ENDBRANCH   9  13
ENDBRANCH   1   9
TORSDOF 7
ENDMDL
MODEL 4
REMARK VINA RESULT:      -4.9      1.042      1.132
REMARK  Name = 
REMARK  9 active torsions:
REMARK  status: ('A' for Active; 'I' for Inactive)
REMARK    1  A    between atoms: C_1  and  C_2
REMARK    2  A    between atoms: C_2  and  O_3
REMARK    3  A    between atoms: O_3  and  P_4
REMARK    4  A    between atoms: P_4  and  O_6
REMARK    5  A    between atoms: P_4  and  C_9
REMARK    6  A    between atoms: O_6  and  C_7
REMARK    7  A    between atoms: C_7  and  C_8
REMARK    8  A    between atoms: C_9  and  N_10
REMARK    9  A    between atoms: C_9  and  C_11
REMARK                            x       y       z     vdW  Elec       q    Type
REMARK                         _______ _______ _______ _____ _____    ______ ____
ROOT
ATOM      1  P   UNL     1       4.068   4.473  18.758  0.00  0.00    +0.000 P 
ATOM      2  O   UNL     1       4.010   4.255  17.230  0.00  0.00    +0.000 OA
ENDROOT
BRANCH   1   3
ATOM      3  O   UNL     1       4.448   6.144  18.524  0.00  0.00    +0.000 OA
BRANCH   3   5
ATOM      4  C   UNL     1       2.734   7.767  18.054  0.00  0.00    +0.000 C 
ATOM      5  C   UNL     1       3.884   6.932  17.487  0.00  0.00    +0.000 C 
ENDBRANCH   3   5
ENDBRANCH   1   3
BRANCH   1   6
ATOM      6  O   UNL     1       5.681   4.218  19.249  0.00  0.00    +0.000 OA
BRANCH   6   7
ATOM      7  C   UNL     1       6.653   5.128  18.744  0.00  0.00    +0.000 C 
ATOM      8  C   UNL     1       7.614   4.639  17.652  0.00  0.00    +0.000 C 
ENDBRANCH   6   7
ENDBRANCH   1   6
BRANCH   1   9
ATOM      9  C   UNL     1       3.665   2.705  19.005  0.00  0.00    +0.000 C 
BRANCH   9  10
ATOM     10  N   UNL     1       4.734   2.061  19.813  0.00  0.00    +0.000 NA
ATOM     11  H   UNL     1       5.567   2.045  19.218  0.00  0.00    +0.000 HD
ATOM     12  H   UNL     1       4.470   1.066  19.824  0.00  0.00    +0.000 HD
ENDBRANCH   9  10
BRANCH   9  13
ATOM     13  C   UNL     1       2.350   2.406  19.684  0.00  0.00    +0.000 C 
ATOM     14  C   UNL     1       1.211   3.388  19.878  0.00  0.00    +0.000 C 
ATOM     15  C   UNL     1       1.068   2.296  18.847  0.00  0.00    +0.000 C 
ENDBRANCH   9  13
ENDBRANCH   1   9
TORSDOF 7
ENDMDL
MODEL 5
REMARK VINA RESULT:      -4.9      2.004      2.547
REMARK  Name = 
REMARK  9 active torsions:
REMARK  status: ('A' for Active; 'I' for Inactive)
REMARK    1  A    between atoms: C_1  and  C_2
REMARK    2  A    between atoms: C_2  and  O_3
REMARK    3  A    between atoms: O_3  and  P_4
REMARK    4  A    between atoms: P_4  and  O_6
REMARK    5  A    between atoms: P_4  and  C_9
REMARK    6  A    between atoms: O_6  and  C_7
REMARK    7  A    between atoms: C_7  and  C_8
REMARK    8  A    between atoms: C_9  and  N_10
REMARK    9  A    between atoms: C_9  and  C_11
REMARK                            x       y       z     vdW  Elec       q    Type
REMARK                         _______ _______ _______ _____ _____    ______ ____
ROOT
ATOM      1  P   UNL     1       4.003   4.175  18.606  0.00  0.00    +0.000 P 
ATOM      2  O   UNL     1       4.639   3.060  19.464  0.00  0.00    +0.000 OA
ENDROOT
BRANCH   1   3
ATOM      3  O   UNL     1       4.910   3.657  17.227  0.00  0.00    +0.000 OA
BRANCH   3   5
ATOM      4  C   UNL     1       6.389   4.228  15.416  0.00  0.00    +0.000 C 
ATOM      5  C   UNL     1       4.998   4.410  16.027  0.00  0.00    +0.000 C 
ENDBRANCH   3   5
ENDBRANCH   1   3
BRANCH   1   6
ATOM      6  O   UNL     1       5.020   5.541  18.708  0.00  0.00    +0.000 OA
BRANCH   6   7
ATOM      7  C   UNL     1       6.308   5.335  19.280  0.00  0.00    +0.000 C 
ATOM      8  C   UNL     1       7.527   5.942  18.572  0.00  0.00    +0.000 C 
ENDBRANCH   6   7
ENDBRANCH   1   6
BRANCH   1   9
ATOM      9  C   UNL     1       3.044   4.724  20.064  0.00  0.00    +0.000 C 
BRANCH   9  10
ATOM     10  N   UNL     1       2.942   6.207  20.062  0.00  0.00    +0.000 NA
ATOM     11  H   UNL     1       2.001   6.426  20.400  0.00  0.00    +0.000 HD
ATOM     12  H   UNL     1       2.862   6.448  19.064  0.00  0.00    +0.000 HD
ENDBRANCH   9  10
BRANCH   9  13
ATOM     13  C   UNL     1       1.640   4.181  20.186  0.00  0.00    +0.000 C 
ATOM     14  C   UNL     1       1.185   2.799  19.756  0.00  0.00    +0.000 C 
ATOM     15  C   UNL     1       1.331   3.096  21.227  0.00  0.00    +0.000 C 
ENDBRANCH   9  13
ENDBRANCH   1   9
TORSDOF 7
ENDMDL
MODEL 6
REMARK VINA RESULT:      -4.9      1.572      2.769
REMARK  Name = 
REMARK  9 active torsions:
REMARK  status: ('A' for Active; 'I' for Inactive)
REMARK    1  A    between atoms: C_1  and  C_2
REMARK    2  A    between atoms: C_2  and  O_3
REMARK    3  A    between atoms: O_3  and  P_4
REMARK    4  A    between atoms: P_4  and  O_6
REMARK    5  A    between atoms: P_4  and  C_9
REMARK    6  A    between atoms: O_6  and  C_7
REMARK    7  A    between atoms: C_7  and  C_8
REMARK    8  A    between atoms: C_9  and  N_10
REMARK    9  A    between atoms: C_9  and  C_11
REMARK                            x       y       z     vdW  Elec       q    Type
REMARK                         _______ _______ _______ _____ _____    ______ ____
ROOT
ATOM      1  P   UNL     1       4.712   3.871  18.789  0.00  0.00    +0.000 P 
ATOM      2  O   UNL     1       5.039   2.850  19.900  0.00  0.00    +0.000 OA
ENDROOT
BRANCH   1   3
ATOM      3  O   UNL     1       6.371   4.357  18.719  0.00  0.00    +0.000 OA
BRANCH   3   5
ATOM      4  C   UNL     1       6.143   4.288  16.324  0.00  0.00    +0.000 C 
ATOM      5  C   UNL     1       7.042   4.659  17.505  0.00  0.00    +0.000 C 
ENDBRANCH   3   5
ENDBRANCH   1   3
BRANCH   1   6
ATOM      6  O   UNL     1       4.353   5.356  19.548  0.00  0.00    +0.000 OA
BRANCH   6   7
ATOM      7  C   UNL     1       3.377   6.177  18.915  0.00  0.00    +0.000 C 
ATOM      8  C   UNL     1       3.782   6.950  17.651  0.00  0.00    +0.000 C 
ENDBRANCH   6   7
ENDBRANCH   1   6
BRANCH   1   9
ATOM      9  C   UNL     1       2.957   3.358  18.862  0.00  0.00    +0.000 C 
BRANCH   9  10
ATOM     10  N   UNL     1       2.698   2.326  17.823  0.00  0.00    +0.000 NA
ATOM     11  H   UNL     1       1.739   2.484  17.502  0.00  0.00    +0.000 HD
ATOM     12  H   UNL     1       2.592   1.455  18.361  0.00  0.00    +0.000 HD
ENDBRANCH   9  10
BRANCH   9  13
ATOM     13  C   UNL     1       2.478   2.795  20.179  0.00  0.00    +0.000 C 
ATOM     14  C   UNL     1       2.157   3.603  21.423  0.00  0.00    +0.000 C 
ATOM     15  C   UNL     1       1.024   3.017  20.618  0.00  0.00    +0.000 C 
ENDBRANCH   9  13
ENDBRANCH   1   9
TORSDOF 7
ENDMDL
MODEL 7
REMARK VINA RESULT:      -4.9      1.883      2.915
REMARK  Name = 
REMARK  9 active torsions:
REMARK  status: ('A' for Active; 'I' for Inactive)
REMARK    1  A    between atoms: C_1  and  C_2
REMARK    2  A    between atoms: C_2  and  O_3
REMARK    3  A    between atoms: O_3  and  P_4
REMARK    4  A    between atoms: P_4  and  O_6
REMARK    5  A    between atoms: P_4  and  C_9
REMARK    6  A    between atoms: O_6  and  C_7
REMARK    7  A    between atoms: C_7  and  C_8
REMARK    8  A    between atoms: C_9  and  N_10
REMARK    9  A    between atoms: C_9  and  C_11
REMARK                            x       y       z     vdW  Elec       q    Type
REMARK                         _______ _______ _______ _____ _____    ______ ____
ROOT
ATOM      1  P   UNL     1       4.260   3.642  18.657  0.00  0.00    +0.000 P 
ATOM      2  O   UNL     1       3.760   5.066  18.982  0.00  0.00    +0.000 OA
ENDROOT
BRANCH   1   3
ATOM      3  O   UNL     1       5.900   4.194  18.670  0.00  0.00    +0.000 OA
BRANCH   3   5
ATOM      4  C   UNL     1       7.748   5.712  18.936  0.00  0.00    +0.000 C 
ATOM      5  C   UNL     1       6.322   5.358  19.363  0.00  0.00    +0.000 C 
ENDBRANCH   3   5
ENDBRANCH   1   3
BRANCH   1   6
ATOM      6  O   UNL     1       4.362   3.510  16.960  0.00  0.00    +0.000 OA
BRANCH   6   7
ATOM      7  C   UNL     1       5.455   4.174  16.333  0.00  0.00    +0.000 C 
ATOM      8  C   UNL     1       5.535   4.162  14.800  0.00  0.00    +0.000 C 
ENDBRANCH   6   7
ENDBRANCH   1   6
BRANCH   1   9
ATOM      9  C   UNL     1       2.526   3.057  18.644  0.00  0.00    +0.000 C 
BRANCH   9  10
ATOM     10  N   UNL     1       2.350   2.051  17.564  0.00  0.00    +0.000 NA
ATOM     11  H   UNL     1       1.547   2.365  17.013  0.00  0.00    +0.000 HD
ATOM     12  H   UNL     1       1.956   1.233  18.051  0.00  0.00    +0.000 HD
ENDBRANCH   9  10
BRANCH   9  13
ATOM     13  C   UNL     1       2.020   2.433  19.923  0.00  0.00    +0.000 C 
ATOM     14  C   UNL     1       2.445   2.822  21.326  0.00  0.00    +0.000 C 
ATOM     15  C   UNL     1       1.077   3.229  20.837  0.00  0.00    +0.000 C 
ENDBRANCH   9  13
ENDBRANCH   1   9
TORSDOF 7
ENDMDL
MODEL 8
REMARK VINA RESULT:      -4.9      2.331      4.651
REMARK  Name = 
REMARK  9 active torsions:
REMARK  status: ('A' for Active; 'I' for Inactive)
REMARK    1  A    between atoms: C_1  and  C_2
REMARK    2  A    between atoms: C_2  and  O_3
REMARK    3  A    between atoms: O_3  and  P_4
REMARK    4  A    between atoms: P_4  and  O_6
REMARK    5  A    between atoms: P_4  and  C_9
REMARK    6  A    between atoms: O_6  and  C_7
REMARK    7  A    between atoms: C_7  and  C_8
REMARK    8  A    between atoms: C_9  and  N_10
REMARK    9  A    between atoms: C_9  and  C_11
REMARK                            x       y       z     vdW  Elec       q    Type
REMARK                         _______ _______ _______ _____ _____    ______ ____
ROOT
ATOM      1  P   UNL     1       5.367   5.032  18.544  0.00  0.00    +0.000 P 
ATOM      2  O   UNL     1       6.365   5.170  19.715  0.00  0.00    +0.000 OA
ENDROOT
BRANCH   1   3
ATOM      3  O   UNL     1       4.035   5.100  19.646  0.00  0.00    +0.000 OA
BRANCH   3   5
ATOM      4  C   UNL     1       1.840   5.668  20.454  0.00  0.00    +0.000 C 
ATOM      5  C   UNL     1       3.023   6.093  19.581  0.00  0.00    +0.000 C 
ENDBRANCH   3   5
ENDBRANCH   1   3
BRANCH   1   6
ATOM      6  O   UNL     1       5.053   3.369  18.333  0.00  0.00    +0.000 OA
BRANCH   6   7
ATOM      7  C   UNL     1       3.728   3.014  17.951  0.00  0.00    +0.000 C 
ATOM      8  C   UNL     1       3.095   1.767  18.586  0.00  0.00    +0.000 C 
ENDBRANCH   6   7
ENDBRANCH   1   6
BRANCH   1   9
ATOM      9  C   UNL     1       6.776   4.961  17.378  0.00  0.00    +0.000 C 
BRANCH   9  10
ATOM     10  N   UNL     1       7.935   4.306  18.041  0.00  0.00    +0.000 NA
ATOM     11  H   UNL     1       7.590   3.965  18.942  0.00  0.00    +0.000 HD
ATOM     12  H   UNL     1       8.529   5.095  18.335  0.00  0.00    +0.000 HD
ENDBRANCH   9  10
BRANCH   9  13
ATOM     13  C   UNL     1       6.534   4.231  16.079  0.00  0.00    +0.000 C 
ATOM     14  C   UNL     1       5.505   4.608  15.030  0.00  0.00    +0.000 C 
ATOM     15  C   UNL     1       6.964   4.874  14.753  0.00  0.00    +0.000 C 
ENDBRANCH   9  13
ENDBRANCH   1   9
TORSDOF 7
ENDMDL
MODEL 9
REMARK VINA RESULT:      -4.9      2.407      4.713
REMARK  Name = 
REMARK  9 active torsions:
REMARK  status: ('A' for Active; 'I' for Inactive)
REMARK    1  A    between atoms: C_1  and  C_2
REMARK    2  A    between atoms: C_2  and  O_3
REMARK    3  A    between atoms: O_3  and  P_4
REMARK    4  A    between atoms: P_4  and  O_6
REMARK    5  A    between atoms: P_4  and  C_9
REMARK    6  A    between atoms: O_6  and  C_7
REMARK    7  A    between atoms: C_7  and  C_8
REMARK    8  A    between atoms: C_9  and  N_10
REMARK    9  A    between atoms: C_9  and  C_11
REMARK                            x       y       z     vdW  Elec       q    Type
REMARK                         _______ _______ _______ _____ _____    ______ ____
ROOT
ATOM      1  P   UNL     1       5.354   4.937  18.204  0.00  0.00    +0.000 P 
ATOM      2  O   UNL     1       5.476   4.015  19.437  0.00  0.00    +0.000 OA
ENDROOT
BRANCH   1   3
ATOM      3  O   UNL     1       3.660   4.603  18.098  0.00  0.00    +0.000 OA
BRANCH   3   5
ATOM      4  C   UNL     1       1.594   3.371  18.190  0.00  0.00    +0.000 C 
ATOM      5  C   UNL     1       3.072   3.406  18.584  0.00  0.00    +0.000 C 
ENDBRANCH   3   5
ENDBRANCH   1   3
BRANCH   1   6
ATOM      6  O   UNL     1       5.588   3.971  16.818  0.00  0.00    +0.000 OA
BRANCH   6   7
ATOM      7  C   UNL     1       5.212   4.545  15.570  0.00  0.00    +0.000 C 
ATOM      8  C   UNL     1       6.282   4.686  14.478  0.00  0.00    +0.000 C 
ENDBRANCH   6   7
ENDBRANCH   1   6
BRANCH   1   9
ATOM      9  C   UNL     1       7.146   5.291  18.316  0.00  0.00    +0.000 C 
BRANCH   9  10
ATOM     10  N   UNL     1       7.915   4.105  17.856  0.00  0.00    +0.000 NA
ATOM     11  H   UNL     1       8.875   4.248  18.180  0.00  0.00    +0.000 HD
ATOM     12  H   UNL     1       8.017   4.255  16.842  0.00  0.00    +0.000 HD
ENDBRANCH   9  10
BRANCH   9  13
ATOM     13  C   UNL     1       7.644   6.479  17.530  0.00  0.00    +0.000 C 
ATOM     14  C   UNL     1       6.924   7.806  17.378  0.00  0.00    +0.000 C 
ATOM     15  C   UNL     1       8.137   7.730  18.271  0.00  0.00    +0.000 C 
ENDBRANCH   9  13
ENDBRANCH   1   9
TORSDOF 7
ENDMDL
