MODEL 1
REMARK VINA RESULT:      -7.2      0.000      0.000
REMARK  Name = 
REMARK  9 active torsions:
REMARK  status: ('A' for Active; 'I' for Inactive)
REMARK    1  A    between atoms: C_1  and  C_2
REMARK    2  A    between atoms: C_2  and  C_3
REMARK    3  A    between atoms: C_3  and  C_4
REMARK    4  A    between atoms: C_4  and  N_5
REMARK    5  A    between atoms: N_5  and  C_6
REMARK    6  A    between atoms: N_18  and  C_19
REMARK    7  A    between atoms: C_19  and  C_20
REMARK    8  A    between atoms: C_20  and  C_21
REMARK    9  A    between atoms: C_21  and  C_22
REMARK                            x       y       z     vdW  Elec       q    Type
REMARK                         _______ _______ _______ _____ _____    ______ ____
ROOT
ATOM      1  C   UNL     1       1.701   8.391  19.240  0.00  0.00    +0.000 A 
ATOM      2  C   UNL     1       2.342   8.988  18.141  0.00  0.00    +0.000 A 
ATOM      3  C   UNL     1       3.273   8.295  17.374  0.00  0.00    +0.000 A 
ATOM      4  C   UNL     1       3.612   6.986  17.707  0.00  0.00    +0.000 A 
ATOM      5  C   UNL     1       3.028   6.355  18.807  0.00  0.00    +0.000 A 
ATOM      6  C   UNL     1       3.389   5.043  19.140  0.00  0.00    +0.000 A 
ATOM      7  C   UNL     1       2.828   4.403  20.251  0.00  0.00    +0.000 A 
ATOM      8  C   UNL     1       1.902   5.071  21.039  0.00  0.00    +0.000 A 
ATOM      9  C   UNL     1       1.527   6.376  20.714  0.00  0.00    +0.000 A 
ATOM     10  C   UNL     1       2.067   7.055  19.595  0.00  0.00    +0.000 A 
ATOM     11  C   UNL     1       4.379   4.307  18.313  0.00  0.00    +0.000 C 
ATOM     12  O   UNL     1       4.584   3.120  18.551  0.00  0.00    +0.000 OA
ATOM     13  N   UNL     1       5.004   5.016  17.288  0.00  0.00    +0.000 N 
ATOM     14  C   UNL     1       4.614   6.287  16.877  0.00  0.00    +0.000 C 
ATOM     15  O   UNL     1       5.040   6.841  15.868  0.00  0.00    +0.000 OA
ENDROOT
BRANCH   1  16
ATOM     16  N   UNL     1       0.786   9.118  20.036  0.00  0.00    +0.000 N 
ATOM     17  H   UNL     1      -0.006   8.535  20.300  0.00  0.00    +0.000 HD
BRANCH  16  18
ATOM     18  C   UNL     1       0.394  10.461  19.616  0.00  0.00    +0.000 C 
BRANCH  18  19
ATOM     19  C   UNL     1      -1.078  10.505  19.213  0.00  0.00    +0.000 C 
BRANCH  19  21
ATOM     20  C   UNL     1      -2.679   9.854  17.366  0.00  0.00    +0.000 C 
ATOM     21  C   UNL     1      -1.230  10.108  17.742  0.00  0.00    +0.000 C 
ENDBRANCH  19  21
ENDBRANCH  18  19
ENDBRANCH  16  18
ENDBRANCH   1  16
BRANCH  13  22
ATOM     22  C   UNL     1       5.986   4.314  16.462  0.00  0.00    +0.000 C 
BRANCH  22  23
ATOM     23  C   UNL     1       7.447   4.609  16.827  0.00  0.00    +0.000 C 
BRANCH  23  24
ATOM     24  C   UNL     1       7.641   5.073  18.270  0.00  0.00    +0.000 C 
ATOM     25  C   UNL     1       7.869   6.578  18.325  0.00  0.00    +0.000 C 
ENDBRANCH  23  24
ENDBRANCH  22  23
ENDBRANCH  13  22
TORSDOF 7
ENDMDL
MODEL 2
REMARK VINA RESULT:      -7.1      1.137      1.865
REMARK  Name = 
REMARK  9 active torsions:
REMARK  status: ('A' for Active; 'I' for Inactive)
REMARK    1  A    between atoms: C_1  and  C_2
REMARK    2  A    between atoms: C_2  and  C_3
REMARK    3  A    between atoms: C_3  and  C_4
REMARK    4  A    between atoms: C_4  and  N_5
REMARK    5  A    between atoms: N_5  and  C_6
REMARK    6  A    between atoms: N_18  and  C_19
REMARK    7  A    between atoms: C_19  and  C_20
REMARK    8  A    between atoms: C_20  and  C_21
REMARK    9  A    between atoms: C_21  and  C_22
REMARK                            x       y       z     vdW  Elec       q    Type
REMARK                         _______ _______ _______ _____ _____    ______ ____
ROOT
ATOM      1  C   UNL     1       1.872   8.216  19.289  0.00  0.00    +0.000 A 
ATOM      2  C   UNL     1       2.496   8.864  18.209  0.00  0.00    +0.000 A 
ATOM      3  C   UNL     1       3.406   8.205  17.389  0.00  0.00    +0.000 A 
ATOM      4  C   UNL     1       3.742   6.879  17.648  0.00  0.00    +0.000 A 
ATOM      5  C   UNL     1       3.175   6.196  18.727  0.00  0.00    +0.000 A 
ATOM      6  C   UNL     1       3.533   4.866  18.985  0.00  0.00    +0.000 A 
ATOM      7  C   UNL     1       2.989   4.175  20.073  0.00  0.00    +0.000 A 
ATOM      8  C   UNL     1       2.084   4.807  20.913  0.00  0.00    +0.000 A 
ATOM      9  C   UNL     1       1.712   6.130  20.662  0.00  0.00    +0.000 A 
ATOM     10  C   UNL     1       2.235   6.861  19.568  0.00  0.00    +0.000 A 
ATOM     11  C   UNL     1       4.500   4.167  18.102  0.00  0.00    +0.000 C 
ATOM     12  O   UNL     1       4.701   2.968  18.276  0.00  0.00    +0.000 OA
ATOM     13  N   UNL     1       5.110   4.923  17.102  0.00  0.00    +0.000 N 
ATOM     14  C   UNL     1       4.722   6.216  16.764  0.00  0.00    +0.000 C 
ATOM     15  O   UNL     1       5.132   6.818  15.776  0.00  0.00    +0.000 OA
ENDROOT
BRANCH   1  16
ATOM     16  N   UNL     1       0.979   8.907  20.139  0.00  0.00    +0.000 N 
ATOM     17  H   UNL     1       0.206   8.306  20.417  0.00  0.00    +0.000 HD
BRANCH  16  18
ATOM     18  C   UNL     1       0.552  10.255  19.771  0.00  0.00    +0.000 C 
BRANCH  18  19
ATOM     19  C   UNL     1      -0.961  10.321  19.578  0.00  0.00    +0.000 C 
BRANCH  19  21
ATOM     20  C   UNL     1      -1.751   9.929  17.207  0.00  0.00    +0.000 C 
ATOM     21  C   UNL     1      -1.288  10.957  18.224  0.00  0.00    +0.000 C 
ENDBRANCH  19  21
ENDBRANCH  18  19
ENDBRANCH  16  18
ENDBRANCH   1  16
BRANCH  13  22
ATOM     22  C   UNL     1       6.070   4.258  16.221  0.00  0.00    +0.000 C 
BRANCH  22  23
ATOM     23  C   UNL     1       5.497   3.838  14.861  0.00  0.00    +0.000 C 
BRANCH  23  24
ATOM     24  C   UNL     1       6.442   4.094  13.687  0.00  0.00    +0.000 C 
ATOM     25  C   UNL     1       5.945   3.386  12.433  0.00  0.00    +0.000 C 
ENDBRANCH  23  24
ENDBRANCH  22  23
ENDBRANCH  13  22
TORSDOF 7
ENDMDL
MODEL 3
REMARK VINA RESULT:      -6.9      1.650      2.608
REMARK  Name = 
REMARK  9 active torsions:
REMARK  status: ('A' for Active; 'I' for Inactive)
REMARK    1  A    between atoms: C_1  and  C_2
REMARK    2  A    between atoms: C_2  and  C_3
REMARK    3  A    between atoms: C_3  and  C_4
REMARK    4  A    between atoms: C_4  and  N_5
REMARK    5  A    between atoms: N_5  and  C_6
REMARK    6  A    between atoms: N_18  and  C_19
REMARK    7  A    between atoms: C_19  and  C_20
REMARK    8  A    between atoms: C_20  and  C_21
REMARK    9  A    between atoms: C_21  and  C_22
REMARK                            x       y       z     vdW  Elec       q    Type
REMARK                         _______ _______ _______ _____ _____    ______ ____
ROOT
ATOM      1  C   UNL     1       1.974   7.928  19.299  0.00  0.00    +0.000 A 
ATOM      2  C   UNL     1       2.581   8.641  18.251  0.00  0.00    +0.000 A 
ATOM      3  C   UNL     1       3.485   8.036  17.385  0.00  0.00    +0.000 A 
ATOM      4  C   UNL     1       3.833   6.699  17.564  0.00  0.00    +0.000 A 
ATOM      5  C   UNL     1       3.283   5.953  18.609  0.00  0.00    +0.000 A 
ATOM      6  C   UNL     1       3.652   4.613  18.786  0.00  0.00    +0.000 A 
ATOM      7  C   UNL     1       3.126   3.857  19.840  0.00  0.00    +0.000 A 
ATOM      8  C   UNL     1       2.227   4.434  20.724  0.00  0.00    +0.000 A 
ATOM      9  C   UNL     1       1.844   5.766  20.553  0.00  0.00    +0.000 A 
ATOM     10  C   UNL     1       2.349   6.562  19.497  0.00  0.00    +0.000 A 
ATOM     11  C   UNL     1       4.613   3.972  17.854  0.00  0.00    +0.000 C 
ATOM     12  O   UNL     1       4.823   2.766  17.956  0.00  0.00    +0.000 OA
ATOM     13  N   UNL     1       5.207   4.787  16.891  0.00  0.00    +0.000 N 
ATOM     14  C   UNL     1       4.806   6.095  16.632  0.00  0.00    +0.000 C 
ATOM     15  O   UNL     1       5.201   6.755  15.675  0.00  0.00    +0.000 OA
ENDROOT
BRANCH   1  16
ATOM     16  N   UNL     1       1.087   8.564  20.198  0.00  0.00    +0.000 N 
ATOM     17  H   UNL     1       0.258   7.993  20.352  0.00  0.00    +0.000 HD
BRANCH  16  18
ATOM     18  C   UNL     1       0.780   9.979  20.007  0.00  0.00    +0.000 C 
BRANCH  18  19
ATOM     19  C   UNL     1      -0.071  10.519  21.154  0.00  0.00    +0.000 C 
BRANCH  19  21
ATOM     20  C   UNL     1      -0.047   9.551  23.490  0.00  0.00    +0.000 C 
ATOM     21  C   UNL     1      -0.520   9.369  22.059  0.00  0.00    +0.000 C 
ENDBRANCH  19  21
ENDBRANCH  18  19
ENDBRANCH  16  18
ENDBRANCH   1  16
BRANCH  13  22
ATOM     22  C   UNL     1       6.160   4.180  15.963  0.00  0.00    +0.000 C 
BRANCH  22  23
ATOM     23  C   UNL     1       5.540   3.692  14.647  0.00  0.00    +0.000 C 
BRANCH  23  24
ATOM     24  C   UNL     1       6.383   4.009  13.412  0.00  0.00    +0.000 C 
ATOM     25  C   UNL     1       5.872   3.240  12.201  0.00  0.00    +0.000 C 
ENDBRANCH  23  24
ENDBRANCH  22  23
ENDBRANCH  13  22
TORSDOF 7
ENDMDL
MODEL 4
REMARK VINA RESULT:      -6.9      2.011      2.627
REMARK  Name = 
REMARK  9 active torsions:
REMARK  status: ('A' for Active; 'I' for Inactive)
REMARK    1  A    between atoms: C_1  and  C_2
REMARK    2  A    between atoms: C_2  and  C_3
REMARK    3  A    between atoms: C_3  and  C_4
REMARK    4  A    between atoms: C_4  and  N_5
REMARK    5  A    between atoms: N_5  and  C_6
REMARK    6  A    between atoms: N_18  and  C_19
REMARK    7  A    between atoms: C_19  and  C_20
REMARK    8  A    between atoms: C_20  and  C_21
REMARK    9  A    between atoms: C_21  and  C_22
REMARK                            x       y       z     vdW  Elec       q    Type
REMARK                         _______ _______ _______ _____ _____    ______ ____
ROOT
ATOM      1  C   UNL     1       1.886   6.989  20.192  0.00  0.00    +0.000 A 
ATOM      2  C   UNL     1       2.454   7.836  19.226  0.00  0.00    +0.000 A 
ATOM      3  C   UNL     1       3.221   7.338  18.178  0.00  0.00    +0.000 A 
ATOM      4  C   UNL     1       3.467   5.970  18.085  0.00  0.00    +0.000 A 
ATOM      5  C   UNL     1       2.952   5.086  19.035  0.00  0.00    +0.000 A 
ATOM      6  C   UNL     1       3.219   3.714  18.938  0.00  0.00    +0.000 A 
ATOM      7  C   UNL     1       2.727   2.817  19.893  0.00  0.00    +0.000 A 
ATOM      8  C   UNL     1       1.965   3.285  20.954  0.00  0.00    +0.000 A 
ATOM      9  C   UNL     1       1.684   4.649  21.058  0.00  0.00    +0.000 A 
ATOM     10  C   UNL     1       2.158   5.587  20.109  0.00  0.00    +0.000 A 
ATOM     11  C   UNL     1       4.033   3.188  17.813  0.00  0.00    +0.000 C 
ATOM     12  O   UNL     1       4.147   1.972  17.682  0.00  0.00    +0.000 OA
ATOM     13  N   UNL     1       4.605   4.122  16.950  0.00  0.00    +0.000 N 
ATOM     14  C   UNL     1       4.296   5.479  16.965  0.00  0.00    +0.000 C 
ATOM     15  O   UNL     1       4.658   6.273  16.102  0.00  0.00    +0.000 OA
ENDROOT
BRANCH   1  16
ATOM     16  N   UNL     1       1.142   7.510  21.275  0.00  0.00    +0.000 N 
ATOM     17  H   UNL     1       0.165   7.233  21.209  0.00  0.00    +0.000 HD
BRANCH  16  18
ATOM     18  C   UNL     1       1.315   8.914  21.641  0.00  0.00    +0.000 C 
BRANCH  18  19
ATOM     19  C   UNL     1      -0.006   9.673  21.556  0.00  0.00    +0.000 C 
BRANCH  19  21
ATOM     20  C   UNL     1      -1.356  11.172  23.083  0.00  0.00    +0.000 C 
ATOM     21  C   UNL     1      -0.590   9.867  22.958  0.00  0.00    +0.000 C 
ENDBRANCH  19  21
ENDBRANCH  18  19
ENDBRANCH  16  18
ENDBRANCH   1  16
BRANCH  13  22
ATOM     22  C   UNL     1       5.414   3.629  15.836  0.00  0.00    +0.000 C 
BRANCH  22  23
ATOM     23  C   UNL     1       6.801   4.278  15.726  0.00  0.00    +0.000 C 
BRANCH  23  24
ATOM     24  C   UNL     1       7.154   4.745  14.314  0.00  0.00    +0.000 C 
ATOM     25  C   UNL     1       6.352   3.971  13.276  0.00  0.00    +0.000 C 
ENDBRANCH  23  24
ENDBRANCH  22  23
ENDBRANCH  13  22
TORSDOF 7
ENDMDL
MODEL 5
REMARK VINA RESULT:      -6.9      1.808      6.739
REMARK  Name = 
REMARK  9 active torsions:
REMARK  status: ('A' for Active; 'I' for Inactive)
REMARK    1  A    between atoms: C_1  and  C_2
REMARK    2  A    between atoms: C_2  and  C_3
REMARK    3  A    between atoms: C_3  and  C_4
REMARK    4  A    between atoms: C_4  and  N_5
REMARK    5  A    between atoms: N_5  and  C_6
REMARK    6  A    between atoms: N_18  and  C_19
REMARK    7  A    between atoms: C_19  and  C_20
REMARK    8  A    between atoms: C_20  and  C_21
REMARK    9  A    between atoms: C_21  and  C_22
REMARK                            x       y       z     vdW  Elec       q    Type
REMARK                         _______ _______ _______ _____ _____    ______ ____
ROOT
ATOM      1  C   UNL     1       4.343   5.311  17.487  0.00  0.00    +0.000 A 
ATOM      2  C   UNL     1       4.390   6.414  16.618  0.00  0.00    +0.000 A 
ATOM      3  C   UNL     1       3.696   7.589  16.890  0.00  0.00    +0.000 A 
ATOM      4  C   UNL     1       2.905   7.681  18.033  0.00  0.00    +0.000 A 
ATOM      5  C   UNL     1       2.798   6.604  18.915  0.00  0.00    +0.000 A 
ATOM      6  C   UNL     1       1.988   6.705  20.054  0.00  0.00    +0.000 A 
ATOM      7  C   UNL     1       1.854   5.628  20.938  0.00  0.00    +0.000 A 
ATOM      8  C   UNL     1       2.528   4.441  20.690  0.00  0.00    +0.000 A 
ATOM      9  C   UNL     1       3.345   4.330  19.563  0.00  0.00    +0.000 A 
ATOM     10  C   UNL     1       3.512   5.398  18.649  0.00  0.00    +0.000 A 
ATOM     11  C   UNL     1       1.255   7.964  20.341  0.00  0.00    +0.000 C 
ATOM     12  O   UNL     1       0.654   8.069  21.407  0.00  0.00    +0.000 OA
ATOM     13  N   UNL     1       1.318   8.970  19.379  0.00  0.00    +0.000 N 
ATOM     14  C   UNL     1       2.173   8.939  18.281  0.00  0.00    +0.000 C 
ATOM     15  O   UNL     1       2.361   9.893  17.531  0.00  0.00    +0.000 OA
ENDROOT
BRANCH   1  16
ATOM     16  N   UNL     1       5.019   4.108  17.181  0.00  0.00    +0.000 N 
ATOM     17  H   UNL     1       5.291   3.620  18.032  0.00  0.00    +0.000 HD
BRANCH  16  18
ATOM     18  C   UNL     1       6.075   4.129  16.171  0.00  0.00    +0.000 C 
BRANCH  18  19
ATOM     19  C   UNL     1       7.226   5.038  16.594  0.00  0.00    +0.000 C 
BRANCH  19  21
ATOM     20  C   UNL     1       7.800   5.749  18.952  0.00  0.00    +0.000 C 
ATOM     21  C   UNL     1       7.764   4.601  17.959  0.00  0.00    +0.000 C 
ENDBRANCH  19  21
ENDBRANCH  18  19
ENDBRANCH  16  18
ENDBRANCH   1  16
BRANCH  13  22
ATOM     22  C   UNL     1       0.601  10.219  19.636  0.00  0.00    +0.000 C 
BRANCH  22  23
ATOM     23  C   UNL     1      -0.893  10.176  19.286  0.00  0.00    +0.000 C 
BRANCH  23  24
ATOM     24  C   UNL     1      -1.174  10.138  17.784  0.00  0.00    +0.000 C 
ATOM     25  C   UNL     1      -2.653   9.891  17.520  0.00  0.00    +0.000 C 
ENDBRANCH  23  24
ENDBRANCH  22  23
ENDBRANCH  13  22
TORSDOF 7
ENDMDL
MODEL 6
REMARK VINA RESULT:      -6.8      1.231      1.413
REMARK  Name = 
REMARK  9 active torsions:
REMARK  status: ('A' for Active; 'I' for Inactive)
REMARK    1  A    between atoms: C_1  and  C_2
REMARK    2  A    between atoms: C_2  and  C_3
REMARK    3  A    between atoms: C_3  and  C_4
REMARK    4  A    between atoms: C_4  and  N_5
REMARK    5  A    between atoms: N_5  and  C_6
REMARK    6  A    between atoms: N_18  and  C_19
REMARK    7  A    between atoms: C_19  and  C_20
REMARK    8  A    between atoms: C_20  and  C_21
REMARK    9  A    between atoms: C_21  and  C_22
REMARK                            x       y       z     vdW  Elec       q    Type
REMARK                         _______ _______ _______ _____ _____    ______ ____
ROOT
ATOM      1  C   UNL     1       1.694   7.900  19.769  0.00  0.00    +0.000 A 
ATOM      2  C   UNL     1       2.260   8.640  18.717  0.00  0.00    +0.000 A 
ATOM      3  C   UNL     1       3.110   8.053  17.786  0.00  0.00    +0.000 A 
ATOM      4  C   UNL     1       3.444   6.706  17.901  0.00  0.00    +0.000 A 
ATOM      5  C   UNL     1       2.935   5.931  18.945  0.00  0.00    +0.000 A 
ATOM      6  C   UNL     1       3.290   4.580  19.058  0.00  0.00    +0.000 A 
ATOM      7  C   UNL     1       2.805   3.795  20.109  0.00  0.00    +0.000 A 
ATOM      8  C   UNL     1       1.960   4.354  21.058  0.00  0.00    +0.000 A 
ATOM      9  C   UNL     1       1.591   5.697  20.952  0.00  0.00    +0.000 A 
ATOM     10  C   UNL     1       2.056   6.522  19.900  0.00  0.00    +0.000 A 
ATOM     11  C   UNL     1       4.193   3.959  18.057  0.00  0.00    +0.000 C 
ATOM     12  O   UNL     1       4.389   2.747  18.107  0.00  0.00    +0.000 OA
ATOM     13  N   UNL     1       4.752   4.799  17.095  0.00  0.00    +0.000 N 
ATOM     14  C   UNL     1       4.360   6.121  16.901  0.00  0.00    +0.000 C 
ATOM     15  O   UNL     1       4.718   6.808  15.949  0.00  0.00    +0.000 OA
ENDROOT
BRANCH   1  16
ATOM     16  N   UNL     1       0.864   8.516  20.733  0.00  0.00    +0.000 N 
ATOM     17  H   UNL     1       0.295   7.823  21.216  0.00  0.00    +0.000 HD
BRANCH  16  18
ATOM     18  C   UNL     1       0.113   9.712  20.358  0.00  0.00    +0.000 C 
BRANCH  18  19
ATOM     19  C   UNL     1       0.560  10.922  21.174  0.00  0.00    +0.000 C 
BRANCH  19  21
ATOM     20  C   UNL     1       0.561  11.971  18.872  0.00  0.00    +0.000 C 
ATOM     21  C   UNL     1       1.193  11.968  20.253  0.00  0.00    +0.000 C 
ENDBRANCH  19  21
ENDBRANCH  18  19
ENDBRANCH  16  18
ENDBRANCH   1  16
BRANCH  13  22
ATOM     22  C   UNL     1       5.648   4.211  16.099  0.00  0.00    +0.000 C 
BRANCH  22  23
ATOM     23  C   UNL     1       7.118   4.625  16.249  0.00  0.00    +0.000 C 
BRANCH  23  24
ATOM     24  C   UNL     1       7.631   4.573  17.688  0.00  0.00    +0.000 C 
ATOM     25  C   UNL     1       7.681   5.970  18.291  0.00  0.00    +0.000 C 
ENDBRANCH  23  24
ENDBRANCH  22  23
ENDBRANCH  13  22
TORSDOF 7
ENDMDL
MODEL 7
REMARK VINA RESULT:      -6.8      2.090      6.811
REMARK  Name = 
REMARK  9 active torsions:
REMARK  status: ('A' for Active; 'I' for Inactive)
REMARK    1  A    between atoms: C_1  and  C_2
REMARK    2  A    between atoms: C_2  and  C_3
REMARK    3  A    between atoms: C_3  and  C_4
REMARK    4  A    between atoms: C_4  and  N_5
REMARK    5  A    between atoms: N_5  and  C_6
REMARK    6  A    between atoms: N_18  and  C_19
REMARK    7  A    between atoms: C_19  and  C_20
REMARK    8  A    between atoms: C_20  and  C_21
REMARK    9  A    between atoms: C_21  and  C_22
REMARK                            x       y       z     vdW  Elec       q    Type
REMARK                         _______ _______ _______ _____ _____    ______ ____
ROOT
ATOM      1  C   UNL     1       4.460   5.480  17.634  0.00  0.00    +0.000 A 
ATOM      2  C   UNL     1       4.526   6.578  16.761  0.00  0.00    +0.000 A 
ATOM      3  C   UNL     1       3.792   7.738  16.988  0.00  0.00    +0.000 A 
ATOM      4  C   UNL     1       2.941   7.818  18.088  0.00  0.00    +0.000 A 
ATOM      5  C   UNL     1       2.813   6.743  18.971  0.00  0.00    +0.000 A 
ATOM      6  C   UNL     1       1.942   6.832  20.065  0.00  0.00    +0.000 A 
ATOM      7  C   UNL     1       1.787   5.758  20.948  0.00  0.00    +0.000 A 
ATOM      8  C   UNL     1       2.501   4.585  20.744  0.00  0.00    +0.000 A 
ATOM      9  C   UNL     1       3.379   4.487  19.662  0.00  0.00    +0.000 A 
ATOM     10  C   UNL     1       3.568   5.554  18.751  0.00  0.00    +0.000 A 
ATOM     11  C   UNL     1       1.167   8.075  20.305  0.00  0.00    +0.000 C 
ATOM     12  O   UNL     1       0.508   8.172  21.338  0.00  0.00    +0.000 OA
ATOM     13  N   UNL     1       1.256   9.077  19.340  0.00  0.00    +0.000 N 
ATOM     14  C   UNL     1       2.168   9.060  18.289  0.00  0.00    +0.000 C 
ATOM     15  O   UNL     1       2.372  10.014  17.543  0.00  0.00    +0.000 OA
ENDROOT
BRANCH   1  16
ATOM     16  N   UNL     1       5.179   4.291  17.372  0.00  0.00    +0.000 N 
ATOM     17  H   UNL     1       5.449   3.833  18.240  0.00  0.00    +0.000 HD
BRANCH  16  18
ATOM     18  C   UNL     1       6.254   4.319  16.382  0.00  0.00    +0.000 C 
BRANCH  18  19
ATOM     19  C   UNL     1       5.856   3.568  15.115  0.00  0.00    +0.000 C 
BRANCH  19  21
ATOM     20  C   UNL     1       6.107   3.537  12.598  0.00  0.00    +0.000 C 
ATOM     21  C   UNL     1       6.442   4.269  13.886  0.00  0.00    +0.000 C 
ENDBRANCH  19  21
ENDBRANCH  18  19
ENDBRANCH  16  18
ENDBRANCH   1  16
BRANCH  13  22
ATOM     22  C   UNL     1       0.497  10.310  19.551  0.00  0.00    +0.000 C 
BRANCH  22  23
ATOM     23  C   UNL     1      -0.990  10.209  19.185  0.00  0.00    +0.000 C 
BRANCH  23  24
ATOM     24  C   UNL     1      -1.252  10.140  17.681  0.00  0.00    +0.000 C 
ATOM     25  C   UNL     1      -2.341  11.125  17.279  0.00  0.00    +0.000 C 
ENDBRANCH  23  24
ENDBRANCH  22  23
ENDBRANCH  13  22
TORSDOF 7
ENDMDL
MODEL 8
REMARK VINA RESULT:      -6.7      1.627      2.523
REMARK  Name = 
REMARK  9 active torsions:
REMARK  status: ('A' for Active; 'I' for Inactive)
REMARK    1  A    between atoms: C_1  and  C_2
REMARK    2  A    between atoms: C_2  and  C_3
REMARK    3  A    between atoms: C_3  and  C_4
REMARK    4  A    between atoms: C_4  and  N_5
REMARK    5  A    between atoms: N_5  and  C_6
REMARK    6  A    between atoms: N_18  and  C_19
REMARK    7  A    between atoms: C_19  and  C_20
REMARK    8  A    between atoms: C_20  and  C_21
REMARK    9  A    between atoms: C_21  and  C_22
REMARK                            x       y       z     vdW  Elec       q    Type
REMARK                         _______ _______ _______ _____ _____    ______ ____
ROOT
ATOM      1  C   UNL     1       1.786   7.321  19.861  0.00  0.00    +0.000 A 
ATOM      2  C   UNL     1       2.408   8.203  18.962  0.00  0.00    +0.000 A 
ATOM      3  C   UNL     1       3.284   7.749  17.981  0.00  0.00    +0.000 A 
ATOM      4  C   UNL     1       3.587   6.392  17.892  0.00  0.00    +0.000 A 
ATOM      5  C   UNL     1       3.020   5.475  18.781  0.00  0.00    +0.000 A 
ATOM      6  C   UNL     1       3.344   4.115  18.690  0.00  0.00    +0.000 A 
ATOM      7  C   UNL     1       2.801   3.186  19.584  0.00  0.00    +0.000 A 
ATOM      8  C   UNL     1       1.930   3.609  20.578  0.00  0.00    +0.000 A 
ATOM      9  C   UNL     1       1.592   4.961  20.674  0.00  0.00    +0.000 A 
ATOM     10  C   UNL     1       2.115   5.930  19.784  0.00  0.00    +0.000 A 
ATOM     11  C   UNL     1       4.274   3.637  17.636  0.00  0.00    +0.000 C 
ATOM     12  O   UNL     1       4.443   2.427  17.500  0.00  0.00    +0.000 OA
ATOM     13  N   UNL     1       4.887   4.604  16.841  0.00  0.00    +0.000 N 
ATOM     14  C   UNL     1       4.530   5.949  16.846  0.00  0.00    +0.000 C 
ATOM     15  O   UNL     1       4.940   6.769  16.030  0.00  0.00    +0.000 OA
ENDROOT
BRANCH   1  16
ATOM     16  N   UNL     1       0.930   7.798  20.879  0.00  0.00    +0.000 N 
ATOM     17  H   UNL     1      -0.018   7.918  20.527  0.00  0.00    +0.000 HD
BRANCH  16  18
ATOM     18  C   UNL     1       1.375   8.910  21.714  0.00  0.00    +0.000 C 
BRANCH  18  19
ATOM     19  C   UNL     1       0.335  10.028  21.746  0.00  0.00    +0.000 C 
BRANCH  19  21
ATOM     20  C   UNL     1       0.109  11.107  19.469  0.00  0.00    +0.000 C 
ATOM     21  C   UNL     1      -0.437  10.060  20.424  0.00  0.00    +0.000 C 
ENDBRANCH  19  21
ENDBRANCH  18  19
ENDBRANCH  16  18
ENDBRANCH   1  16
BRANCH  13  22
ATOM     22  C   UNL     1       5.812   4.158  15.799  0.00  0.00    +0.000 C 
BRANCH  22  23
ATOM     23  C   UNL     1       5.258   4.270  14.372  0.00  0.00    +0.000 C 
BRANCH  23  24
ATOM     24  C   UNL     1       6.211   3.746  13.297  0.00  0.00    +0.000 C 
ATOM     25  C   UNL     1       5.432   3.215  12.101  0.00  0.00    +0.000 C 
ENDBRANCH  23  24
ENDBRANCH  22  23
ENDBRANCH  13  22
TORSDOF 7
ENDMDL
MODEL 9
REMARK VINA RESULT:      -6.7      2.974      6.731
REMARK  Name = 
REMARK  9 active torsions:
REMARK  status: ('A' for Active; 'I' for Inactive)
REMARK    1  A    between atoms: C_1  and  C_2
REMARK    2  A    between atoms: C_2  and  C_3
REMARK    3  A    between atoms: C_3  and  C_4
REMARK    4  A    between atoms: C_4  and  N_5
REMARK    5  A    between atoms: N_5  and  C_6
REMARK    6  A    between atoms: N_18  and  C_19
REMARK    7  A    between atoms: C_19  and  C_20
REMARK    8  A    between atoms: C_20  and  C_21
REMARK    9  A    between atoms: C_21  and  C_22
REMARK                            x       y       z     vdW  Elec       q    Type
REMARK                         _______ _______ _______ _____ _____    ______ ____
ROOT
ATOM      1  C   UNL     1       5.589   5.270  16.066  0.00  0.00    +0.000 A 
ATOM      2  C   UNL     1       5.934   3.981  16.506  0.00  0.00    +0.000 A 
ATOM      3  C   UNL     1       5.359   3.418  17.641  0.00  0.00    +0.000 A 
ATOM      4  C   UNL     1       4.439   4.148  18.390  0.00  0.00    +0.000 A 
ATOM      5  C   UNL     1       4.085   5.446  18.016  0.00  0.00    +0.000 A 
ATOM      6  C   UNL     1       3.169   6.176  18.786  0.00  0.00    +0.000 A 
ATOM      7  C   UNL     1       2.817   7.484  18.436  0.00  0.00    +0.000 A 
ATOM      8  C   UNL     1       3.379   8.075  17.313  0.00  0.00    +0.000 A 
ATOM      9  C   UNL     1       4.286   7.356  16.531  0.00  0.00    +0.000 A 
ATOM     10  C   UNL     1       4.662   6.028  16.849  0.00  0.00    +0.000 A 
ATOM     11  C   UNL     1       2.555   5.566  19.992  0.00  0.00    +0.000 C 
ATOM     12  O   UNL     1       1.664   6.179  20.577  0.00  0.00    +0.000 OA
ATOM     13  N   UNL     1       3.018   4.309  20.377  0.00  0.00    +0.000 N 
ATOM     14  C   UNL     1       3.860   3.523  19.596  0.00  0.00    +0.000 C 
ATOM     15  O   UNL     1       4.129   2.351  19.845  0.00  0.00    +0.000 OA
ENDROOT
BRANCH   1  16
ATOM     16  N   UNL     1       6.209   5.847  14.934  0.00  0.00    +0.000 N 
ATOM     17  H   UNL     1       5.517   6.268  14.318  0.00  0.00    +0.000 HD
BRANCH  16  18
ATOM     18  C   UNL     1       7.223   5.079  14.215  0.00  0.00    +0.000 C 
BRANCH  18  19
ATOM     19  C   UNL     1       6.751   4.726  12.807  0.00  0.00    +0.000 C 
BRANCH  19  21
ATOM     20  C   UNL     1       4.990   3.201  11.821  0.00  0.00    +0.000 C 
ATOM     21  C   UNL     1       6.150   3.318  12.794  0.00  0.00    +0.000 C 
ENDBRANCH  19  21
ENDBRANCH  18  19
ENDBRANCH  16  18
ENDBRANCH   1  16
BRANCH  13  22
ATOM     22  C   UNL     1       2.431   3.690  21.565  0.00  0.00    +0.000 C 
BRANCH  22  23
ATOM     23  C   UNL     1       1.305   2.691  21.268  0.00  0.00    +0.000 C 
BRANCH  23  24
ATOM     24  C   UNL     1       0.429   3.084  20.079  0.00  0.00    +0.000 C 
ATOM     25  C   UNL     1       0.752   2.224  18.865  0.00  0.00    +0.000 C 
ENDBRANCH  23  24
ENDBRANCH  22  23
ENDBRANCH  13  22
TORSDOF 7
ENDMDL
