MODEL 1
REMARK VINA RESULT:      -7.1      0.000      0.000
REMARK  Name = 
REMARK  5 active torsions:
REMARK  status: ('A' for Active; 'I' for Inactive)
REMARK    1  A    between atoms: C_1  and  N_2
REMARK    2  A    between atoms: N_2  and  C_3
REMARK    3  A    between atoms: C_9  and  C_10
REMARK    4  A    between atoms: N_18  and  C_19
REMARK    5  A    between atoms: C_19  and  C_20
REMARK                            x       y       z     vdW  Elec       q    Type
REMARK                         _______ _______ _______ _____ _____    ______ ____
ROOT
ATOM      1  C   UNL     1       6.898   4.545  17.381  0.00  0.00    +0.000 C 
ATOM      2  N   UNL     1       5.788   4.667  18.299  0.00  0.00    +0.000 N 
ATOM      3  C   UNL     1       5.336   3.520  19.060  0.00  0.00    +0.000 C 
ATOM      4  C   UNL     1       4.869   5.674  18.076  0.00  0.00    +0.000 A 
ATOM      5  N   UNL     1       5.047   6.519  17.048  0.00  0.00    +0.000 NA
ATOM      6  C   UNL     1       4.176   7.544  16.923  0.00  0.00    +0.000 A 
ATOM      7  C   UNL     1       3.149   7.799  17.804  0.00  0.00    +0.000 A 
ATOM      8  N   UNL     1       2.320   8.924  17.658  0.00  0.00    +0.000 NA
ATOM      9  C   UNL     1       1.475   9.187  18.618  0.00  0.00    +0.000 A 
ATOM     10  C   UNL     1       1.407   8.309  19.887  0.00  0.00    +0.000 A 
ATOM     11  O   UNL     1       0.789   8.706  20.868  0.00  0.00    +0.000 OA
ATOM     12  N   UNL     1       2.094   7.112  19.844  0.00  0.00    +0.000 N 
ATOM     13  C   UNL     1       3.046   6.874  18.826  0.00  0.00    +0.000 A 
ATOM     14  N   UNL     1       3.862   5.810  18.949  0.00  0.00    +0.000 NA
ENDROOT
BRANCH   9  15
ATOM     15  C   UNL     1       0.570  10.370  18.494  0.00  0.00    +0.000 A 
ATOM     16  C   UNL     1      -0.773  10.240  18.115  0.00  0.00    +0.000 A 
ATOM     17  C   UNL     1      -1.603  11.363  18.039  0.00  0.00    +0.000 A 
ATOM     18  C   UNL     1      -1.092  12.628  18.322  0.00  0.00    +0.000 A 
ATOM     19  C   UNL     1       0.249  12.773  18.672  0.00  0.00    +0.000 A 
ATOM     20  C   UNL     1       1.078  11.651  18.755  0.00  0.00    +0.000 A 
ENDBRANCH   9  15
BRANCH  12  21
ATOM     21  C   UNL     1       2.065   6.222  20.998  0.00  0.00    +0.000 C 
BRANCH  21  22
ATOM     22  C   UNL     1       1.721   4.802  20.628  0.00  0.00    +0.000 A 
ATOM     23  C   UNL     1       0.887   4.302  19.644  0.00  0.00    +0.000 A 
ATOM     24  C   UNL     1       0.766   2.881  19.699  0.00  0.00    +0.000 A 
ATOM     25  C   UNL     1       1.518   2.339  20.715  0.00  0.00    +0.000 A 
ATOM     26  S   UNL     1       2.378   3.530  21.583  0.00  0.00    +0.000 S 
ENDBRANCH  21  22
ENDBRANCH  12  21
TORSDOF 3
ENDMDL
MODEL 2
REMARK VINA RESULT:      -7.1      3.584      7.909
REMARK  Name = 
REMARK  5 active torsions:
REMARK  status: ('A' for Active; 'I' for Inactive)
REMARK    1  A    between atoms: C_1  and  N_2
REMARK    2  A    between atoms: N_2  and  C_3
REMARK    3  A    between atoms: C_9  and  C_10
REMARK    4  A    between atoms: N_18  and  C_19
REMARK    5  A    between atoms: C_19  and  C_20
REMARK                            x       y       z     vdW  Elec       q    Type
REMARK                         _______ _______ _______ _____ _____    ______ ____
ROOT
ATOM      1  C   UNL     1      -1.572  13.176  23.819  0.00  0.00    +0.000 C 
ATOM      2  N   UNL     1      -1.314  12.774  22.454  0.00  0.00    +0.000 N 
ATOM      3  C   UNL     1      -2.027  13.398  21.358  0.00  0.00    +0.000 C 
ATOM      4  C   UNL     1      -0.812  11.505  22.235  0.00  0.00    +0.000 A 
ATOM      5  N   UNL     1      -0.551  10.705  23.281  0.00  0.00    +0.000 NA
ATOM      6  C   UNL     1       0.026   9.511  23.026  0.00  0.00    +0.000 A 
ATOM      7  C   UNL     1       0.398   9.083  21.772  0.00  0.00    +0.000 A 
ATOM      8  N   UNL     1       1.059   7.859  21.580  0.00  0.00    +0.000 NA
ATOM      9  C   UNL     1       1.523   7.595  20.389  0.00  0.00    +0.000 A 
ATOM     10  C   UNL     1       1.378   8.608  19.232  0.00  0.00    +0.000 A 
ATOM     11  O   UNL     1       2.024   8.451  18.202  0.00  0.00    +0.000 OA
ATOM     12  N   UNL     1       0.530   9.676  19.452  0.00  0.00    +0.000 N 
ATOM     13  C   UNL     1       0.087   9.974  20.761  0.00  0.00    +0.000 A 
ATOM     14  N   UNL     1      -0.538  11.148  20.973  0.00  0.00    +0.000 NA
ENDROOT
BRANCH   9  15
ATOM     15  C   UNL     1       2.223   6.298  20.145  0.00  0.00    +0.000 A 
ATOM     16  C   UNL     1       3.468   6.236  19.505  0.00  0.00    +0.000 A 
ATOM     17  C   UNL     1       4.113   5.009  19.319  0.00  0.00    +0.000 A 
ATOM     18  C   UNL     1       3.510   3.831  19.754  0.00  0.00    +0.000 A 
ATOM     19  C   UNL     1       2.259   3.877  20.366  0.00  0.00    +0.000 A 
ATOM     20  C   UNL     1       1.615   5.103  20.559  0.00  0.00    +0.000 A 
ENDBRANCH   9  15
BRANCH  12  21
ATOM     21  C   UNL     1       0.329  10.666  18.402  0.00  0.00    +0.000 C 
BRANCH  21  22
ATOM     22  C   UNL     1      -1.031  10.567  17.763  0.00  0.00    +0.000 A 
ATOM     23  C   UNL     1      -1.592   9.573  16.981  0.00  0.00    +0.000 A 
ATOM     24  C   UNL     1      -2.886   9.926  16.493  0.00  0.00    +0.000 A 
ATOM     25  C   UNL     1      -3.278  11.172  16.923  0.00  0.00    +0.000 A 
ATOM     26  S   UNL     1      -2.106  11.903  17.925  0.00  0.00    +0.000 S 
ENDBRANCH  21  22
ENDBRANCH  12  21
TORSDOF 3
ENDMDL
MODEL 3
REMARK VINA RESULT:      -7.0      4.457      6.638
REMARK  Name = 
REMARK  5 active torsions:
REMARK  status: ('A' for Active; 'I' for Inactive)
REMARK    1  A    between atoms: C_1  and  N_2
REMARK    2  A    between atoms: N_2  and  C_3
REMARK    3  A    between atoms: C_9  and  C_10
REMARK    4  A    between atoms: N_18  and  C_19
REMARK    5  A    between atoms: C_19  and  C_20
REMARK                            x       y       z     vdW  Elec       q    Type
REMARK                         _______ _______ _______ _____ _____    ______ ____
ROOT
ATOM      1  C   UNL     1       2.512   6.680  19.552  0.00  0.00    +0.000 C 
ATOM      2  N   UNL     1       1.926   7.919  19.089  0.00  0.00    +0.000 N 
ATOM      3  C   UNL     1       2.314   8.480  17.811  0.00  0.00    +0.000 C 
ATOM      4  C   UNL     1       1.427   8.794  20.034  0.00  0.00    +0.000 A 
ATOM      5  N   UNL     1       1.469   8.462  21.334  0.00  0.00    +0.000 NA
ATOM      6  C   UNL     1       0.885   9.305  22.213  0.00  0.00    +0.000 A 
ATOM      7  C   UNL     1       0.219  10.455  21.858  0.00  0.00    +0.000 A 
ATOM      8  N   UNL     1      -0.429  11.253  22.815  0.00  0.00    +0.000 NA
ATOM      9  C   UNL     1      -1.174  12.236  22.387  0.00  0.00    +0.000 A 
ATOM     10  C   UNL     1      -1.364  12.497  20.877  0.00  0.00    +0.000 A 
ATOM     11  O   UNL     1      -2.246  13.259  20.497  0.00  0.00    +0.000 OA
ATOM     12  N   UNL     1      -0.523  11.809  20.023  0.00  0.00    +0.000 N 
ATOM     13  C   UNL     1       0.231  10.713  20.500  0.00  0.00    +0.000 A 
ATOM     14  N   UNL     1       0.851   9.923  19.601  0.00  0.00    +0.000 NA
ENDROOT
BRANCH   9  15
ATOM     15  C   UNL     1      -1.871  13.113  23.376  0.00  0.00    +0.000 A 
ATOM     16  C   UNL     1      -3.160  12.827  23.843  0.00  0.00    +0.000 A 
ATOM     17  C   UNL     1      -3.773  13.649  24.793  0.00  0.00    +0.000 A 
ATOM     18  C   UNL     1      -3.110  14.778  25.269  0.00  0.00    +0.000 A 
ATOM     19  C   UNL     1      -1.839  15.090  24.792  0.00  0.00    +0.000 A 
ATOM     20  C   UNL     1      -1.221  14.264  23.847  0.00  0.00    +0.000 A 
ENDBRANCH   9  15
BRANCH  12  21
ATOM     21  C   UNL     1      -0.630  12.014  18.584  0.00  0.00    +0.000 C 
BRANCH  21  22
ATOM     22  C   UNL     1      -1.688  11.149  17.951  0.00  0.00    +0.000 A 
ATOM     23  C   UNL     1      -1.580   9.985  17.211  0.00  0.00    +0.000 A 
ATOM     24  C   UNL     1      -2.839   9.537  16.710  0.00  0.00    +0.000 A 
ATOM     25  C   UNL     1      -3.870  10.364  17.090  0.00  0.00    +0.000 A 
ATOM     26  S   UNL     1      -3.329  11.660  18.059  0.00  0.00    +0.000 S 
ENDBRANCH  21  22
ENDBRANCH  12  21
TORSDOF 3
ENDMDL
MODEL 4
REMARK VINA RESULT:      -7.0      4.591      7.198
REMARK  Name = 
REMARK  5 active torsions:
REMARK  status: ('A' for Active; 'I' for Inactive)
REMARK    1  A    between atoms: C_1  and  N_2
REMARK    2  A    between atoms: N_2  and  C_3
REMARK    3  A    between atoms: C_9  and  C_10
REMARK    4  A    between atoms: N_18  and  C_19
REMARK    5  A    between atoms: C_19  and  C_20
REMARK                            x       y       z     vdW  Elec       q    Type
REMARK                         _______ _______ _______ _____ _____    ______ ____
ROOT
ATOM      1  C   UNL     1       2.381   6.515  19.520  0.00  0.00    +0.000 C 
ATOM      2  N   UNL     1       2.028   7.858  19.117  0.00  0.00    +0.000 N 
ATOM      3  C   UNL     1       2.687   8.482  17.988  0.00  0.00    +0.000 C 
ATOM      4  C   UNL     1       1.481   8.698  20.067  0.00  0.00    +0.000 A 
ATOM      5  N   UNL     1       1.265   8.241  21.311  0.00  0.00    +0.000 NA
ATOM      6  C   UNL     1       0.642   9.067  22.180  0.00  0.00    +0.000 A 
ATOM      7  C   UNL     1       0.181  10.323  21.860  0.00  0.00    +0.000 A 
ATOM      8  N   UNL     1      -0.522  11.106  22.790  0.00  0.00    +0.000 NA
ATOM      9  C   UNL     1      -1.066  12.215  22.368  0.00  0.00    +0.000 A 
ATOM     10  C   UNL     1      -0.968  12.640  20.886  0.00  0.00    +0.000 A 
ATOM     11  O   UNL     1      -1.680  13.545  20.465  0.00  0.00    +0.000 OA
ATOM     12  N   UNL     1      -0.080  11.931  20.101  0.00  0.00    +0.000 N 
ATOM     13  C   UNL     1       0.452  10.705  20.559  0.00  0.00    +0.000 A 
ATOM     14  N   UNL     1       1.119   9.929  19.683  0.00  0.00    +0.000 NA
ENDROOT
BRANCH   9  15
ATOM     15  C   UNL     1      -1.814  13.079  23.331  0.00  0.00    +0.000 A 
ATOM     16  C   UNL     1      -3.118  12.775  23.743  0.00  0.00    +0.000 A 
ATOM     17  C   UNL     1      -3.780  13.585  24.670  0.00  0.00    +0.000 A 
ATOM     18  C   UNL     1      -3.151  14.720  25.178  0.00  0.00    +0.000 A 
ATOM     19  C   UNL     1      -1.865  15.049  24.755  0.00  0.00    +0.000 A 
ATOM     20  C   UNL     1      -1.199  14.236  23.833  0.00  0.00    +0.000 A 
ENDBRANCH   9  15
BRANCH  12  21
ATOM     21  C   UNL     1       0.081  12.284  18.696  0.00  0.00    +0.000 C 
BRANCH  21  22
ATOM     22  C   UNL     1       1.237  13.221  18.460  0.00  0.00    +0.000 A 
ATOM     23  C   UNL     1       2.550  12.966  18.108  0.00  0.00    +0.000 A 
ATOM     24  C   UNL     1       3.350  14.148  18.084  0.00  0.00    +0.000 A 
ATOM     25  C   UNL     1       2.623  15.270  18.408  0.00  0.00    +0.000 A 
ATOM     26  S   UNL     1       0.985  14.905  18.719  0.00  0.00    +0.000 S 
ENDBRANCH  21  22
ENDBRANCH  12  21
TORSDOF 3
ENDMDL
MODEL 5
REMARK VINA RESULT:      -6.8      4.389      6.587
REMARK  Name = 
REMARK  5 active torsions:
REMARK  status: ('A' for Active; 'I' for Inactive)
REMARK    1  A    between atoms: C_1  and  N_2
REMARK    2  A    between atoms: N_2  and  C_3
REMARK    3  A    between atoms: C_9  and  C_10
REMARK    4  A    between atoms: N_18  and  C_19
REMARK    5  A    between atoms: C_19  and  C_20
REMARK                            x       y       z     vdW  Elec       q    Type
REMARK                         _______ _______ _______ _____ _____    ______ ____
ROOT
ATOM      1  C   UNL     1       2.615   6.491  19.612  0.00  0.00    +0.000 C 
ATOM      2  N   UNL     1       2.019   7.712  19.118  0.00  0.00    +0.000 N 
ATOM      3  C   UNL     1       2.408   8.250  17.831  0.00  0.00    +0.000 C 
ATOM      4  C   UNL     1       1.503   8.602  20.040  0.00  0.00    +0.000 A 
ATOM      5  N   UNL     1       1.540   8.299  21.347  0.00  0.00    +0.000 NA
ATOM      6  C   UNL     1       0.942   9.154  22.205  0.00  0.00    +0.000 A 
ATOM      7  C   UNL     1       0.264  10.288  21.820  0.00  0.00    +0.000 A 
ATOM      8  N   UNL     1      -0.398  11.100  22.756  0.00  0.00    +0.000 NA
ATOM      9  C   UNL     1      -1.151  12.065  22.302  0.00  0.00    +0.000 A 
ATOM     10  C   UNL     1      -1.334  12.290  20.785  0.00  0.00    +0.000 A 
ATOM     11  O   UNL     1      -2.222  13.034  20.383  0.00  0.00    +0.000 OA
ATOM     12  N   UNL     1      -0.480  11.594  19.952  0.00  0.00    +0.000 N 
ATOM     13  C   UNL     1       0.283  10.517  20.457  0.00  0.00    +0.000 A 
ATOM     14  N   UNL     1       0.917   9.715  19.580  0.00  0.00    +0.000 NA
ENDROOT
BRANCH   9  15
ATOM     15  C   UNL     1      -1.864  12.955  23.267  0.00  0.00    +0.000 A 
ATOM     16  C   UNL     1      -1.309  14.162  23.713  0.00  0.00    +0.000 A 
ATOM     17  C   UNL     1      -2.015  14.988  24.592  0.00  0.00    +0.000 A 
ATOM     18  C   UNL     1      -3.274  14.606  25.050  0.00  0.00    +0.000 A 
ATOM     19  C   UNL     1      -3.825  13.395  24.636  0.00  0.00    +0.000 A 
ATOM     20  C   UNL     1      -3.124  12.570  23.751  0.00  0.00    +0.000 A 
ENDBRANCH   9  15
BRANCH  12  21
ATOM     21  C   UNL     1      -0.580  11.767  18.508  0.00  0.00    +0.000 C 
BRANCH  21  22
ATOM     22  C   UNL     1      -1.749  11.026  17.914  0.00  0.00    +0.000 A 
ATOM     23  C   UNL     1      -2.446   9.922  18.371  0.00  0.00    +0.000 A 
ATOM     24  C   UNL     1      -3.435   9.476  17.442  0.00  0.00    +0.000 A 
ATOM     25  C   UNL     1      -3.469  10.257  16.311  0.00  0.00    +0.000 A 
ATOM     26  S   UNL     1      -2.335  11.530  16.375  0.00  0.00    +0.000 S 
ENDBRANCH  21  22
ENDBRANCH  12  21
TORSDOF 3
ENDMDL
MODEL 6
REMARK VINA RESULT:      -6.8      1.925      6.104
REMARK  Name = 
REMARK  5 active torsions:
REMARK  status: ('A' for Active; 'I' for Inactive)
REMARK    1  A    between atoms: C_1  and  N_2
REMARK    2  A    between atoms: N_2  and  C_3
REMARK    3  A    between atoms: C_9  and  C_10
REMARK    4  A    between atoms: N_18  and  C_19
REMARK    5  A    between atoms: C_19  and  C_20
REMARK                            x       y       z     vdW  Elec       q    Type
REMARK                         _______ _______ _______ _____ _____    ______ ____
ROOT
ATOM      1  C   UNL     1      -1.032  11.142  19.702  0.00  0.00    +0.000 C 
ATOM      2  N   UNL     1      -0.347   9.991  20.249  0.00  0.00    +0.000 N 
ATOM      3  C   UNL     1      -0.407   9.708  21.668  0.00  0.00    +0.000 C 
ATOM      4  C   UNL     1       0.736   9.490  19.553  0.00  0.00    +0.000 A 
ATOM      5  N   UNL     1       1.097  10.055  18.391  0.00  0.00    +0.000 NA
ATOM      6  C   UNL     1       2.102   9.475  17.699  0.00  0.00    +0.000 A 
ATOM      7  C   UNL     1       2.746   8.323  18.089  0.00  0.00    +0.000 A 
ATOM      8  N   UNL     1       3.737   7.730  17.290  0.00  0.00    +0.000 NA
ATOM      9  C   UNL     1       4.187   6.557  17.645  0.00  0.00    +0.000 A 
ATOM     10  C   UNL     1       3.628   5.829  18.888  0.00  0.00    +0.000 A 
ATOM     11  O   UNL     1       3.884   4.643  19.064  0.00  0.00    +0.000 OA
ATOM     12  N   UNL     1       2.826   6.575  19.729  0.00  0.00    +0.000 N 
ATOM     13  C   UNL     1       2.306   7.817  19.298  0.00  0.00    +0.000 A 
ATOM     14  N   UNL     1       1.345   8.401  20.040  0.00  0.00    +0.000 NA
ENDROOT
BRANCH   9  15
ATOM     15  C   UNL     1       5.248   5.898  16.824  0.00  0.00    +0.000 A 
ATOM     16  C   UNL     1       6.450   5.450  17.387  0.00  0.00    +0.000 A 
ATOM     17  C   UNL     1       7.410   4.809  16.598  0.00  0.00    +0.000 A 
ATOM     18  C   UNL     1       7.185   4.628  15.236  0.00  0.00    +0.000 A 
ATOM     19  C   UNL     1       6.006   5.095  14.658  0.00  0.00    +0.000 A 
ATOM     20  C   UNL     1       5.041   5.730  15.447  0.00  0.00    +0.000 A 
ENDBRANCH   9  15
BRANCH  12  21
ATOM     21  C   UNL     1       2.275   5.963  20.931  0.00  0.00    +0.000 C 
BRANCH  21  22
ATOM     22  C   UNL     1       1.761   4.568  20.690  0.00  0.00    +0.000 A 
ATOM     23  C   UNL     1       0.801   4.098  19.812  0.00  0.00    +0.000 A 
ATOM     24  C   UNL     1       0.545   2.703  19.977  0.00  0.00    +0.000 A 
ATOM     25  C   UNL     1       1.323   2.149  20.967  0.00  0.00    +0.000 A 
ATOM     26  S   UNL     1       2.368   3.295  21.679  0.00  0.00    +0.000 S 
ENDBRANCH  21  22
ENDBRANCH  12  21
TORSDOF 3
ENDMDL
MODEL 7
REMARK VINA RESULT:      -6.7      3.723      8.104
REMARK  Name = 
REMARK  5 active torsions:
REMARK  status: ('A' for Active; 'I' for Inactive)
REMARK    1  A    between atoms: C_1  and  N_2
REMARK    2  A    between atoms: N_2  and  C_3
REMARK    3  A    between atoms: C_9  and  C_10
REMARK    4  A    between atoms: N_18  and  C_19
REMARK    5  A    between atoms: C_19  and  C_20
REMARK                            x       y       z     vdW  Elec       q    Type
REMARK                         _______ _______ _______ _____ _____    ______ ____
ROOT
ATOM      1  C   UNL     1      -1.939  13.649  24.048  0.00  0.00    +0.000 C 
ATOM      2  N   UNL     1      -1.768  13.279  22.660  0.00  0.00    +0.000 N 
ATOM      3  C   UNL     1      -2.611  13.863  21.637  0.00  0.00    +0.000 C 
ATOM      4  C   UNL     1      -1.200  12.051  22.381  0.00  0.00    +0.000 A 
ATOM      5  N   UNL     1      -0.799  11.261  23.390  0.00  0.00    +0.000 NA
ATOM      6  C   UNL     1      -0.165  10.112  23.069  0.00  0.00    +0.000 A 
ATOM      7  C   UNL     1       0.131   9.724  21.782  0.00  0.00    +0.000 A 
ATOM      8  N   UNL     1       0.856   8.550  21.518  0.00  0.00    +0.000 NA
ATOM      9  C   UNL     1       1.236   8.331  20.288  0.00  0.00    +0.000 A 
ATOM     10  C   UNL     1       0.927   9.344  19.164  0.00  0.00    +0.000 A 
ATOM     11  O   UNL     1       1.493   9.242  18.081  0.00  0.00    +0.000 OA
ATOM     12  N   UNL     1       0.028  10.347  19.469  0.00  0.00    +0.000 N 
ATOM     13  C   UNL     1      -0.324  10.600  20.814  0.00  0.00    +0.000 A 
ATOM     14  N   UNL     1      -1.008  11.726  21.096  0.00  0.00    +0.000 NA
ENDROOT
BRANCH   9  15
ATOM     15  C   UNL     1       2.001   7.089  19.967  0.00  0.00    +0.000 A 
ATOM     16  C   UNL     1       3.036   7.078  19.023  0.00  0.00    +0.000 A 
ATOM     17  C   UNL     1       3.755   5.906  18.768  0.00  0.00    +0.000 A 
ATOM     18  C   UNL     1       3.432   4.729  19.439  0.00  0.00    +0.000 A 
ATOM     19  C   UNL     1       2.385   4.720  20.360  0.00  0.00    +0.000 A 
ATOM     20  C   UNL     1       1.670   5.893  20.622  0.00  0.00    +0.000 A 
ENDBRANCH   9  15
BRANCH  12  21
ATOM     21  C   UNL     1      -0.327  11.331  18.454  0.00  0.00    +0.000 C 
BRANCH  21  22
ATOM     22  C   UNL     1      -1.744  11.178  17.967  0.00  0.00    +0.000 A 
ATOM     23  C   UNL     1      -2.903  11.838  18.336  0.00  0.00    +0.000 A 
ATOM     24  C   UNL     1      -4.062  11.312  17.689  0.00  0.00    +0.000 A 
ATOM     25  C   UNL     1      -3.753  10.275  16.840  0.00  0.00    +0.000 A 
ATOM     26  S   UNL     1      -2.078   9.950  16.806  0.00  0.00    +0.000 S 
ENDBRANCH  21  22
ENDBRANCH  12  21
TORSDOF 3
ENDMDL
MODEL 8
REMARK VINA RESULT:      -6.6      3.896      8.148
REMARK  Name = 
REMARK  5 active torsions:
REMARK  status: ('A' for Active; 'I' for Inactive)
REMARK    1  A    between atoms: C_1  and  N_2
REMARK    2  A    between atoms: N_2  and  C_3
REMARK    3  A    between atoms: C_9  and  C_10
REMARK    4  A    between atoms: N_18  and  C_19
REMARK    5  A    between atoms: C_19  and  C_20
REMARK                            x       y       z     vdW  Elec       q    Type
REMARK                         _______ _______ _______ _____ _____    ______ ____
ROOT
ATOM      1  C   UNL     1      -2.336  13.504  24.191  0.00  0.00    +0.000 C 
ATOM      2  N   UNL     1      -2.208  13.250  22.773  0.00  0.00    +0.000 N 
ATOM      3  C   UNL     1      -3.167  13.806  21.840  0.00  0.00    +0.000 C 
ATOM      4  C   UNL     1      -1.530  12.115  22.376  0.00  0.00    +0.000 A 
ATOM      5  N   UNL     1      -0.988  11.307  23.301  0.00  0.00    +0.000 NA
ATOM      6  C   UNL     1      -0.254  10.260  22.865  0.00  0.00    +0.000 A 
ATOM      7  C   UNL     1       0.005   9.996  21.539  0.00  0.00    +0.000 A 
ATOM      8  N   UNL     1       0.835   8.931  21.152  0.00  0.00    +0.000 NA
ATOM      9  C   UNL     1       1.165   8.840  19.892  0.00  0.00    +0.000 A 
ATOM     10  C   UNL     1       0.684   9.886  18.863  0.00  0.00    +0.000 A 
ATOM     11  O   UNL     1       1.195   9.922  17.749  0.00  0.00    +0.000 OA
ATOM     12  N   UNL     1      -0.297  10.761  19.287  0.00  0.00    +0.000 N 
ATOM     13  C   UNL     1      -0.596  10.881  20.663  0.00  0.00    +0.000 A 
ATOM     14  N   UNL     1      -1.379  11.902  21.062  0.00  0.00    +0.000 NA
ENDROOT
BRANCH   9  15
ATOM     15  C   UNL     1       2.039   7.714  19.442  0.00  0.00    +0.000 A 
ATOM     16  C   UNL     1       2.139   6.518  20.164  0.00  0.00    +0.000 A 
ATOM     17  C   UNL     1       2.941   5.471  19.699  0.00  0.00    +0.000 A 
ATOM     18  C   UNL     1       3.666   5.619  18.519  0.00  0.00    +0.000 A 
ATOM     19  C   UNL     1       3.597   6.815  17.807  0.00  0.00    +0.000 A 
ATOM     20  C   UNL     1       2.790   7.860  18.266  0.00  0.00    +0.000 A 
ENDBRANCH   9  15
BRANCH  12  21
ATOM     21  C   UNL     1      -0.814  11.766  18.367  0.00  0.00    +0.000 C 
BRANCH  21  22
ATOM     22  C   UNL     1      -2.185  11.425  17.844  0.00  0.00    +0.000 A 
ATOM     23  C   UNL     1      -3.440  11.797  18.291  0.00  0.00    +0.000 A 
ATOM     24  C   UNL     1      -4.491  11.166  17.559  0.00  0.00    +0.000 A 
ATOM     25  C   UNL     1      -4.007  10.341  16.571  0.00  0.00    +0.000 A 
ATOM     26  S   UNL     1      -2.302  10.341  16.512  0.00  0.00    +0.000 S 
ENDBRANCH  21  22
ENDBRANCH  12  21
TORSDOF 3
ENDMDL
MODEL 9
REMARK VINA RESULT:      -6.4      3.215      7.191
REMARK  Name = 
REMARK  5 active torsions:
REMARK  status: ('A' for Active; 'I' for Inactive)
REMARK    1  A    between atoms: C_1  and  N_2
REMARK    2  A    between atoms: N_2  and  C_3
REMARK    3  A    between atoms: C_9  and  C_10
REMARK    4  A    between atoms: N_18  and  C_19
REMARK    5  A    between atoms: C_19  and  C_20
REMARK                            x       y       z     vdW  Elec       q    Type
REMARK                         _______ _______ _______ _____ _____    ______ ____
ROOT
ATOM      1  C   UNL     1       2.040   1.846  21.607  0.00  0.00    +0.000 C 
ATOM      2  N   UNL     1       2.442   3.127  21.068  0.00  0.00    +0.000 N 
ATOM      3  C   UNL     1       1.872   4.353  21.589  0.00  0.00    +0.000 C 
ATOM      4  C   UNL     1       2.936   3.162  19.779  0.00  0.00    +0.000 A 
ATOM      5  N   UNL     1       3.060   2.020  19.084  0.00  0.00    +0.000 NA
ATOM      6  C   UNL     1       3.634   2.091  17.864  0.00  0.00    +0.000 A 
ATOM      7  C   UNL     1       4.137   3.246  17.310  0.00  0.00    +0.000 A 
ATOM      8  N   UNL     1       4.787   3.240  16.065  0.00  0.00    +0.000 NA
ATOM      9  C   UNL     1       5.377   4.339  15.679  0.00  0.00    +0.000 A 
ATOM     10  C   UNL     1       5.388   5.597  16.574  0.00  0.00    +0.000 A 
ATOM     11  O   UNL     1       6.142   6.527  16.308  0.00  0.00    +0.000 OA
ATOM     12  N   UNL     1       4.544   5.581  17.668  0.00  0.00    +0.000 N 
ATOM     13  C   UNL     1       3.962   4.367  18.099  0.00  0.00    +0.000 A 
ATOM     14  N   UNL     1       3.344   4.343  19.295  0.00  0.00    +0.000 NA
ENDROOT
BRANCH   9  15
ATOM     15  C   UNL     1       6.072   4.374  14.356  0.00  0.00    +0.000 A 
ATOM     16  C   UNL     1       7.201   5.172  14.132  0.00  0.00    +0.000 A 
ATOM     17  C   UNL     1       7.847   5.158  12.892  0.00  0.00    +0.000 A 
ATOM     18  C   UNL     1       7.358   4.362  11.859  0.00  0.00    +0.000 A 
ATOM     19  C   UNL     1       6.219   3.586  12.061  0.00  0.00    +0.000 A 
ATOM     20  C   UNL     1       5.575   3.592  13.302  0.00  0.00    +0.000 A 
ENDBRANCH   9  15
BRANCH  12  21
ATOM     21  C   UNL     1       4.486   6.739  18.551  0.00  0.00    +0.000 C 
BRANCH  21  22
ATOM     22  C   UNL     1       3.220   7.537  18.381  0.00  0.00    +0.000 A 
ATOM     23  C   UNL     1       2.762   8.289  17.313  0.00  0.00    +0.000 A 
ATOM     24  C   UNL     1       1.543   8.971  17.607  0.00  0.00    +0.000 A 
ATOM     25  C   UNL     1       1.102   8.712  18.884  0.00  0.00    +0.000 A 
ATOM     26  S   UNL     1       2.137   7.640  19.716  0.00  0.00    +0.000 S 
ENDBRANCH  21  22
ENDBRANCH  12  21
TORSDOF 3
ENDMDL
