MODEL 1
REMARK VINA RESULT:      -6.2      0.000      0.000
REMARK  Name = 
REMARK  9 active torsions:
REMARK  status: ('A' for Active; 'I' for Inactive)
REMARK    1  A    between atoms: C_1  and  C_2
REMARK    2  A    between atoms: C_2  and  C_3
REMARK    3  A    between atoms: C_3  and  C_4
REMARK    4  A    between atoms: C_4  and  C_5
REMARK    5  A    between atoms: C_5  and  C_6
REMARK    6  A    between atoms: C_9  and  O_10
REMARK    7  A    between atoms: C_11  and  O_12
REMARK    8  A    between atoms: C_13  and  C_14
REMARK    9  A    between atoms: C_14  and  O_15
REMARK                            x       y       z     vdW  Elec       q    Type
REMARK                         _______ _______ _______ _____ _____    ______ ____
ROOT
ATOM      1  C   UNL     1       4.282   5.295  18.003  0.00  0.00    +0.000 C 
ATOM      2  C   UNL     1       4.406   6.565  17.141  0.00  0.00    +0.000 C 
ATOM      3  C   UNL     1       5.175   6.358  15.838  0.00  0.00    +0.000 C 
ATOM      4  C   UNL     1       6.528   5.665  16.009  0.00  0.00    +0.000 C 
ATOM      5  C   UNL     1       6.472   4.425  16.922  0.00  0.00    +0.000 C 
ATOM      6  C   UNL     1       5.654   4.601  18.228  0.00  0.00    +0.000 C 
ENDROOT
BRANCH   4   7
ATOM      7  O   UNL     1       7.495   6.616  16.453  0.00  0.00    +0.000 OA
ATOM      8  H   UNL     1       7.014   7.365  16.866  0.00  0.00    +0.000 HD
ENDBRANCH   4   7
BRANCH   5   9
ATOM      9  O   UNL     1       5.971   3.325  16.144  0.00  0.00    +0.000 OA
ATOM     10  H   UNL     1       6.699   2.746  15.876  0.00  0.00    +0.000 HD
ENDBRANCH   5   9
BRANCH   1  11
ATOM     11  C   UNL     1       3.179   4.368  17.422  0.00  0.00    +0.000 C 
BRANCH  11  12
ATOM     12  C   UNL     1       1.806   4.430  18.112  0.00  0.00    +0.000 C 
BRANCH  12  13
ATOM     13  C   UNL     1       1.841   4.633  19.630  0.00  0.00    +0.000 C 
BRANCH  13  15
ATOM     14  C   UNL     1       1.859   3.014  21.571  0.00  0.00    +0.000 C 
ATOM     15  C   UNL     1       1.074   3.545  20.384  0.00  0.00    +0.000 C 
ENDBRANCH  13  15
ENDBRANCH  12  13
ENDBRANCH  11  12
ENDBRANCH   1  11
BRANCH   6  16
ATOM     16  C   UNL     1       6.470   5.311  19.328  0.00  0.00    +0.000 C 
BRANCH  16  17
ATOM     17  O   UNL     1       7.870   5.167  19.153  0.00  0.00    +0.000 OA
ATOM     18  H   UNL     1       8.048   5.170  18.193  0.00  0.00    +0.000 HD
ENDBRANCH  16  17
ENDBRANCH   6  16
TORSDOF 8
ENDMDL
MODEL 2
REMARK VINA RESULT:      -6.0      3.059      5.414
REMARK  Name = 
REMARK  9 active torsions:
REMARK  status: ('A' for Active; 'I' for Inactive)
REMARK    1  A    between atoms: C_1  and  C_2
REMARK    2  A    between atoms: C_2  and  C_3
REMARK    3  A    between atoms: C_3  and  C_4
REMARK    4  A    between atoms: C_4  and  C_5
REMARK    5  A    between atoms: C_5  and  C_6
REMARK    6  A    between atoms: C_9  and  O_10
REMARK    7  A    between atoms: C_11  and  O_12
REMARK    8  A    between atoms: C_13  and  C_14
REMARK    9  A    between atoms: C_14  and  O_15
REMARK                            x       y       z     vdW  Elec       q    Type
REMARK                         _______ _______ _______ _____ _____    ______ ____
ROOT
ATOM      1  C   UNL     1       3.414   4.928  19.163  0.00  0.00    +0.000 C 
ATOM      2  C   UNL     1       4.292   3.712  18.811  0.00  0.00    +0.000 C 
ATOM      3  C   UNL     1       3.712   2.825  17.712  0.00  0.00    +0.000 C 
ATOM      4  C   UNL     1       2.255   2.416  17.938  0.00  0.00    +0.000 C 
ATOM      5  C   UNL     1       1.346   3.587  18.362  0.00  0.00    +0.000 C 
ATOM      6  C   UNL     1       1.939   4.527  19.443  0.00  0.00    +0.000 C 
ENDROOT
BRANCH   4   7
ATOM      7  O   UNL     1       2.205   1.333  18.866  0.00  0.00    +0.000 OA
ATOM      8  H   UNL     1       1.282   1.254  19.187  0.00  0.00    +0.000 HD
ENDBRANCH   4   7
BRANCH   5   9
ATOM      9  O   UNL     1       0.990   4.320  17.178  0.00  0.00    +0.000 OA
ATOM     10  H   UNL     1       1.784   4.549  16.674  0.00  0.00    +0.000 HD
ENDBRANCH   5   9
BRANCH   1  11
ATOM     11  C   UNL     1       3.588   6.035  18.087  0.00  0.00    +0.000 C 
BRANCH  11  12
ATOM     12  C   UNL     1       5.013   6.240  17.547  0.00  0.00    +0.000 C 
BRANCH  12  13
ATOM     13  C   UNL     1       5.161   6.136  16.025  0.00  0.00    +0.000 C 
BRANCH  13  15
ATOM     14  C   UNL     1       6.033   3.940  15.127  0.00  0.00    +0.000 C 
ATOM     15  C   UNL     1       6.396   5.334  15.611  0.00  0.00    +0.000 C 
ENDBRANCH  13  15
ENDBRANCH  12  13
ENDBRANCH  11  12
ENDBRANCH   1  11
BRANCH   6  16
ATOM     16  C   UNL     1       1.772   3.950  20.863  0.00  0.00    +0.000 C 
BRANCH  16  17
ATOM     17  O   UNL     1       0.731   2.992  20.948  0.00  0.00    +0.000 OA
ATOM     18  H   UNL     1       1.077   2.223  21.440  0.00  0.00    +0.000 HD
ENDBRANCH  16  17
ENDBRANCH   6  16
TORSDOF 8
ENDMDL
MODEL 3
REMARK VINA RESULT:      -5.9      2.490      4.879
REMARK  Name = 
REMARK  9 active torsions:
REMARK  status: ('A' for Active; 'I' for Inactive)
REMARK    1  A    between atoms: C_1  and  C_2
REMARK    2  A    between atoms: C_2  and  C_3
REMARK    3  A    between atoms: C_3  and  C_4
REMARK    4  A    between atoms: C_4  and  C_5
REMARK    5  A    between atoms: C_5  and  C_6
REMARK    6  A    between atoms: C_9  and  O_10
REMARK    7  A    between atoms: C_11  and  O_12
REMARK    8  A    between atoms: C_13  and  C_14
REMARK    9  A    between atoms: C_14  and  O_15
REMARK                            x       y       z     vdW  Elec       q    Type
REMARK                         _______ _______ _______ _____ _____    ______ ____
ROOT
ATOM      1  C   UNL     1       5.155   5.540  16.606  0.00  0.00    +0.000 C 
ATOM      2  C   UNL     1       5.549   6.864  17.288  0.00  0.00    +0.000 C 
ATOM      3  C   UNL     1       7.034   6.966  17.633  0.00  0.00    +0.000 C 
ATOM      4  C   UNL     1       7.587   5.759  18.393  0.00  0.00    +0.000 C 
ATOM      5  C   UNL     1       7.162   4.406  17.790  0.00  0.00    +0.000 C 
ATOM      6  C   UNL     1       5.669   4.300  17.389  0.00  0.00    +0.000 C 
ENDROOT
BRANCH   4   7
ATOM      7  O   UNL     1       7.238   5.867  19.772  0.00  0.00    +0.000 OA
ATOM      8  H   UNL     1       8.020   5.602  20.303  0.00  0.00    +0.000 HD
ENDBRANCH   4   7
BRANCH   5   9
ATOM      9  O   UNL     1       8.019   4.133  16.669  0.00  0.00    +0.000 OA
ATOM     10  H   UNL     1       8.684   4.831  16.579  0.00  0.00    +0.000 HD
ENDBRANCH   5   9
BRANCH   1  11
ATOM     11  C   UNL     1       5.568   5.574  15.109  0.00  0.00    +0.000 C 
BRANCH  11  12
ATOM     12  C   UNL     1       5.417   4.257  14.331  0.00  0.00    +0.000 C 
BRANCH  12  13
ATOM     13  C   UNL     1       6.545   3.944  13.341  0.00  0.00    +0.000 C 
BRANCH  13  15
ATOM     14  C   UNL     1       4.589   3.400  11.835  0.00  0.00    +0.000 C 
ATOM     15  C   UNL     1       6.057   3.144  12.132  0.00  0.00    +0.000 C 
ENDBRANCH  13  15
ENDBRANCH  12  13
ENDBRANCH  11  12
ENDBRANCH   1  11
BRANCH   6  16
ATOM     16  C   UNL     1       4.767   3.985  18.600  0.00  0.00    +0.000 C 
BRANCH  16  17
ATOM     17  O   UNL     1       4.594   2.593  18.809  0.00  0.00    +0.000 OA
ATOM     18  H   UNL     1       4.726   2.419  19.760  0.00  0.00    +0.000 HD
ENDBRANCH  16  17
ENDBRANCH   6  16
TORSDOF 8
ENDMDL
MODEL 4
REMARK VINA RESULT:      -5.9      1.409      2.043
REMARK  Name = 
REMARK  9 active torsions:
REMARK  status: ('A' for Active; 'I' for Inactive)
REMARK    1  A    between atoms: C_1  and  C_2
REMARK    2  A    between atoms: C_2  and  C_3
REMARK    3  A    between atoms: C_3  and  C_4
REMARK    4  A    between atoms: C_4  and  C_5
REMARK    5  A    between atoms: C_5  and  C_6
REMARK    6  A    between atoms: C_9  and  O_10
REMARK    7  A    between atoms: C_11  and  O_12
REMARK    8  A    between atoms: C_13  and  C_14
REMARK    9  A    between atoms: C_14  and  O_15
REMARK                            x       y       z     vdW  Elec       q    Type
REMARK                         _______ _______ _______ _____ _____    ______ ____
ROOT
ATOM      1  C   UNL     1       4.608   5.131  17.068  0.00  0.00    +0.000 C 
ATOM      2  C   UNL     1       4.777   4.672  15.607  0.00  0.00    +0.000 C 
ATOM      3  C   UNL     1       6.050   3.869  15.353  0.00  0.00    +0.000 C 
ATOM      4  C   UNL     1       7.326   4.528  15.882  0.00  0.00    +0.000 C 
ATOM      5  C   UNL     1       7.187   5.068  17.318  0.00  0.00    +0.000 C 
ATOM      6  C   UNL     1       5.877   5.846  17.610  0.00  0.00    +0.000 C 
ENDROOT
BRANCH   4   7
ATOM      7  O   UNL     1       7.754   5.535  14.967  0.00  0.00    +0.000 OA
ATOM      8  H   UNL     1       6.976   5.809  14.435  0.00  0.00    +0.000 HD
ENDBRANCH   4   7
BRANCH   5   9
ATOM      9  O   UNL     1       7.344   3.963  18.224  0.00  0.00    +0.000 OA
ATOM     10  H   UNL     1       6.705   4.030  18.947  0.00  0.00    +0.000 HD
ENDBRANCH   5   9
BRANCH   1  11
ATOM     11  C   UNL     1       4.113   3.946  17.941  0.00  0.00    +0.000 C 
BRANCH  11  12
ATOM     12  C   UNL     1       2.829   3.244  17.471  0.00  0.00    +0.000 C 
BRANCH  12  13
ATOM     13  C   UNL     1       1.521   3.837  18.008  0.00  0.00    +0.000 C 
BRANCH  13  15
ATOM     14  C   UNL     1       1.106   3.750  20.500  0.00  0.00    +0.000 C 
ATOM     15  C   UNL     1       1.707   4.543  19.352  0.00  0.00    +0.000 C 
ENDBRANCH  13  15
ENDBRANCH  12  13
ENDBRANCH  11  12
ENDBRANCH   1  11
BRANCH   6  16
ATOM     16  C   UNL     1       5.953   7.307  17.122  0.00  0.00    +0.000 C 
BRANCH  16  17
ATOM     17  O   UNL     1       7.286   7.768  16.975  0.00  0.00    +0.000 OA
ATOM     18  H   UNL     1       7.301   8.391  16.223  0.00  0.00    +0.000 HD
ENDBRANCH  16  17
ENDBRANCH   6  16
TORSDOF 8
ENDMDL
MODEL 5
REMARK VINA RESULT:      -5.9      1.413      2.616
REMARK  Name = 
REMARK  9 active torsions:
REMARK  status: ('A' for Active; 'I' for Inactive)
REMARK    1  A    between atoms: C_1  and  C_2
REMARK    2  A    between atoms: C_2  and  C_3
REMARK    3  A    between atoms: C_3  and  C_4
REMARK    4  A    between atoms: C_4  and  C_5
REMARK    5  A    between atoms: C_5  and  C_6
REMARK    6  A    between atoms: C_9  and  O_10
REMARK    7  A    between atoms: C_11  and  O_12
REMARK    8  A    between atoms: C_13  and  C_14
REMARK    9  A    between atoms: C_14  and  O_15
REMARK                            x       y       z     vdW  Elec       q    Type
REMARK                         _______ _______ _______ _____ _____    ______ ____
ROOT
ATOM      1  C   UNL     1       3.942   3.763  17.226  0.00  0.00    +0.000 C 
ATOM      2  C   UNL     1       4.530   3.303  18.574  0.00  0.00    +0.000 C 
ATOM      3  C   UNL     1       5.054   4.445  19.443  0.00  0.00    +0.000 C 
ATOM      4  C   UNL     1       6.001   5.403  18.719  0.00  0.00    +0.000 C 
ATOM      5  C   UNL     1       5.491   5.839  17.331  0.00  0.00    +0.000 C 
ATOM      6  C   UNL     1       4.910   4.701  16.452  0.00  0.00    +0.000 C 
ENDROOT
BRANCH   4   7
ATOM      7  O   UNL     1       7.304   4.825  18.656  0.00  0.00    +0.000 OA
ATOM      8  H   UNL     1       7.304   4.160  17.934  0.00  0.00    +0.000 HD
ENDBRANCH   4   7
BRANCH   5   9
ATOM      9  O   UNL     1       4.527   6.887  17.524  0.00  0.00    +0.000 OA
ATOM     10  H   UNL     1       4.922   7.619  18.018  0.00  0.00    +0.000 HD
ENDBRANCH   5   9
BRANCH   1  11
ATOM     11  C   UNL     1       2.517   4.342  17.441  0.00  0.00    +0.000 C 
BRANCH  11  12
ATOM     12  C   UNL     1       1.554   3.486  18.279  0.00  0.00    +0.000 C 
BRANCH  12  13
ATOM     13  C   UNL     1       1.180   4.066  19.648  0.00  0.00    +0.000 C 
BRANCH  13  15
ATOM     14  C   UNL     1       2.330   2.939  21.596  0.00  0.00    +0.000 C 
ATOM     15  C   UNL     1       1.082   2.991  20.731  0.00  0.00    +0.000 C 
ENDBRANCH  13  15
ENDBRANCH  12  13
ENDBRANCH  11  12
ENDBRANCH   1  11
BRANCH   6  16
ATOM     16  C   UNL     1       6.019   3.901  15.737  0.00  0.00    +0.000 C 
BRANCH  16  17
ATOM     17  O   UNL     1       7.243   4.612  15.654  0.00  0.00    +0.000 OA
ATOM     18  H   UNL     1       7.097   5.381  15.072  0.00  0.00    +0.000 HD
ENDBRANCH  16  17
ENDBRANCH   6  16
TORSDOF 8
ENDMDL
MODEL 6
REMARK VINA RESULT:      -5.9      1.249      1.690
REMARK  Name = 
REMARK  9 active torsions:
REMARK  status: ('A' for Active; 'I' for Inactive)
REMARK    1  A    between atoms: C_1  and  C_2
REMARK    2  A    between atoms: C_2  and  C_3
REMARK    3  A    between atoms: C_3  and  C_4
REMARK    4  A    between atoms: C_4  and  C_5
REMARK    5  A    between atoms: C_5  and  C_6
REMARK    6  A    between atoms: C_9  and  O_10
REMARK    7  A    between atoms: C_11  and  O_12
REMARK    8  A    between atoms: C_13  and  C_14
REMARK    9  A    between atoms: C_14  and  O_15
REMARK                            x       y       z     vdW  Elec       q    Type
REMARK                         _______ _______ _______ _____ _____    ______ ____
ROOT
ATOM      1  C   UNL     1       5.263   4.559  19.187  0.00  0.00    +0.000 C 
ATOM      2  C   UNL     1       4.289   5.670  18.749  0.00  0.00    +0.000 C 
ATOM      3  C   UNL     1       4.096   5.765  17.237  0.00  0.00    +0.000 C 
ATOM      4  C   UNL     1       5.400   5.819  16.439  0.00  0.00    +0.000 C 
ATOM      5  C   UNL     1       6.438   4.770  16.886  0.00  0.00    +0.000 C 
ATOM      6  C   UNL     1       6.613   4.625  18.420  0.00  0.00    +0.000 C 
ENDROOT
BRANCH   4   7
ATOM      7  O   UNL     1       5.925   7.145  16.475  0.00  0.00    +0.000 OA
ATOM      8  H   UNL     1       5.717   7.527  17.355  0.00  0.00    +0.000 HD
ENDBRANCH   4   7
BRANCH   5   9
ATOM      9  O   UNL     1       6.084   3.513  16.285  0.00  0.00    +0.000 OA
ATOM     10  H   UNL     1       6.451   3.454  15.392  0.00  0.00    +0.000 HD
ENDBRANCH   5   9
BRANCH   1  11
ATOM     11  C   UNL     1       4.552   3.180  19.125  0.00  0.00    +0.000 C 
BRANCH  11  12
ATOM     12  C   UNL     1       3.420   2.951  20.140  0.00  0.00    +0.000 C 
BRANCH  12  13
ATOM     13  C   UNL     1       2.149   2.309  19.573  0.00  0.00    +0.000 C 
BRANCH  13  15
ATOM     14  C   UNL     1       1.222   4.448  20.550  0.00  0.00    +0.000 C 
ATOM     15  C   UNL     1       0.924   3.214  19.715  0.00  0.00    +0.000 C 
ENDBRANCH  13  15
ENDBRANCH  12  13
ENDBRANCH  11  12
ENDBRANCH   1  11
BRANCH   6  16
ATOM     16  C   UNL     1       7.538   5.714  19.000  0.00  0.00    +0.000 C 
BRANCH  16  17
ATOM     17  O   UNL     1       7.864   5.490  20.362  0.00  0.00    +0.000 OA
ATOM     18  H   UNL     1       7.065   5.143  20.803  0.00  0.00    +0.000 HD
ENDBRANCH  16  17
ENDBRANCH   6  16
TORSDOF 8
ENDMDL
MODEL 7
REMARK VINA RESULT:      -5.9      1.297      2.799
REMARK  Name = 
REMARK  9 active torsions:
REMARK  status: ('A' for Active; 'I' for Inactive)
REMARK    1  A    between atoms: C_1  and  C_2
REMARK    2  A    between atoms: C_2  and  C_3
REMARK    3  A    between atoms: C_3  and  C_4
REMARK    4  A    between atoms: C_4  and  C_5
REMARK    5  A    between atoms: C_5  and  C_6
REMARK    6  A    between atoms: C_9  and  O_10
REMARK    7  A    between atoms: C_11  and  O_12
REMARK    8  A    between atoms: C_13  and  C_14
REMARK    9  A    between atoms: C_14  and  O_15
REMARK                            x       y       z     vdW  Elec       q    Type
REMARK                         _______ _______ _______ _____ _____    ______ ____
ROOT
ATOM      1  C   UNL     1       4.525   4.883  17.448  0.00  0.00    +0.000 C 
ATOM      2  C   UNL     1       5.245   4.388  18.717  0.00  0.00    +0.000 C 
ATOM      3  C   UNL     1       6.524   5.155  19.044  0.00  0.00    +0.000 C 
ATOM      4  C   UNL     1       7.494   5.290  17.869  0.00  0.00    +0.000 C 
ATOM      5  C   UNL     1       6.811   5.716  16.555  0.00  0.00    +0.000 C 
ATOM      6  C   UNL     1       5.484   4.982  16.230  0.00  0.00    +0.000 C 
ENDROOT
BRANCH   4   7
ATOM      7  O   UNL     1       8.233   4.079  17.722  0.00  0.00    +0.000 OA
ATOM      8  H   UNL     1       7.733   3.491  17.116  0.00  0.00    +0.000 HD
ENDBRANCH   4   7
BRANCH   5   9
ATOM      9  O   UNL     1       6.616   7.140  16.599  0.00  0.00    +0.000 OA
ATOM     10  H   UNL     1       6.434   7.424  17.506  0.00  0.00    +0.000 HD
ENDBRANCH   5   9
BRANCH   1  11
ATOM     11  C   UNL     1       3.741   6.187  17.760  0.00  0.00    +0.000 C 
BRANCH  11  12
ATOM     12  C   UNL     1       2.352   6.011  18.394  0.00  0.00    +0.000 C 
BRANCH  12  13
ATOM     13  C   UNL     1       2.277   6.282  19.901  0.00  0.00    +0.000 C 
BRANCH  13  15
ATOM     14  C   UNL     1       1.136   4.032  20.051  0.00  0.00    +0.000 C 
ATOM     15  C   UNL     1       2.097   5.002  20.717  0.00  0.00    +0.000 C 
ENDBRANCH  13  15
ENDBRANCH  12  13
ENDBRANCH  11  12
ENDBRANCH   1  11
BRANCH   6  16
ATOM     16  C   UNL     1       5.731   3.599  15.593  0.00  0.00    +0.000 C 
BRANCH  16  17
ATOM     17  O   UNL     1       6.470   3.675  14.385  0.00  0.00    +0.000 OA
ATOM     18  H   UNL     1       7.288   3.156  14.507  0.00  0.00    +0.000 HD
ENDBRANCH  16  17
ENDBRANCH   6  16
TORSDOF 8
ENDMDL
MODEL 8
REMARK VINA RESULT:      -5.8      2.799      5.282
REMARK  Name = 
REMARK  9 active torsions:
REMARK  status: ('A' for Active; 'I' for Inactive)
REMARK    1  A    between atoms: C_1  and  C_2
REMARK    2  A    between atoms: C_2  and  C_3
REMARK    3  A    between atoms: C_3  and  C_4
REMARK    4  A    between atoms: C_4  and  C_5
REMARK    5  A    between atoms: C_5  and  C_6
REMARK    6  A    between atoms: C_9  and  O_10
REMARK    7  A    between atoms: C_11  and  O_12
REMARK    8  A    between atoms: C_13  and  C_14
REMARK    9  A    between atoms: C_14  and  O_15
REMARK                            x       y       z     vdW  Elec       q    Type
REMARK                         _______ _______ _______ _____ _____    ______ ____
ROOT
ATOM      1  C   UNL     1       3.468   4.220  17.433  0.00  0.00    +0.000 C 
ATOM      2  C   UNL     1       4.071   4.784  18.735  0.00  0.00    +0.000 C 
ATOM      3  C   UNL     1       4.754   3.733  19.608  0.00  0.00    +0.000 C 
ATOM      4  C   UNL     1       3.904   2.491  19.878  0.00  0.00    +0.000 C 
ATOM      5  C   UNL     1       3.221   1.927  18.616  0.00  0.00    +0.000 C 
ATOM      6  C   UNL     1       2.563   2.984  17.692  0.00  0.00    +0.000 C 
ENDROOT
BRANCH   4   7
ATOM      7  O   UNL     1       2.967   2.773  20.916  0.00  0.00    +0.000 OA
ATOM      8  H   UNL     1       3.210   2.232  21.697  0.00  0.00    +0.000 HD
ENDBRANCH   4   7
BRANCH   5   9
ATOM      9  O   UNL     1       4.192   1.147  17.899  0.00  0.00    +0.000 OA
ATOM     10  H   UNL     1       3.908   0.223  17.850  0.00  0.00    +0.000 HD
ENDBRANCH   5   9
BRANCH   1  11
ATOM     11  C   UNL     1       4.594   3.988  16.388  0.00  0.00    +0.000 C 
BRANCH  11  12
ATOM     12  C   UNL     1       5.610   5.129  16.217  0.00  0.00    +0.000 C 
BRANCH  12  13
ATOM     13  C   UNL     1       7.083   4.708  16.238  0.00  0.00    +0.000 C 
BRANCH  13  15
ATOM     14  C   UNL     1       7.582   6.001  18.352  0.00  0.00    +0.000 C 
ATOM     15  C   UNL     1       7.655   4.653  17.655  0.00  0.00    +0.000 C 
ENDBRANCH  13  15
ENDBRANCH  12  13
ENDBRANCH  11  12
ENDBRANCH   1  11
BRANCH   6  16
ATOM     16  C   UNL     1       1.168   3.404  18.197  0.00  0.00    +0.000 C 
BRANCH  16  17
ATOM     17  O   UNL     1       0.551   2.409  18.997  0.00  0.00    +0.000 OA
ATOM     18  H   UNL     1       0.917   2.485  19.898  0.00  0.00    +0.000 HD
ENDBRANCH  16  17
ENDBRANCH   6  16
TORSDOF 8
ENDMDL
MODEL 9
REMARK VINA RESULT:      -5.8      2.864      5.480
REMARK  Name = 
REMARK  9 active torsions:
REMARK  status: ('A' for Active; 'I' for Inactive)
REMARK    1  A    between atoms: C_1  and  C_2
REMARK    2  A    between atoms: C_2  and  C_3
REMARK    3  A    between atoms: C_3  and  C_4
REMARK    4  A    between atoms: C_4  and  C_5
REMARK    5  A    between atoms: C_5  and  C_6
REMARK    6  A    between atoms: C_9  and  O_10
REMARK    7  A    between atoms: C_11  and  O_12
REMARK    8  A    between atoms: C_13  and  C_14
REMARK    9  A    between atoms: C_14  and  O_15
REMARK                            x       y       z     vdW  Elec       q    Type
REMARK                         _______ _______ _______ _____ _____    ______ ____
ROOT
ATOM      1  C   UNL     1       4.093   3.520  17.599  0.00  0.00    +0.000 C 
ATOM      2  C   UNL     1       2.625   3.430  17.140  0.00  0.00    +0.000 C 
ATOM      3  C   UNL     1       1.700   4.440  17.817  0.00  0.00    +0.000 C 
ATOM      4  C   UNL     1       1.808   4.466  19.343  0.00  0.00    +0.000 C 
ATOM      5  C   UNL     1       3.261   4.486  19.856  0.00  0.00    +0.000 C 
ATOM      6  C   UNL     1       4.227   3.501  19.147  0.00  0.00    +0.000 C 
ENDROOT
BRANCH   4   7
ATOM      7  O   UNL     1       1.059   3.383  19.891  0.00  0.00    +0.000 OA
ATOM      8  H   UNL     1       0.265   3.756  20.330  0.00  0.00    +0.000 HD
ENDBRANCH   4   7
BRANCH   5   9
ATOM      9  O   UNL     1       3.744   5.837  19.767  0.00  0.00    +0.000 OA
ATOM     10  H   UNL     1       3.986   6.165  20.645  0.00  0.00    +0.000 HD
ENDBRANCH   5   9
BRANCH   1  11
ATOM     11  C   UNL     1       4.790   4.722  16.906  0.00  0.00    +0.000 C 
BRANCH  11  12
ATOM     12  C   UNL     1       6.194   4.460  16.338  0.00  0.00    +0.000 C 
BRANCH  12  13
ATOM     13  C   UNL     1       6.392   4.846  14.868  0.00  0.00    +0.000 C 
BRANCH  13  15
ATOM     14  C   UNL     1       6.350   3.655  12.638  0.00  0.00    +0.000 C 
ATOM     15  C   UNL     1       5.587   3.959  13.917  0.00  0.00    +0.000 C 
ENDBRANCH  13  15
ENDBRANCH  12  13
ENDBRANCH  11  12
ENDBRANCH   1  11
BRANCH   6  16
ATOM     16  C   UNL     1       4.103   2.069  19.706  0.00  0.00    +0.000 C 
BRANCH  16  17
ATOM     17  O   UNL     1       5.304   1.604  20.298  0.00  0.00    +0.000 OA
ATOM     18  H   UNL     1       5.064   0.928  20.960  0.00  0.00    +0.000 HD
ENDBRANCH  16  17
ENDBRANCH   6  16
TORSDOF 8
ENDMDL
