MODEL 1
REMARK VINA RESULT:      -6.9      0.000      0.000
REMARK  Name = 
REMARK  6 active torsions:
REMARK  status: ('A' for Active; 'I' for Inactive)
REMARK    1  A    between atoms: C_1  and  C_2
REMARK    2  A    between atoms: C_7  and  C_8
REMARK    3  A    between atoms: C_8  and  C_9
REMARK    4  A    between atoms: N_14  and  C_15
REMARK    5  A    between atoms: C_15  and  C_16
REMARK    6  A    between atoms: C_22  and  O_23
REMARK                            x       y       z     vdW  Elec       q    Type
REMARK                         _______ _______ _______ _____ _____    ______ ____
ROOT
ATOM      1  C   UNL     1       4.502   4.531  17.431  0.00  0.00    +0.000 C 
ATOM      2  O   UNL     1       4.136   4.538  16.251  0.00  0.00    +0.000 OA
ATOM      3  N   UNL     1       5.042   5.668  18.030  0.00  0.00    +0.000 N 
ATOM      4  C   UNL     1       5.147   6.905  17.253  0.00  0.00    +0.000 C 
ATOM      5  C   UNL     1       6.573   7.240  16.771  0.00  0.00    +0.000 C 
ATOM      6  N   UNL     1       7.457   7.670  17.874  0.00  0.00    +0.000 NA
ATOM      7  C   UNL     1       8.104   6.582  18.630  0.00  0.00    +0.000 C 
ATOM      8  C   UNL     1       7.281   5.339  19.026  0.00  0.00    +0.000 C 
ATOM      9  C   UNL     1       5.798   5.631  19.282  0.00  0.00    +0.000 C 
ENDROOT
BRANCH   8  10
ATOM     10  O   UNL     1       7.450   4.297  18.053  0.00  0.00    +0.000 OA
ATOM     11  H   UNL     1       7.706   3.492  18.537  0.00  0.00    +0.000 HD
ENDBRANCH   8  10
BRANCH   1  12
ATOM     12  C   UNL     1       4.366   3.250  18.260  0.00  0.00    +0.000 C 
BRANCH  12  19
ATOM     13  C   UNL     1       4.640   1.810  20.908  0.00  0.00    +0.000 C 
ATOM     14  C   UNL     1       3.396   2.573  20.537  0.00  0.00    +0.000 A 
ATOM     15  C   UNL     1       2.333   2.596  21.456  0.00  0.00    +0.000 A 
ATOM     16  C   UNL     1       1.149   3.273  21.169  0.00  0.00    +0.000 A 
ATOM     17  C   UNL     1       1.011   3.939  19.958  0.00  0.00    +0.000 A 
ATOM     18  C   UNL     1       2.059   3.933  19.037  0.00  0.00    +0.000 A 
ATOM     19  C   UNL     1       3.271   3.273  19.313  0.00  0.00    +0.000 A 
ENDBRANCH  12  19
ENDBRANCH   1  12
BRANCH   6  20
ATOM     20  C   UNL     1       8.456   8.662  17.410  0.00  0.00    +0.000 C 
BRANCH  20  21
ATOM     21  C   UNL     1       8.708   9.789  18.370  0.00  0.00    +0.000 A 
ATOM     22  N   UNL     1       8.634  11.082  18.116  0.00  0.00    +0.000 NA
ATOM     23  C   UNL     1       9.065  11.713  19.250  0.00  0.00    +0.000 A 
ATOM     24  C   UNL     1       9.368  10.799  20.226  0.00  0.00    +0.000 A 
ATOM     25  N   UNL     1       9.116   9.579  19.666  0.00  0.00    +0.000 N 
ATOM     26  H   UNL     1       9.252   8.678  20.103  0.00  0.00    +0.000 HD
ENDBRANCH  20  21
ENDBRANCH   6  20
TORSDOF 5
ENDMDL
MODEL 2
REMARK VINA RESULT:      -6.8      0.372      1.432
REMARK  Name = 
REMARK  6 active torsions:
REMARK  status: ('A' for Active; 'I' for Inactive)
REMARK    1  A    between atoms: C_1  and  C_2
REMARK    2  A    between atoms: C_7  and  C_8
REMARK    3  A    between atoms: C_8  and  C_9
REMARK    4  A    between atoms: N_14  and  C_15
REMARK    5  A    between atoms: C_15  and  C_16
REMARK    6  A    between atoms: C_22  and  O_23
REMARK                            x       y       z     vdW  Elec       q    Type
REMARK                         _______ _______ _______ _____ _____    ______ ____
ROOT
ATOM      1  C   UNL     1       4.432   4.330  17.435  0.00  0.00    +0.000 C 
ATOM      2  O   UNL     1       4.075   4.303  16.253  0.00  0.00    +0.000 OA
ATOM      3  N   UNL     1       4.948   5.491  18.010  0.00  0.00    +0.000 N 
ATOM      4  C   UNL     1       5.037   6.711  17.204  0.00  0.00    +0.000 C 
ATOM      5  C   UNL     1       6.462   7.058  16.724  0.00  0.00    +0.000 C 
ATOM      6  N   UNL     1       7.329   7.530  17.822  0.00  0.00    +0.000 NA
ATOM      7  C   UNL     1       7.990   6.472  18.609  0.00  0.00    +0.000 C 
ATOM      8  C   UNL     1       7.185   5.225  19.029  0.00  0.00    +0.000 C 
ATOM      9  C   UNL     1       5.695   5.497  19.268  0.00  0.00    +0.000 C 
ENDROOT
BRANCH   8  10
ATOM     10  O   UNL     1       7.380   4.162  18.083  0.00  0.00    +0.000 OA
ATOM     11  H   UNL     1       7.504   4.576  17.210  0.00  0.00    +0.000 HD
ENDBRANCH   8  10
BRANCH   1  12
ATOM     12  C   UNL     1       4.313   3.068  18.293  0.00  0.00    +0.000 C 
BRANCH  12  19
ATOM     13  C   UNL     1       1.525   4.059  17.654  0.00  0.00    +0.000 C 
ATOM     14  C   UNL     1       1.909   3.584  19.030  0.00  0.00    +0.000 A 
ATOM     15  C   UNL     1       0.933   3.622  20.041  0.00  0.00    +0.000 A 
ATOM     16  C   UNL     1       1.227   3.208  21.339  0.00  0.00    +0.000 A 
ATOM     17  C   UNL     1       2.501   2.749  21.645  0.00  0.00    +0.000 A 
ATOM     18  C   UNL     1       3.480   2.699  20.653  0.00  0.00    +0.000 A 
ATOM     19  C   UNL     1       3.201   3.092  19.330  0.00  0.00    +0.000 A 
ENDBRANCH  12  19
ENDBRANCH   1  12
BRANCH   6  20
ATOM     20  C   UNL     1       8.315   8.527  17.342  0.00  0.00    +0.000 C 
BRANCH  20  21
ATOM     21  C   UNL     1       8.598   9.640  18.309  0.00  0.00    +0.000 A 
ATOM     22  N   UNL     1       8.493  10.936  18.084  0.00  0.00    +0.000 NA
ATOM     23  C   UNL     1       8.972  11.553  19.207  0.00  0.00    +0.000 A 
ATOM     24  C   UNL     1       9.337  10.625  20.149  0.00  0.00    +0.000 A 
ATOM     25  N   UNL     1       9.075   9.412  19.579  0.00  0.00    +0.000 N 
ATOM     26  H   UNL     1       9.246   8.505  19.991  0.00  0.00    +0.000 HD
ENDBRANCH  20  21
ENDBRANCH   6  20
TORSDOF 5
ENDMDL
MODEL 3
REMARK VINA RESULT:      -6.7      7.305      9.053
REMARK  Name = 
REMARK  6 active torsions:
REMARK  status: ('A' for Active; 'I' for Inactive)
REMARK    1  A    between atoms: C_1  and  C_2
REMARK    2  A    between atoms: C_7  and  C_8
REMARK    3  A    between atoms: C_8  and  C_9
REMARK    4  A    between atoms: N_14  and  C_15
REMARK    5  A    between atoms: C_15  and  C_16
REMARK    6  A    between atoms: C_22  and  O_23
REMARK                            x       y       z     vdW  Elec       q    Type
REMARK                         _______ _______ _______ _____ _____    ______ ____
ROOT
ATOM      1  C   UNL     1       1.315   8.621  19.892  0.00  0.00    +0.000 C 
ATOM      2  O   UNL     1       1.848   9.269  18.985  0.00  0.00    +0.000 OA
ATOM      3  N   UNL     1       0.088   9.003  20.430  0.00  0.00    +0.000 N 
ATOM      4  C   UNL     1      -0.599  10.177  19.886  0.00  0.00    +0.000 C 
ATOM      5  C   UNL     1      -0.520  11.435  20.776  0.00  0.00    +0.000 C 
ATOM      6  N   UNL     1      -1.347  11.319  21.994  0.00  0.00    +0.000 NA
ATOM      7  C   UNL     1      -0.707  10.630  23.131  0.00  0.00    +0.000 C 
ATOM      8  C   UNL     1       0.101   9.341  22.880  0.00  0.00    +0.000 C 
ATOM      9  C   UNL     1      -0.418   8.500  21.708  0.00  0.00    +0.000 C 
ENDROOT
BRANCH   8  10
ATOM     10  O   UNL     1       1.496   9.648  22.729  0.00  0.00    +0.000 OA
ATOM     11  H   UNL     1       1.847   9.055  22.041  0.00  0.00    +0.000 HD
ENDBRANCH   8  10
BRANCH   1  12
ATOM     12  C   UNL     1       2.012   7.375  20.445  0.00  0.00    +0.000 C 
BRANCH  12  19
ATOM     13  C   UNL     1       1.079   4.496  20.513  0.00  0.00    +0.000 C 
ATOM     14  C   UNL     1       2.024   5.006  19.458  0.00  0.00    +0.000 A 
ATOM     15  C   UNL     1       2.489   4.099  18.489  0.00  0.00    +0.000 A 
ATOM     16  C   UNL     1       3.375   4.504  17.493  0.00  0.00    +0.000 A 
ATOM     17  C   UNL     1       3.809   5.823  17.448  0.00  0.00    +0.000 A 
ATOM     18  C   UNL     1       3.353   6.737  18.398  0.00  0.00    +0.000 A 
ATOM     19  C   UNL     1       2.442   6.357  19.402  0.00  0.00    +0.000 A 
ENDBRANCH  12  19
ENDBRANCH   1  12
BRANCH   6  20
ATOM     20  C   UNL     1      -1.887  12.635  22.408  0.00  0.00    +0.000 C 
BRANCH  20  21
ATOM     21  C   UNL     1      -3.351  12.631  22.741  0.00  0.00    +0.000 A 
ATOM     22  N   UNL     1      -4.350  12.964  21.945  0.00  0.00    +0.000 NA
ATOM     23  C   UNL     1      -5.477  12.924  22.718  0.00  0.00    +0.000 A 
ATOM     24  C   UNL     1      -5.174  12.523  23.994  0.00  0.00    +0.000 A 
ATOM     25  N   UNL     1      -3.824  12.317  23.994  0.00  0.00    +0.000 N 
ATOM     26  H   UNL     1      -3.259  12.033  24.783  0.00  0.00    +0.000 HD
ENDBRANCH  20  21
ENDBRANCH   6  20
TORSDOF 5
ENDMDL
MODEL 4
REMARK VINA RESULT:      -6.6      7.162      8.939
REMARK  Name = 
REMARK  6 active torsions:
REMARK  status: ('A' for Active; 'I' for Inactive)
REMARK    1  A    between atoms: C_1  and  C_2
REMARK    2  A    between atoms: C_7  and  C_8
REMARK    3  A    between atoms: C_8  and  C_9
REMARK    4  A    between atoms: N_14  and  C_15
REMARK    5  A    between atoms: C_15  and  C_16
REMARK    6  A    between atoms: C_22  and  O_23
REMARK                            x       y       z     vdW  Elec       q    Type
REMARK                         _______ _______ _______ _____ _____    ______ ____
ROOT
ATOM      1  C   UNL     1       1.381   8.584  19.870  0.00  0.00    +0.000 C 
ATOM      2  O   UNL     1       1.839   9.198  18.902  0.00  0.00    +0.000 OA
ATOM      3  N   UNL     1       0.143   8.915  20.418  0.00  0.00    +0.000 N 
ATOM      4  C   UNL     1      -0.645   9.991  19.812  0.00  0.00    +0.000 C 
ATOM      5  C   UNL     1      -0.638  11.315  20.603  0.00  0.00    +0.000 C 
ATOM      6  N   UNL     1      -1.421  11.231  21.853  0.00  0.00    +0.000 NA
ATOM      7  C   UNL     1      -0.701  10.679  23.016  0.00  0.00    +0.000 C 
ATOM      8  C   UNL     1       0.195   9.438  22.835  0.00  0.00    +0.000 C 
ATOM      9  C   UNL     1      -0.289   8.474  21.745  0.00  0.00    +0.000 C 
ENDROOT
BRANCH   8  10
ATOM     10  O   UNL     1       1.559   9.833  22.617  0.00  0.00    +0.000 OA
ATOM     11  H   UNL     1       2.091   9.019  22.587  0.00  0.00    +0.000 HD
ENDBRANCH   8  10
BRANCH   1  12
ATOM     12  C   UNL     1       2.184   7.438  20.491  0.00  0.00    +0.000 C 
BRANCH  12  19
ATOM     13  C   UNL     1       3.429   6.696  17.834  0.00  0.00    +0.000 C 
ATOM     14  C   UNL     1       2.536   5.749  18.591  0.00  0.00    +0.000 A 
ATOM     15  C   UNL     1       2.273   4.490  18.025  0.00  0.00    +0.000 A 
ATOM     16  C   UNL     1       1.445   3.572  18.669  0.00  0.00    +0.000 A 
ATOM     17  C   UNL     1       0.870   3.898  19.890  0.00  0.00    +0.000 A 
ATOM     18  C   UNL     1       1.126   5.141  20.469  0.00  0.00    +0.000 A 
ATOM     19  C   UNL     1       1.974   6.077  19.848  0.00  0.00    +0.000 A 
ENDBRANCH  12  19
ENDBRANCH   1  12
BRANCH   6  20
ATOM     20  C   UNL     1      -2.048  12.532  22.185  0.00  0.00    +0.000 C 
BRANCH  20  21
ATOM     21  C   UNL     1      -3.467  12.677  21.716  0.00  0.00    +0.000 A 
ATOM     22  N   UNL     1      -4.563  12.491  22.427  0.00  0.00    +0.000 NA
ATOM     23  C   UNL     1      -5.606  12.615  21.550  0.00  0.00    +0.000 A 
ATOM     24  C   UNL     1      -5.147  12.922  20.294  0.00  0.00    +0.000 A 
ATOM     25  N   UNL     1      -3.788  12.982  20.414  0.00  0.00    +0.000 N 
ATOM     26  H   UNL     1      -3.127  13.168  19.671  0.00  0.00    +0.000 HD
ENDBRANCH  20  21
ENDBRANCH   6  20
TORSDOF 5
ENDMDL
MODEL 5
REMARK VINA RESULT:      -6.6      7.224      8.985
REMARK  Name = 
REMARK  6 active torsions:
REMARK  status: ('A' for Active; 'I' for Inactive)
REMARK    1  A    between atoms: C_1  and  C_2
REMARK    2  A    between atoms: C_7  and  C_8
REMARK    3  A    between atoms: C_8  and  C_9
REMARK    4  A    between atoms: N_14  and  C_15
REMARK    5  A    between atoms: C_15  and  C_16
REMARK    6  A    between atoms: C_22  and  O_23
REMARK                            x       y       z     vdW  Elec       q    Type
REMARK                         _______ _______ _______ _____ _____    ______ ____
ROOT
ATOM      1  C   UNL     1       1.325   8.658  19.777  0.00  0.00    +0.000 C 
ATOM      2  O   UNL     1       1.815   9.301  18.843  0.00  0.00    +0.000 OA
ATOM      3  N   UNL     1       0.096   9.009  20.332  0.00  0.00    +0.000 N 
ATOM      4  C   UNL     1      -0.644  10.143  19.775  0.00  0.00    +0.000 C 
ATOM      5  C   UNL     1      -0.593  11.425  20.631  0.00  0.00    +0.000 C 
ATOM      6  N   UNL     1      -1.390  11.310  21.869  0.00  0.00    +0.000 NA
ATOM      7  C   UNL     1      -0.702  10.674  23.009  0.00  0.00    +0.000 C 
ATOM      8  C   UNL     1       0.147   9.409  22.772  0.00  0.00    +0.000 C 
ATOM      9  C   UNL     1      -0.365   8.520  21.632  0.00  0.00    +0.000 C 
ENDROOT
BRANCH   8  10
ATOM     10  O   UNL     1       1.527   9.761  22.584  0.00  0.00    +0.000 OA
ATOM     11  H   UNL     1       1.984   8.965  22.262  0.00  0.00    +0.000 HD
ENDBRANCH   8  10
BRANCH   1  12
ATOM     12  C   UNL     1       2.078   7.451  20.346  0.00  0.00    +0.000 C 
BRANCH  12  19
ATOM     13  C   UNL     1       1.099   4.589  20.465  0.00  0.00    +0.000 C 
ATOM     14  C   UNL     1       2.055   5.065  19.403  0.00  0.00    +0.000 A 
ATOM     15  C   UNL     1       2.508   4.133  18.453  0.00  0.00    +0.000 A 
ATOM     16  C   UNL     1       3.403   4.505  17.452  0.00  0.00    +0.000 A 
ATOM     17  C   UNL     1       3.858   5.815  17.384  0.00  0.00    +0.000 A 
ATOM     18  C   UNL     1       3.414   6.755  18.315  0.00  0.00    +0.000 A 
ATOM     19  C   UNL     1       2.495   6.408  19.323  0.00  0.00    +0.000 A 
ENDBRANCH  12  19
ENDBRANCH   1  12
BRANCH   6  20
ATOM     20  C   UNL     1      -1.969  12.617  22.262  0.00  0.00    +0.000 C 
BRANCH  20  21
ATOM     21  C   UNL     1      -3.405  12.807  21.864  0.00  0.00    +0.000 A 
ATOM     22  N   UNL     1      -4.474  12.494  22.571  0.00  0.00    +0.000 NA
ATOM     23  C   UNL     1      -5.546  12.732  21.755  0.00  0.00    +0.000 A 
ATOM     24  C   UNL     1      -5.133  13.236  20.548  0.00  0.00    +0.000 A 
ATOM     25  N   UNL     1      -3.772  13.301  20.634  0.00  0.00    +0.000 N 
ATOM     26  H   UNL     1      -3.139  13.610  19.910  0.00  0.00    +0.000 HD
ENDBRANCH  20  21
ENDBRANCH   6  20
TORSDOF 5
ENDMDL
MODEL 6
REMARK VINA RESULT:      -6.6      3.363      5.592
REMARK  Name = 
REMARK  6 active torsions:
REMARK  status: ('A' for Active; 'I' for Inactive)
REMARK    1  A    between atoms: C_1  and  C_2
REMARK    2  A    between atoms: C_7  and  C_8
REMARK    3  A    between atoms: C_8  and  C_9
REMARK    4  A    between atoms: N_14  and  C_15
REMARK    5  A    between atoms: C_15  and  C_16
REMARK    6  A    between atoms: C_22  and  O_23
REMARK                            x       y       z     vdW  Elec       q    Type
REMARK                         _______ _______ _______ _____ _____    ______ ____
ROOT
ATOM      1  C   UNL     1       4.194   6.052  18.031  0.00  0.00    +0.000 C 
ATOM      2  O   UNL     1       3.144   6.500  17.560  0.00  0.00    +0.000 OA
ATOM      3  N   UNL     1       5.399   6.150  17.337  0.00  0.00    +0.000 N 
ATOM      4  C   UNL     1       5.425   6.827  16.038  0.00  0.00    +0.000 C 
ATOM      5  C   UNL     1       5.518   5.880  14.823  0.00  0.00    +0.000 C 
ATOM      6  N   UNL     1       6.848   5.249  14.699  0.00  0.00    +0.000 NA
ATOM      7  C   UNL     1       7.049   4.029  15.505  0.00  0.00    +0.000 C 
ATOM      8  C   UNL     1       6.547   3.992  16.962  0.00  0.00    +0.000 C 
ATOM      9  C   UNL     1       6.581   5.353  17.668  0.00  0.00    +0.000 C 
ENDROOT
BRANCH   8  10
ATOM     10  O   UNL     1       5.240   3.400  17.026  0.00  0.00    +0.000 OA
ATOM     11  H   UNL     1       4.744   3.876  17.715  0.00  0.00    +0.000 HD
ENDBRANCH   8  10
BRANCH   1  12
ATOM     12  C   UNL     1       4.182   5.371  19.402  0.00  0.00    +0.000 C 
BRANCH  12  19
ATOM     13  C   UNL     1       1.604   6.273  20.706  0.00  0.00    +0.000 C 
ATOM     14  C   UNL     1       1.829   4.846  20.280  0.00  0.00    +0.000 A 
ATOM     15  C   UNL     1       0.802   3.915  20.515  0.00  0.00    +0.000 A 
ATOM     16  C   UNL     1       0.951   2.576  20.156  0.00  0.00    +0.000 A 
ATOM     17  C   UNL     1       2.128   2.150  19.554  0.00  0.00    +0.000 A 
ATOM     18  C   UNL     1       3.154   3.062  19.308  0.00  0.00    +0.000 A 
ATOM     19  C   UNL     1       3.019   4.423  19.643  0.00  0.00    +0.000 A 
ENDBRANCH  12  19
ENDBRANCH   1  12
BRANCH   6  20
ATOM     20  C   UNL     1       7.202   5.011  13.280  0.00  0.00    +0.000 C 
BRANCH  20  21
ATOM     21  C   UNL     1       6.359   3.977  12.592  0.00  0.00    +0.000 A 
ATOM     22  N   UNL     1       5.046   3.984  12.454  0.00  0.00    +0.000 NA
ATOM     23  C   UNL     1       4.722   2.789  11.874  0.00  0.00    +0.000 A 
ATOM     24  C   UNL     1       5.852   2.055  11.615  0.00  0.00    +0.000 A 
ATOM     25  N   UNL     1       6.890   2.828  12.054  0.00  0.00    +0.000 N 
ATOM     26  H   UNL     1       7.870   2.584  12.035  0.00  0.00    +0.000 HD
ENDBRANCH  20  21
ENDBRANCH   6  20
TORSDOF 5
ENDMDL
MODEL 7
REMARK VINA RESULT:      -6.5      7.501      9.771
REMARK  Name = 
REMARK  6 active torsions:
REMARK  status: ('A' for Active; 'I' for Inactive)
REMARK    1  A    between atoms: C_1  and  C_2
REMARK    2  A    between atoms: C_7  and  C_8
REMARK    3  A    between atoms: C_8  and  C_9
REMARK    4  A    between atoms: N_14  and  C_15
REMARK    5  A    between atoms: C_15  and  C_16
REMARK    6  A    between atoms: C_22  and  O_23
REMARK                            x       y       z     vdW  Elec       q    Type
REMARK                         _______ _______ _______ _____ _____    ______ ____
ROOT
ATOM      1  C   UNL     1      -0.677  10.874  22.219  0.00  0.00    +0.000 C 
ATOM      2  O   UNL     1      -0.284  10.665  23.371  0.00  0.00    +0.000 OA
ATOM      3  N   UNL     1      -0.575   9.898  21.229  0.00  0.00    +0.000 N 
ATOM      4  C   UNL     1      -0.020   8.586  21.572  0.00  0.00    +0.000 C 
ATOM      5  C   UNL     1       1.424   8.353  21.080  0.00  0.00    +0.000 C 
ATOM      6  N   UNL     1       1.500   8.180  19.615  0.00  0.00    +0.000 NA
ATOM      7  C   UNL     1       1.570   9.427  18.831  0.00  0.00    +0.000 C 
ATOM      8  C   UNL     1       0.655  10.611  19.206  0.00  0.00    +0.000 C 
ATOM      9  C   UNL     1      -0.694  10.190  19.801  0.00  0.00    +0.000 C 
ENDROOT
BRANCH   8  10
ATOM     10  O   UNL     1       1.349  11.524  20.072  0.00  0.00    +0.000 OA
ATOM     11  H   UNL     1       2.106  11.042  20.448  0.00  0.00    +0.000 HD
ENDBRANCH   8  10
BRANCH   1  12
ATOM     12  C   UNL     1      -1.288  12.232  21.860  0.00  0.00    +0.000 C 
BRANCH  12  19
ATOM     13  C   UNL     1      -3.580  12.607  19.919  0.00  0.00    +0.000 C 
ATOM     14  C   UNL     1      -3.780  12.645  21.411  0.00  0.00    +0.000 A 
ATOM     15  C   UNL     1      -5.078  12.876  21.900  0.00  0.00    +0.000 A 
ATOM     16  C   UNL     1      -5.329  12.936  23.270  0.00  0.00    +0.000 A 
ATOM     17  C   UNL     1      -4.286  12.764  24.171  0.00  0.00    +0.000 A 
ATOM     18  C   UNL     1      -2.994  12.527  23.703  0.00  0.00    +0.000 A 
ATOM     19  C   UNL     1      -2.719  12.442  22.325  0.00  0.00    +0.000 A 
ENDBRANCH  12  19
ENDBRANCH   1  12
BRANCH   6  20
ATOM     20  C   UNL     1       2.595   7.254  19.238  0.00  0.00    +0.000 C 
BRANCH  20  21
ATOM     21  C   UNL     1       2.173   5.822  19.080  0.00  0.00    +0.000 A 
ATOM     22  N   UNL     1       2.064   5.144  17.952  0.00  0.00    +0.000 NA
ATOM     23  C   UNL     1       1.534   3.930  18.293  0.00  0.00    +0.000 A 
ATOM     24  C   UNL     1       1.354   3.846  19.650  0.00  0.00    +0.000 A 
ATOM     25  N   UNL     1       1.784   5.044  20.145  0.00  0.00    +0.000 N 
ATOM     26  H   UNL     1       1.774   5.332  21.113  0.00  0.00    +0.000 HD
ENDBRANCH  20  21
ENDBRANCH   6  20
TORSDOF 5
ENDMDL
MODEL 8
REMARK VINA RESULT:      -6.5      7.721      9.898
REMARK  Name = 
REMARK  6 active torsions:
REMARK  status: ('A' for Active; 'I' for Inactive)
REMARK    1  A    between atoms: C_1  and  C_2
REMARK    2  A    between atoms: C_7  and  C_8
REMARK    3  A    between atoms: C_8  and  C_9
REMARK    4  A    between atoms: N_14  and  C_15
REMARK    5  A    between atoms: C_15  and  C_16
REMARK    6  A    between atoms: C_22  and  O_23
REMARK                            x       y       z     vdW  Elec       q    Type
REMARK                         _______ _______ _______ _____ _____    ______ ____
ROOT
ATOM      1  C   UNL     1      -0.632  10.855  22.205  0.00  0.00    +0.000 C 
ATOM      2  O   UNL     1      -0.262  10.681  23.371  0.00  0.00    +0.000 OA
ATOM      3  N   UNL     1      -0.559   9.832  21.261  0.00  0.00    +0.000 N 
ATOM      4  C   UNL     1      -0.064   8.515  21.670  0.00  0.00    +0.000 C 
ATOM      5  C   UNL     1       1.374   8.199  21.209  0.00  0.00    +0.000 C 
ATOM      6  N   UNL     1       1.462   7.957  19.755  0.00  0.00    +0.000 NA
ATOM      7  C   UNL     1       1.594   9.165  18.918  0.00  0.00    +0.000 C 
ATOM      8  C   UNL     1       0.726  10.401  19.226  0.00  0.00    +0.000 C 
ATOM      9  C   UNL     1      -0.648  10.064  19.820  0.00  0.00    +0.000 C 
ENDROOT
BRANCH   8  10
ATOM     10  O   UNL     1       1.446  11.322  20.061  0.00  0.00    +0.000 OA
ATOM     11  H   UNL     1       2.213  10.842  20.421  0.00  0.00    +0.000 HD
ENDBRANCH   8  10
BRANCH   1  12
ATOM     12  C   UNL     1      -1.180  12.219  21.778  0.00  0.00    +0.000 C 
BRANCH  12  19
ATOM     13  C   UNL     1      -0.374  14.914  22.898  0.00  0.00    +0.000 C 
ATOM     14  C   UNL     1      -1.608  14.189  23.367  0.00  0.00    +0.000 A 
ATOM     15  C   UNL     1      -2.392  14.791  24.366  0.00  0.00    +0.000 A 
ATOM     16  C   UNL     1      -3.539  14.167  24.852  0.00  0.00    +0.000 A 
ATOM     17  C   UNL     1      -3.921  12.932  24.345  0.00  0.00    +0.000 A 
ATOM     18  C   UNL     1      -3.158  12.323  23.349  0.00  0.00    +0.000 A 
ATOM     19  C   UNL     1      -2.007  12.943  22.828  0.00  0.00    +0.000 A 
ENDBRANCH  12  19
ENDBRANCH   1  12
BRANCH   6  20
ATOM     20  C   UNL     1       2.521   6.971  19.434  0.00  0.00    +0.000 C 
BRANCH  20  21
ATOM     21  C   UNL     1       2.225   5.570  19.887  0.00  0.00    +0.000 A 
ATOM     22  N   UNL     1       1.573   4.638  19.217  0.00  0.00    +0.000 NA
ATOM     23  C   UNL     1       1.445   3.580  20.074  0.00  0.00    +0.000 A 
ATOM     24  C   UNL     1       2.061   3.849  21.270  0.00  0.00    +0.000 A 
ATOM     25  N   UNL     1       2.573   5.107  21.134  0.00  0.00    +0.000 N 
ATOM     26  H   UNL     1       3.077   5.629  21.838  0.00  0.00    +0.000 HD
ENDBRANCH  20  21
ENDBRANCH   6  20
TORSDOF 5
ENDMDL
MODEL 9
REMARK VINA RESULT:      -6.4      7.253      8.742
REMARK  Name = 
REMARK  6 active torsions:
REMARK  status: ('A' for Active; 'I' for Inactive)
REMARK    1  A    between atoms: C_1  and  C_2
REMARK    2  A    between atoms: C_7  and  C_8
REMARK    3  A    between atoms: C_8  and  C_9
REMARK    4  A    between atoms: N_14  and  C_15
REMARK    5  A    between atoms: C_15  and  C_16
REMARK    6  A    between atoms: C_22  and  O_23
REMARK                            x       y       z     vdW  Elec       q    Type
REMARK                         _______ _______ _______ _____ _____    ______ ____
ROOT
ATOM      1  C   UNL     1       1.359   8.498  19.784  0.00  0.00    +0.000 C 
ATOM      2  O   UNL     1       1.868   8.986  18.770  0.00  0.00    +0.000 OA
ATOM      3  N   UNL     1       0.134   8.951  20.271  0.00  0.00    +0.000 N 
ATOM      4  C   UNL     1      -0.579  10.006  19.546  0.00  0.00    +0.000 C 
ATOM      5  C   UNL     1      -0.505  11.399  20.205  0.00  0.00    +0.000 C 
ATOM      6  N   UNL     1      -1.311  11.484  21.440  0.00  0.00    +0.000 NA
ATOM      7  C   UNL     1      -0.644  11.008  22.666  0.00  0.00    +0.000 C 
ATOM      8  C   UNL     1       0.179   9.705  22.626  0.00  0.00    +0.000 C 
ATOM      9  C   UNL     1      -0.344   8.669  21.624  0.00  0.00    +0.000 C 
ENDROOT
BRANCH   8  10
ATOM     10  O   UNL     1       1.568   9.998  22.400  0.00  0.00    +0.000 OA
ATOM     11  H   UNL     1       2.040   9.147  22.383  0.00  0.00    +0.000 HD
ENDBRANCH   8  10
BRANCH   1  12
ATOM     12  C   UNL     1       2.082   7.373  20.530  0.00  0.00    +0.000 C 
BRANCH  12  19
ATOM     13  C   UNL     1       3.527   6.576  17.992  0.00  0.00    +0.000 C 
ATOM     14  C   UNL     1       2.596   5.637  18.712  0.00  0.00    +0.000 A 
ATOM     15  C   UNL     1       2.393   4.357  18.166  0.00  0.00    +0.000 A 
ATOM     16  C   UNL     1       1.535   3.444  18.776  0.00  0.00    +0.000 A 
ATOM     17  C   UNL     1       0.868   3.796  19.942  0.00  0.00    +0.000 A 
ATOM     18  C   UNL     1       1.062   5.059  20.501  0.00  0.00    +0.000 A 
ATOM     19  C   UNL     1       1.939   5.991  19.914  0.00  0.00    +0.000 A 
ENDBRANCH  12  19
ENDBRANCH   1  12
BRANCH   6  20
ATOM     20  C   UNL     1      -1.864  12.845  21.631  0.00  0.00    +0.000 C 
BRANCH  20  21
ATOM     21  C   UNL     1      -2.766  12.989  22.823  0.00  0.00    +0.000 A 
ATOM     22  N   UNL     1      -2.568  13.749  23.884  0.00  0.00    +0.000 NA
ATOM     23  C   UNL     1      -3.586  13.458  24.750  0.00  0.00    +0.000 A 
ATOM     24  C   UNL     1      -4.443  12.540  24.198  0.00  0.00    +0.000 A 
ATOM     25  N   UNL     1      -3.927  12.265  22.964  0.00  0.00    +0.000 N 
ATOM     26  H   UNL     1      -4.299  11.610  22.290  0.00  0.00    +0.000 HD
ENDBRANCH  20  21
ENDBRANCH   6  20
TORSDOF 5
ENDMDL
