MODEL 1
REMARK VINA RESULT:      -9.2      0.000      0.000
REMARK  Name = 
REMARK  8 active torsions:
REMARK  status: ('A' for Active; 'I' for Inactive)
REMARK    1  A    between atoms: N_1  and  C_2
REMARK    2  A    between atoms: C_7  and  C_8
REMARK    3  A    between atoms: C_11  and  C_12
REMARK    4  A    between atoms: C_12  and  N_13
REMARK    5  A    between atoms: N_13  and  C_14
REMARK    6  A    between atoms: N_17  and  C_18
REMARK    7  A    between atoms: C_21  and  N_22
REMARK    8  A    between atoms: N_30  and  C_31
REMARK                            x       y       z     vdW  Elec       q    Type
REMARK                         _______ _______ _______ _____ _____    ______ ____
ROOT
ATOM      1  C   UNL     1       7.087   5.406  16.374  0.00  0.00    +0.000 A 
ATOM      2  N   UNL     1       6.163   4.616  16.988  0.00  0.00    +0.000 NA
ATOM      3  C   UNL     1       5.504   3.677  16.281  0.00  0.00    +0.000 A 
ATOM      4  N   UNL     1       4.592   2.844  16.921  0.00  0.00    +0.000 N 
ATOM      5  N   UNL     1       5.630   3.450  14.964  0.00  0.00    +0.000 NA
ATOM      6  C   UNL     1       6.545   4.238  14.379  0.00  0.00    +0.000 A 
ATOM      7  C   UNL     1       7.304   5.206  15.001  0.00  0.00    +0.000 A 
ATOM      8  N   UNL     1       8.129   5.832  14.090  0.00  0.00    +0.000 NA
ATOM      9  C   UNL     1       7.880   5.263  12.944  0.00  0.00    +0.000 A 
ATOM     10  N   UNL     1       6.922   4.292  13.061  0.00  0.00    +0.000 N 
ATOM     11  H   UNL     1       3.990   2.485  16.191  0.00  0.00    +0.000 HD
ENDROOT
BRANCH   4  12
ATOM     12  C   UNL     1       3.932   3.327  18.127  0.00  0.00    +0.000 C 
ATOM     13  C   UNL     1       2.446   3.571  17.788  0.00  0.00    +0.000 C 
ATOM     14  C   UNL     1       1.617   3.945  19.016  0.00  0.00    +0.000 C 
ATOM     15  C   UNL     1       1.746   2.885  20.112  0.00  0.00    +0.000 C 
ATOM     16  C   UNL     1       3.216   2.675  20.486  0.00  0.00    +0.000 C 
ATOM     17  C   UNL     1       4.051   2.293  19.261  0.00  0.00    +0.000 C 
BRANCH  15  18
ATOM     18  N   UNL     1       0.964   3.286  21.279  0.00  0.00    +0.000 NA
ATOM     19  H   UNL     1       0.382   4.092  21.052  0.00  0.00    +0.000 HD
ATOM     20  H   UNL     1       1.591   3.594  22.022  0.00  0.00    +0.000 HD
ENDBRANCH  15  18
ENDBRANCH   4  12
BRANCH  10  21
ATOM     21  C   UNL     1       6.420   3.529  11.951  0.00  0.00    +0.000 C 
ATOM     22  C   UNL     1       6.936   2.098  11.876  0.00  0.00    +0.000 C 
ATOM     23  C   UNL     1       5.977   1.430  10.901  0.00  0.00    +0.000 C 
ATOM     24  C   UNL     1       4.643   2.164  11.042  0.00  0.00    +0.000 C 
ATOM     25  C   UNL     1       4.901   3.388  11.916  0.00  0.00    +0.000 C 
ENDBRANCH  10  21
BRANCH   1  26
ATOM     26  N   UNL     1       7.731   6.371  17.155  0.00  0.00    +0.000 N 
ATOM     27  H   UNL     1       8.128   5.920  17.970  0.00  0.00    +0.000 HD
BRANCH  26  28
ATOM     28  C   UNL     1       6.913   7.544  17.431  0.00  0.00    +0.000 C 
BRANCH  28  32
ATOM     29  C   UNL     1       9.302  10.941  18.674  0.00  0.00    +0.000 A 
ATOM     30  C   UNL     1       8.332  11.059  17.663  0.00  0.00    +0.000 A 
ATOM     31  C   UNL     1       7.559   9.967  17.262  0.00  0.00    +0.000 A 
ATOM     32  C   UNL     1       7.769   8.708  17.833  0.00  0.00    +0.000 A 
ATOM     33  C   UNL     1       8.701   8.572  18.857  0.00  0.00    +0.000 A 
ATOM     34  C   UNL     1       9.420   9.682  19.294  0.00  0.00    +0.000 A 
BRANCH  29  40
ATOM     35  C   UNL     1      11.373  12.440  18.436  0.00  0.00    +0.000 A 
ATOM     36  C   UNL     1      12.173  13.467  18.968  0.00  0.00    +0.000 A 
ATOM     37  C   UNL     1      11.736  14.249  20.031  0.00  0.00    +0.000 A 
ATOM     38  C   UNL     1      10.508  13.985  20.616  0.00  0.00    +0.000 A 
ATOM     39  C   UNL     1       9.739  12.912  20.160  0.00  0.00    +0.000 A 
ATOM     40  C   UNL     1      10.153  12.092  19.083  0.00  0.00    +0.000 A 
BRANCH  35  41
ATOM     41  N   UNL     1      11.928  11.684  17.381  0.00  0.00    +0.000 N 
ATOM     42  H   UNL     1      12.820  12.031  17.048  0.00  0.00    +0.000 HD
ATOM     43  H   UNL     1      11.268  11.555  16.616  0.00  0.00    +0.000 HD
ENDBRANCH  35  41
ENDBRANCH  29  40
ENDBRANCH  28  32
ENDBRANCH  26  28
ENDBRANCH   1  26
TORSDOF 8
ENDMDL
MODEL 2
REMARK VINA RESULT:      -8.7      1.285      1.521
REMARK  Name = 
REMARK  8 active torsions:
REMARK  status: ('A' for Active; 'I' for Inactive)
REMARK    1  A    between atoms: N_1  and  C_2
REMARK    2  A    between atoms: C_7  and  C_8
REMARK    3  A    between atoms: C_11  and  C_12
REMARK    4  A    between atoms: C_12  and  N_13
REMARK    5  A    between atoms: N_13  and  C_14
REMARK    6  A    between atoms: N_17  and  C_18
REMARK    7  A    between atoms: C_21  and  N_22
REMARK    8  A    between atoms: N_30  and  C_31
REMARK                            x       y       z     vdW  Elec       q    Type
REMARK                         _______ _______ _______ _____ _____    ______ ____
ROOT
ATOM      1  C   UNL     1       7.017   5.885  16.475  0.00  0.00    +0.000 A 
ATOM      2  N   UNL     1       6.091   5.397  17.347  0.00  0.00    +0.000 NA
ATOM      3  C   UNL     1       5.262   4.406  16.963  0.00  0.00    +0.000 A 
ATOM      4  N   UNL     1       4.346   3.883  17.870  0.00  0.00    +0.000 N 
ATOM      5  N   UNL     1       5.214   3.847  15.743  0.00  0.00    +0.000 NA
ATOM      6  C   UNL     1       6.134   4.342  14.902  0.00  0.00    +0.000 A 
ATOM      7  C   UNL     1       7.056   5.326  15.188  0.00  0.00    +0.000 A 
ATOM      8  N   UNL     1       7.834   5.596  14.081  0.00  0.00    +0.000 NA
ATOM      9  C   UNL     1       7.399   4.799  13.145  0.00  0.00    +0.000 A 
ATOM     10  N   UNL     1       6.364   4.020  13.588  0.00  0.00    +0.000 N 
ATOM     11  H   UNL     1       3.632   3.436  17.309  0.00  0.00    +0.000 HD
ENDROOT
BRANCH   4  12
ATOM     12  C   UNL     1       3.880   4.729  18.960  0.00  0.00    +0.000 C 
ATOM     13  C   UNL     1       3.242   5.990  18.342  0.00  0.00    +0.000 C 
ATOM     14  C   UNL     1       2.586   6.891  19.388  0.00  0.00    +0.000 C 
ATOM     15  C   UNL     1       1.552   6.118  20.210  0.00  0.00    +0.000 C 
ATOM     16  C   UNL     1       2.194   4.893  20.866  0.00  0.00    +0.000 C 
ATOM     17  C   UNL     1       2.846   3.983  19.822  0.00  0.00    +0.000 C 
BRANCH  15  18
ATOM     18  N   UNL     1       0.966   7.001  21.216  0.00  0.00    +0.000 NA
ATOM     19  H   UNL     1       0.788   6.483  22.076  0.00  0.00    +0.000 HD
ATOM     20  H   UNL     1       0.056   7.330  20.894  0.00  0.00    +0.000 HD
ENDBRANCH  15  18
ENDBRANCH   4  12
BRANCH  10  21
ATOM     21  C   UNL     1       5.662   3.078  12.758  0.00  0.00    +0.000 C 
ATOM     22  C   UNL     1       4.577   3.688  11.880  0.00  0.00    +0.000 C 
ATOM     23  C   UNL     1       4.295   2.593  10.861  0.00  0.00    +0.000 C 
ATOM     24  C   UNL     1       5.600   1.814  10.698  0.00  0.00    +0.000 C 
ATOM     25  C   UNL     1       6.550   2.308  11.785  0.00  0.00    +0.000 C 
ENDBRANCH  10  21
BRANCH   1  26
ATOM     26  N   UNL     1       7.843   6.921  16.925  0.00  0.00    +0.000 N 
ATOM     27  H   UNL     1       8.724   6.526  17.233  0.00  0.00    +0.000 HD
BRANCH  26  28
ATOM     28  C   UNL     1       7.197   7.815  17.876  0.00  0.00    +0.000 C 
BRANCH  28  32
ATOM     29  C   UNL     1       9.520  11.398  18.618  0.00  0.00    +0.000 A 
ATOM     30  C   UNL     1       8.557  11.350  17.595  0.00  0.00    +0.000 A 
ATOM     31  C   UNL     1       7.805  10.198  17.355  0.00  0.00    +0.000 A 
ATOM     32  C   UNL     1       8.031   9.040  18.106  0.00  0.00    +0.000 A 
ATOM     33  C   UNL     1       8.956   9.073  19.144  0.00  0.00    +0.000 A 
ATOM     34  C   UNL     1       9.654  10.246  19.417  0.00  0.00    +0.000 A 
BRANCH  29  40
ATOM     35  C   UNL     1      11.543  12.906  18.138  0.00  0.00    +0.000 A 
ATOM     36  C   UNL     1      12.328  14.010  18.516  0.00  0.00    +0.000 A 
ATOM     37  C   UNL     1      11.896  14.908  19.486  0.00  0.00    +0.000 A 
ATOM     38  C   UNL     1      10.691  14.689  20.134  0.00  0.00    +0.000 A 
ATOM     39  C   UNL     1       9.941  13.549  19.836  0.00  0.00    +0.000 A 
ATOM     40  C   UNL     1      10.350  12.611  18.857  0.00  0.00    +0.000 A 
BRANCH  35  41
ATOM     41  N   UNL     1      12.092  12.038  17.169  0.00  0.00    +0.000 N 
ATOM     42  H   UNL     1      12.176  12.450  16.246  0.00  0.00    +0.000 HD
ATOM     43  H   UNL     1      11.604  11.145  17.136  0.00  0.00    +0.000 HD
ENDBRANCH  35  41
ENDBRANCH  29  40
ENDBRANCH  28  32
ENDBRANCH  26  28
ENDBRANCH   1  26
TORSDOF 8
ENDMDL
MODEL 3
REMARK VINA RESULT:      -8.7      8.065     12.310
REMARK  Name = 
REMARK  8 active torsions:
REMARK  status: ('A' for Active; 'I' for Inactive)
REMARK    1  A    between atoms: N_1  and  C_2
REMARK    2  A    between atoms: C_7  and  C_8
REMARK    3  A    between atoms: C_11  and  C_12
REMARK    4  A    between atoms: C_12  and  N_13
REMARK    5  A    between atoms: N_13  and  C_14
REMARK    6  A    between atoms: N_17  and  C_18
REMARK    7  A    between atoms: C_21  and  N_22
REMARK    8  A    between atoms: N_30  and  C_31
REMARK                            x       y       z     vdW  Elec       q    Type
REMARK                         _______ _______ _______ _____ _____    ______ ____
ROOT
ATOM      1  C   UNL     1       0.071  11.947  19.146  0.00  0.00    +0.000 A 
ATOM      2  N   UNL     1      -1.101  12.355  19.707  0.00  0.00    +0.000 NA
ATOM      3  C   UNL     1      -1.347  13.670  19.872  0.00  0.00    +0.000 A 
ATOM      4  N   UNL     1      -2.563  14.083  20.407  0.00  0.00    +0.000 N 
ATOM      5  N   UNL     1      -0.506  14.672  19.572  0.00  0.00    +0.000 NA
ATOM      6  C   UNL     1       0.642  14.248  19.020  0.00  0.00    +0.000 A 
ATOM      7  C   UNL     1       0.991  12.938  18.769  0.00  0.00    +0.000 A 
ATOM      8  N   UNL     1       2.250  12.873  18.210  0.00  0.00    +0.000 NA
ATOM      9  C   UNL     1       2.659  14.109  18.123  0.00  0.00    +0.000 A 
ATOM     10  N   UNL     1       1.724  14.984  18.606  0.00  0.00    +0.000 N 
ATOM     11  H   UNL     1      -2.404  15.020  20.756  0.00  0.00    +0.000 HD
ENDROOT
BRANCH   4  12
ATOM     12  C   UNL     1      -3.282  13.175  21.290  0.00  0.00    +0.000 C 
ATOM     13  C   UNL     1      -2.549  13.154  22.648  0.00  0.00    +0.000 C 
ATOM     14  C   UNL     1      -3.295  12.343  23.706  0.00  0.00    +0.000 C 
ATOM     15  C   UNL     1      -4.727  12.852  23.882  0.00  0.00    +0.000 C 
ATOM     16  C   UNL     1      -5.474  12.827  22.546  0.00  0.00    +0.000 C 
ATOM     17  C   UNL     1      -4.736  13.644  21.483  0.00  0.00    +0.000 C 
BRANCH  15  18
ATOM     18  N   UNL     1      -5.419  12.039  24.880  0.00  0.00    +0.000 NA
ATOM     19  H   UNL     1      -5.090  12.276  25.816  0.00  0.00    +0.000 HD
ATOM     20  H   UNL     1      -5.187  11.056  24.741  0.00  0.00    +0.000 HD
ENDBRANCH  15  18
ENDBRANCH   4  12
BRANCH  10  21
ATOM     21  C   UNL     1       1.921  16.406  18.672  0.00  0.00    +0.000 C 
ATOM     22  C   UNL     1       0.792  17.235  18.074  0.00  0.00    +0.000 C 
ATOM     23  C   UNL     1       1.054  18.631  18.621  0.00  0.00    +0.000 C 
ATOM     24  C   UNL     1       1.748  18.439  19.970  0.00  0.00    +0.000 C 
ATOM     25  C   UNL     1       2.090  16.956  20.085  0.00  0.00    +0.000 C 
ENDBRANCH  10  21
BRANCH   1  26
ATOM     26  N   UNL     1       0.276  10.570  19.010  0.00  0.00    +0.000 N 
ATOM     27  H   UNL     1      -0.614  10.124  18.824  0.00  0.00    +0.000 HD
BRANCH  26  28
ATOM     28  C   UNL     1       1.051   9.982  20.094  0.00  0.00    +0.000 C 
BRANCH  28  32
ATOM     29  C   UNL     1       2.342   5.951  19.157  0.00  0.00    +0.000 A 
ATOM     30  C   UNL     1       2.427   6.986  18.209  0.00  0.00    +0.000 A 
ATOM     31  C   UNL     1       2.014   8.286  18.509  0.00  0.00    +0.000 A 
ATOM     32  C   UNL     1       1.457   8.579  19.757  0.00  0.00    +0.000 A 
ATOM     33  C   UNL     1       1.391   7.579  20.723  0.00  0.00    +0.000 A 
ATOM     34  C   UNL     1       1.865   6.302  20.436  0.00  0.00    +0.000 A 
BRANCH  29  40
ATOM     35  C   UNL     1       4.082   4.075  18.947  0.00  0.00    +0.000 A 
ATOM     36  C   UNL     1       4.396   2.779  18.502  0.00  0.00    +0.000 A 
ATOM     37  C   UNL     1       3.405   1.899  18.081  0.00  0.00    +0.000 A 
ATOM     38  C   UNL     1       2.084   2.318  18.050  0.00  0.00    +0.000 A 
ATOM     39  C   UNL     1       1.765   3.631  18.403  0.00  0.00    +0.000 A 
ATOM     40  C   UNL     1       2.747   4.556  18.834  0.00  0.00    +0.000 A 
BRANCH  35  41
ATOM     41  N   UNL     1       5.168   4.899  19.319  0.00  0.00    +0.000 N 
ATOM     42  H   UNL     1       6.055   4.621  18.915  0.00  0.00    +0.000 HD
ATOM     43  H   UNL     1       5.236   5.009  20.328  0.00  0.00    +0.000 HD
ENDBRANCH  35  41
ENDBRANCH  29  40
ENDBRANCH  28  32
ENDBRANCH  26  28
ENDBRANCH   1  26
TORSDOF 8
ENDMDL
MODEL 4
REMARK VINA RESULT:      -8.6      7.464     11.439
REMARK  Name = 
REMARK  8 active torsions:
REMARK  status: ('A' for Active; 'I' for Inactive)
REMARK    1  A    between atoms: N_1  and  C_2
REMARK    2  A    between atoms: C_7  and  C_8
REMARK    3  A    between atoms: C_11  and  C_12
REMARK    4  A    between atoms: C_12  and  N_13
REMARK    5  A    between atoms: N_13  and  C_14
REMARK    6  A    between atoms: N_17  and  C_18
REMARK    7  A    between atoms: C_21  and  N_22
REMARK    8  A    between atoms: N_30  and  C_31
REMARK                            x       y       z     vdW  Elec       q    Type
REMARK                         _______ _______ _______ _____ _____    ______ ____
ROOT
ATOM      1  C   UNL     1       0.936  11.844  20.411  0.00  0.00    +0.000 A 
ATOM      2  N   UNL     1      -0.092  11.732  19.525  0.00  0.00    +0.000 NA
ATOM      3  C   UNL     1      -0.301  12.701  18.611  0.00  0.00    +0.000 A 
ATOM      4  N   UNL     1      -1.327  12.562  17.681  0.00  0.00    +0.000 N 
ATOM      5  N   UNL     1       0.398  13.841  18.497  0.00  0.00    +0.000 NA
ATOM      6  C   UNL     1       1.405  13.931  19.379  0.00  0.00    +0.000 A 
ATOM      7  C   UNL     1       1.738  12.993  20.334  0.00  0.00    +0.000 A 
ATOM      8  N   UNL     1       2.819  13.424  21.076  0.00  0.00    +0.000 NA
ATOM      9  C   UNL     1       3.136  14.591  20.587  0.00  0.00    +0.000 A 
ATOM     10  N   UNL     1       2.306  14.949  19.560  0.00  0.00    +0.000 N 
ATOM     11  H   UNL     1      -1.523  13.498  17.349  0.00  0.00    +0.000 HD
ENDROOT
BRANCH   4  12
ATOM     12  C   UNL     1      -2.479  11.741  18.028  0.00  0.00    +0.000 C 
ATOM     13  C   UNL     1      -3.372  12.559  18.984  0.00  0.00    +0.000 C 
ATOM     14  C   UNL     1      -4.689  11.853  19.306  0.00  0.00    +0.000 C 
ATOM     15  C   UNL     1      -5.455  11.506  18.028  0.00  0.00    +0.000 C 
ATOM     16  C   UNL     1      -4.589  10.653  17.098  0.00  0.00    +0.000 C 
ATOM     17  C   UNL     1      -3.272  11.357  16.765  0.00  0.00    +0.000 C 
BRANCH  15  18
ATOM     18  N   UNL     1      -6.693  10.810  18.371  0.00  0.00    +0.000 NA
ATOM     19  H   UNL     1      -6.675   9.859  18.003  0.00  0.00    +0.000 HD
ATOM     20  H   UNL     1      -7.481  11.271  17.918  0.00  0.00    +0.000 HD
ENDBRANCH  15  18
ENDBRANCH   4  12
BRANCH  10  21
ATOM     21  C   UNL     1       2.396  16.203  18.862  0.00  0.00    +0.000 C 
ATOM     22  C   UNL     1       2.945  16.105  17.444  0.00  0.00    +0.000 C 
ATOM     23  C   UNL     1       2.564  17.444  16.828  0.00  0.00    +0.000 C 
ATOM     24  C   UNL     1       1.285  17.893  17.536  0.00  0.00    +0.000 C 
ATOM     25  C   UNL     1       1.068  16.937  18.706  0.00  0.00    +0.000 C 
ENDBRANCH  10  21
BRANCH   1  26
ATOM     26  N   UNL     1       1.098  10.814  21.344  0.00  0.00    +0.000 N 
ATOM     27  H   UNL     1       2.088  10.663  21.495  0.00  0.00    +0.000 HD
BRANCH  26  28
ATOM     28  C   UNL     1       0.326   9.618  21.036  0.00  0.00    +0.000 C 
BRANCH  28  32
ATOM     29  C   UNL     1       2.746   6.932  18.644  0.00  0.00    +0.000 A 
ATOM     30  C   UNL     1       2.222   8.120  18.106  0.00  0.00    +0.000 A 
ATOM     31  C   UNL     1       1.444   8.989  18.875  0.00  0.00    +0.000 A 
ATOM     32  C   UNL     1       1.128   8.668  20.198  0.00  0.00    +0.000 A 
ATOM     33  C   UNL     1       1.661   7.513  20.763  0.00  0.00    +0.000 A 
ATOM     34  C   UNL     1       2.489   6.687  20.007  0.00  0.00    +0.000 A 
BRANCH  29  40
ATOM     35  C   UNL     1       3.116   4.670  17.487  0.00  0.00    +0.000 A 
ATOM     36  C   UNL     1       3.991   3.802  16.811  0.00  0.00    +0.000 A 
ATOM     37  C   UNL     1       5.221   4.241  16.332  0.00  0.00    +0.000 A 
ATOM     38  C   UNL     1       5.621   5.547  16.567  0.00  0.00    +0.000 A 
ATOM     39  C   UNL     1       4.804   6.398  17.316  0.00  0.00    +0.000 A 
ATOM     40  C   UNL     1       3.547   5.985  17.821  0.00  0.00    +0.000 A 
BRANCH  35  41
ATOM     41  N   UNL     1       1.908   4.112  17.961  0.00  0.00    +0.000 N 
ATOM     42  H   UNL     1       1.737   3.166  17.641  0.00  0.00    +0.000 HD
ATOM     43  H   UNL     1       1.111   4.718  17.780  0.00  0.00    +0.000 HD
ENDBRANCH  35  41
ENDBRANCH  29  40
ENDBRANCH  28  32
ENDBRANCH  26  28
ENDBRANCH   1  26
TORSDOF 8
ENDMDL
MODEL 5
REMARK VINA RESULT:      -8.5      7.532     11.401
REMARK  Name = 
REMARK  8 active torsions:
REMARK  status: ('A' for Active; 'I' for Inactive)
REMARK    1  A    between atoms: N_1  and  C_2
REMARK    2  A    between atoms: C_7  and  C_8
REMARK    3  A    between atoms: C_11  and  C_12
REMARK    4  A    between atoms: C_12  and  N_13
REMARK    5  A    between atoms: N_13  and  C_14
REMARK    6  A    between atoms: N_17  and  C_18
REMARK    7  A    between atoms: C_21  and  N_22
REMARK    8  A    between atoms: N_30  and  C_31
REMARK                            x       y       z     vdW  Elec       q    Type
REMARK                         _______ _______ _______ _____ _____    ______ ____
ROOT
ATOM      1  C   UNL     1       0.171  11.559  19.063  0.00  0.00    +0.000 A 
ATOM      2  N   UNL     1      -0.905  12.106  19.693  0.00  0.00    +0.000 NA
ATOM      3  C   UNL     1      -0.903  13.416  20.012  0.00  0.00    +0.000 A 
ATOM      4  N   UNL     1      -2.022  13.980  20.619  0.00  0.00    +0.000 N 
ATOM      5  N   UNL     1       0.107  14.276  19.807  0.00  0.00    +0.000 NA
ATOM      6  C   UNL     1       1.155  13.716  19.185  0.00  0.00    +0.000 A 
ATOM      7  C   UNL     1       1.257  12.402  18.779  0.00  0.00    +0.000 A 
ATOM      8  N   UNL     1       2.482  12.173  18.186  0.00  0.00    +0.000 NA
ATOM      9  C   UNL     1       3.110  13.315  18.230  0.00  0.00    +0.000 A 
ATOM     10  N   UNL     1       2.353  14.284  18.831  0.00  0.00    +0.000 N 
ATOM     11  H   UNL     1      -1.692  14.825  21.067  0.00  0.00    +0.000 HD
ENDROOT
BRANCH   4  12
ATOM     12  C   UNL     1      -2.894  13.122  21.410  0.00  0.00    +0.000 C 
ATOM     13  C   UNL     1      -2.243  12.935  22.796  0.00  0.00    +0.000 C 
ATOM     14  C   UNL     1      -3.139  12.168  23.768  0.00  0.00    +0.000 C 
ATOM     15  C   UNL     1      -4.505  12.843  23.908  0.00  0.00    +0.000 C 
ATOM     16  C   UNL     1      -5.176  12.986  22.540  0.00  0.00    +0.000 C 
ATOM     17  C   UNL     1      -4.287  13.761  21.564  0.00  0.00    +0.000 C 
BRANCH  15  18
ATOM     18  N   UNL     1      -5.344  12.070  24.821  0.00  0.00    +0.000 NA
ATOM     19  H   UNL     1      -5.550  11.156  24.420  0.00  0.00    +0.000 HD
ATOM     20  H   UNL     1      -6.244  12.535  24.935  0.00  0.00    +0.000 HD
ENDBRANCH  15  18
ENDBRANCH   4  12
BRANCH  10  21
ATOM     21  C   UNL     1       2.809  15.630  19.053  0.00  0.00    +0.000 C 
ATOM     22  C   UNL     1       3.024  15.996  20.515  0.00  0.00    +0.000 C 
ATOM     23  C   UNL     1       3.856  17.268  20.439  0.00  0.00    +0.000 C 
ATOM     24  C   UNL     1       4.669  17.171  19.148  0.00  0.00    +0.000 C 
ATOM     25  C   UNL     1       4.135  15.968  18.377  0.00  0.00    +0.000 C 
ENDBRANCH  10  21
BRANCH   1  26
ATOM     26  N   UNL     1       0.118  10.193  18.767  0.00  0.00    +0.000 N 
ATOM     27  H   UNL     1      -0.839   9.941  18.552  0.00  0.00    +0.000 HD
BRANCH  26  28
ATOM     28  C   UNL     1       0.774   9.352  19.759  0.00  0.00    +0.000 C 
BRANCH  28  32
ATOM     29  C   UNL     1       3.639   6.720  17.848  0.00  0.00    +0.000 A 
ATOM     30  C   UNL     1       3.148   6.453  19.138  0.00  0.00    +0.000 A 
ATOM     31  C   UNL     1       2.222   7.298  19.755  0.00  0.00    +0.000 A 
ATOM     32  C   UNL     1       1.797   8.465  19.114  0.00  0.00    +0.000 A 
ATOM     33  C   UNL     1       2.245   8.735  17.825  0.00  0.00    +0.000 A 
ATOM     34  C   UNL     1       3.118   7.853  17.193  0.00  0.00    +0.000 A 
BRANCH  29  40
ATOM     35  C   UNL     1       5.989   6.247  16.928  0.00  0.00    +0.000 A 
ATOM     36  C   UNL     1       6.839   5.397  16.199  0.00  0.00    +0.000 A 
ATOM     37  C   UNL     1       6.451   4.107  15.854  0.00  0.00    +0.000 A 
ATOM     38  C   UNL     1       5.183   3.661  16.189  0.00  0.00    +0.000 A 
ATOM     39  C   UNL     1       4.293   4.523  16.834  0.00  0.00    +0.000 A 
ATOM     40  C   UNL     1       4.651   5.843  17.198  0.00  0.00    +0.000 A 
BRANCH  35  41
ATOM     41  N   UNL     1       6.469   7.549  17.194  0.00  0.00    +0.000 N 
ATOM     42  H   UNL     1       6.472   8.162  16.387  0.00  0.00    +0.000 HD
ATOM     43  H   UNL     1       7.377   7.534  17.654  0.00  0.00    +0.000 HD
ENDBRANCH  35  41
ENDBRANCH  29  40
ENDBRANCH  28  32
ENDBRANCH  26  28
ENDBRANCH   1  26
TORSDOF 8
ENDMDL
MODEL 6
REMARK VINA RESULT:      -8.5      7.906     12.576
REMARK  Name = 
REMARK  8 active torsions:
REMARK  status: ('A' for Active; 'I' for Inactive)
REMARK    1  A    between atoms: N_1  and  C_2
REMARK    2  A    between atoms: C_7  and  C_8
REMARK    3  A    between atoms: C_11  and  C_12
REMARK    4  A    between atoms: C_12  and  N_13
REMARK    5  A    between atoms: N_13  and  C_14
REMARK    6  A    between atoms: N_17  and  C_18
REMARK    7  A    between atoms: C_21  and  N_22
REMARK    8  A    between atoms: N_30  and  C_31
REMARK                            x       y       z     vdW  Elec       q    Type
REMARK                         _______ _______ _______ _____ _____    ______ ____
ROOT
ATOM      1  C   UNL     1      -0.510  11.267  18.583  0.00  0.00    +0.000 A 
ATOM      2  N   UNL     1      -0.110  12.349  19.307  0.00  0.00    +0.000 NA
ATOM      3  C   UNL     1      -1.027  13.196  19.813  0.00  0.00    +0.000 A 
ATOM      4  N   UNL     1      -0.616  14.277  20.588  0.00  0.00    +0.000 N 
ATOM      5  N   UNL     1      -2.356  13.115  19.639  0.00  0.00    +0.000 NA
ATOM      6  C   UNL     1      -2.727  12.043  18.923  0.00  0.00    +0.000 A 
ATOM      7  C   UNL     1      -1.888  11.090  18.386  0.00  0.00    +0.000 A 
ATOM      8  N   UNL     1      -2.614  10.139  17.699  0.00  0.00    +0.000 NA
ATOM      9  C   UNL     1      -3.862  10.501  17.814  0.00  0.00    +0.000 A 
ATOM     10  N   UNL     1      -3.987  11.653  18.542  0.00  0.00    +0.000 N 
ATOM     11  H   UNL     1      -1.382  14.938  20.562  0.00  0.00    +0.000 HD
ENDROOT
BRANCH   4  12
ATOM     12  C   UNL     1       0.719  14.820  20.376  0.00  0.00    +0.000 C 
ATOM     13  C   UNL     1       0.617  15.921  19.299  0.00  0.00    +0.000 C 
ATOM     14  C   UNL     1       1.935  16.666  19.094  0.00  0.00    +0.000 C 
ATOM     15  C   UNL     1       2.446  17.255  20.410  0.00  0.00    +0.000 C 
ATOM     16  C   UNL     1       2.596  16.158  21.467  0.00  0.00    +0.000 C 
ATOM     17  C   UNL     1       1.277  15.412  21.683  0.00  0.00    +0.000 C 
BRANCH  15  18
ATOM     18  N   UNL     1       3.719  17.936  20.183  0.00  0.00    +0.000 NA
ATOM     19  H   UNL     1       4.491  17.277  20.274  0.00  0.00    +0.000 HD
ATOM     20  H   UNL     1       3.864  18.640  20.905  0.00  0.00    +0.000 HD
ENDBRANCH  15  18
ENDBRANCH   4  12
BRANCH  10  21
ATOM     21  C   UNL     1      -5.243  12.306  18.794  0.00  0.00    +0.000 C 
ATOM     22  C   UNL     1      -6.139  12.456  17.571  0.00  0.00    +0.000 C 
ATOM     23  C   UNL     1      -7.497  12.787  18.171  0.00  0.00    +0.000 C 
ATOM     24  C   UNL     1      -7.533  12.118  19.545  0.00  0.00    +0.000 C 
ATOM     25  C   UNL     1      -6.123  11.608  19.826  0.00  0.00    +0.000 C 
ENDBRANCH  10  21
BRANCH   1  26
ATOM     26  N   UNL     1       0.488  10.429  18.073  0.00  0.00    +0.000 N 
ATOM     27  H   UNL     1       0.048   9.646  17.603  0.00  0.00    +0.000 HD
BRANCH  26  28
ATOM     28  C   UNL     1       1.510  10.073  19.047  0.00  0.00    +0.000 C 
BRANCH  28  32
ATOM     29  C   UNL     1       2.498   5.855  18.909  0.00  0.00    +0.000 A 
ATOM     30  C   UNL     1       2.565   6.660  17.758  0.00  0.00    +0.000 A 
ATOM     31  C   UNL     1       2.250   8.019  17.800  0.00  0.00    +0.000 A 
ATOM     32  C   UNL     1       1.811   8.605  18.992  0.00  0.00    +0.000 A 
ATOM     33  C   UNL     1       1.766   7.836  20.150  0.00  0.00    +0.000 A 
ATOM     34  C   UNL     1       2.145   6.496  20.111  0.00  0.00    +0.000 A 
BRANCH  29  40
ATOM     35  C   UNL     1       4.096   3.852  19.082  0.00  0.00    +0.000 A 
ATOM     36  C   UNL     1       4.312   2.475  18.898  0.00  0.00    +0.000 A 
ATOM     37  C   UNL     1       3.258   1.604  18.644  0.00  0.00    +0.000 A 
ATOM     38  C   UNL     1       1.971   2.104  18.519  0.00  0.00    +0.000 A 
ATOM     39  C   UNL     1       1.751   3.480  18.609  0.00  0.00    +0.000 A 
ATOM     40  C   UNL     1       2.799   4.397  18.864  0.00  0.00    +0.000 A 
BRANCH  35  41
ATOM     41  N   UNL     1       5.240   4.650  19.300  0.00  0.00    +0.000 N 
ATOM     42  H   UNL     1       6.117   4.156  19.182  0.00  0.00    +0.000 HD
ATOM     43  H   UNL     1       5.202   5.136  20.194  0.00  0.00    +0.000 HD
ENDBRANCH  35  41
ENDBRANCH  29  40
ENDBRANCH  28  32
ENDBRANCH  26  28
ENDBRANCH   1  26
TORSDOF 8
ENDMDL
MODEL 7
REMARK VINA RESULT:      -8.4      8.330     12.153
REMARK  Name = 
REMARK  8 active torsions:
REMARK  status: ('A' for Active; 'I' for Inactive)
REMARK    1  A    between atoms: N_1  and  C_2
REMARK    2  A    between atoms: C_7  and  C_8
REMARK    3  A    between atoms: C_11  and  C_12
REMARK    4  A    between atoms: C_12  and  N_13
REMARK    5  A    between atoms: N_13  and  C_14
REMARK    6  A    between atoms: N_17  and  C_18
REMARK    7  A    between atoms: C_21  and  N_22
REMARK    8  A    between atoms: N_30  and  C_31
REMARK                            x       y       z     vdW  Elec       q    Type
REMARK                         _______ _______ _______ _____ _____    ______ ____
ROOT
ATOM      1  C   UNL     1      -0.552  11.779  19.298  0.00  0.00    +0.000 A 
ATOM      2  N   UNL     1      -1.728  12.242  19.805  0.00  0.00    +0.000 NA
ATOM      3  C   UNL     1      -1.896  13.563  20.015  0.00  0.00    +0.000 A 
ATOM      4  N   UNL     1      -3.114  14.036  20.493  0.00  0.00    +0.000 N 
ATOM      5  N   UNL     1      -0.974  14.516  19.812  0.00  0.00    +0.000 NA
ATOM      6  C   UNL     1       0.176  14.038  19.313  0.00  0.00    +0.000 A 
ATOM      7  C   UNL     1       0.454  12.719  19.024  0.00  0.00    +0.000 A 
ATOM      8  N   UNL     1       1.740  12.590  18.541  0.00  0.00    +0.000 NA
ATOM      9  C   UNL     1       2.233  13.798  18.535  0.00  0.00    +0.000 A 
ATOM     10  N   UNL     1       1.329  14.714  19.000  0.00  0.00    +0.000 N 
ATOM     11  H   UNL     1      -2.916  14.944  20.893  0.00  0.00    +0.000 HD
ENDROOT
BRANCH   4  12
ATOM     12  C   UNL     1      -3.947  13.143  21.288  0.00  0.00    +0.000 C 
ATOM     13  C   UNL     1      -3.952  13.668  22.739  0.00  0.00    +0.000 C 
ATOM     14  C   UNL     1      -4.912  12.892  23.641  0.00  0.00    +0.000 C 
ATOM     15  C   UNL     1      -6.331  12.895  23.068  0.00  0.00    +0.000 C 
ATOM     16  C   UNL     1      -6.337  12.329  21.646  0.00  0.00    +0.000 C 
ATOM     17  C   UNL     1      -5.384  13.107  20.735  0.00  0.00    +0.000 C 
BRANCH  15  18
ATOM     18  N   UNL     1      -7.214  12.124  23.940  0.00  0.00    +0.000 NA
ATOM     19  H   UNL     1      -6.803  11.213  24.139  0.00  0.00    +0.000 HD
ATOM     20  H   UNL     1      -8.092  11.935  23.457  0.00  0.00    +0.000 HD
ENDBRANCH  15  18
ENDBRANCH   4  12
BRANCH  10  21
ATOM     21  C   UNL     1       1.615  16.116  19.143  0.00  0.00    +0.000 C 
ATOM     22  C   UNL     1       0.683  17.038  18.369  0.00  0.00    +0.000 C 
ATOM     23  C   UNL     1       0.940  18.401  18.995  0.00  0.00    +0.000 C 
ATOM     24  C   UNL     1       1.351  18.137  20.444  0.00  0.00    +0.000 C 
ATOM     25  C   UNL     1       1.555  16.630  20.578  0.00  0.00    +0.000 C 
ENDBRANCH  10  21
BRANCH   1  26
ATOM     26  N   UNL     1      -0.430  10.397  19.112  0.00  0.00    +0.000 N 
ATOM     27  H   UNL     1      -1.354  10.001  18.991  0.00  0.00    +0.000 HD
BRANCH  26  28
ATOM     28  C   UNL     1       0.401   9.741  20.113  0.00  0.00    +0.000 C 
BRANCH  28  32
ATOM     29  C   UNL     1       3.133   6.972  18.202  0.00  0.00    +0.000 A 
ATOM     30  C   UNL     1       2.720   6.790  19.533  0.00  0.00    +0.000 A 
ATOM     31  C   UNL     1       1.837   7.679  20.150  0.00  0.00    +0.000 A 
ATOM     32  C   UNL     1       1.379   8.808  19.464  0.00  0.00    +0.000 A 
ATOM     33  C   UNL     1       1.749   8.993  18.136  0.00  0.00    +0.000 A 
ATOM     34  C   UNL     1       2.577   8.065  17.509  0.00  0.00    +0.000 A 
BRANCH  29  40
ATOM     35  C   UNL     1       3.804   4.692  17.228  0.00  0.00    +0.000 A 
ATOM     36  C   UNL     1       4.818   3.858  16.726  0.00  0.00    +0.000 A 
ATOM     37  C   UNL     1       6.073   4.360  16.399  0.00  0.00    +0.000 A 
ATOM     38  C   UNL     1       6.353   5.700  16.617  0.00  0.00    +0.000 A 
ATOM     39  C   UNL     1       5.387   6.523  17.200  0.00  0.00    +0.000 A 
ATOM     40  C   UNL     1       4.100   6.047  17.548  0.00  0.00    +0.000 A 
BRANCH  35  41
ATOM     41  N   UNL     1       2.578   4.073  17.560  0.00  0.00    +0.000 N 
ATOM     42  H   UNL     1       1.800   4.356  16.975  0.00  0.00    +0.000 HD
ATOM     43  H   UNL     1       2.357   4.171  18.548  0.00  0.00    +0.000 HD
ENDBRANCH  35  41
ENDBRANCH  29  40
ENDBRANCH  28  32
ENDBRANCH  26  28
ENDBRANCH   1  26
TORSDOF 8
ENDMDL
MODEL 8
REMARK VINA RESULT:      -8.3      8.868     13.074
REMARK  Name = 
REMARK  8 active torsions:
REMARK  status: ('A' for Active; 'I' for Inactive)
REMARK    1  A    between atoms: N_1  and  C_2
REMARK    2  A    between atoms: C_7  and  C_8
REMARK    3  A    between atoms: C_11  and  C_12
REMARK    4  A    between atoms: C_12  and  N_13
REMARK    5  A    between atoms: N_13  and  C_14
REMARK    6  A    between atoms: N_17  and  C_18
REMARK    7  A    between atoms: C_21  and  N_22
REMARK    8  A    between atoms: N_30  and  C_31
REMARK                            x       y       z     vdW  Elec       q    Type
REMARK                         _______ _______ _______ _____ _____    ______ ____
ROOT
ATOM      1  C   UNL     1      -1.249  11.937  21.112  0.00  0.00    +0.000 A 
ATOM      2  N   UNL     1      -2.026  11.880  19.995  0.00  0.00    +0.000 NA
ATOM      3  C   UNL     1      -3.255  12.433  20.002  0.00  0.00    +0.000 A 
ATOM      4  N   UNL     1      -4.029  12.409  18.845  0.00  0.00    +0.000 N 
ATOM      5  N   UNL     1      -3.847  13.025  21.051  0.00  0.00    +0.000 NA
ATOM      6  C   UNL     1      -3.064  13.071  22.139  0.00  0.00    +0.000 A 
ATOM      7  C   UNL     1      -1.782  12.573  22.244  0.00  0.00    +0.000 A 
ATOM      8  N   UNL     1      -1.286  12.781  23.514  0.00  0.00    +0.000 NA
ATOM      9  C   UNL     1      -2.237  13.388  24.167  0.00  0.00    +0.000 A 
ATOM     10  N   UNL     1      -3.342  13.583  23.382  0.00  0.00    +0.000 N 
ATOM     11  H   UNL     1      -4.984  12.545  19.153  0.00  0.00    +0.000 HD
ENDROOT
BRANCH   4  12
ATOM     12  C   UNL     1      -3.804  11.345  17.876  0.00  0.00    +0.000 C 
ATOM     13  C   UNL     1      -4.607  11.687  16.603  0.00  0.00    +0.000 C 
ATOM     14  C   UNL     1      -4.336  10.712  15.458  0.00  0.00    +0.000 C 
ATOM     15  C   UNL     1      -2.841  10.638  15.140  0.00  0.00    +0.000 C 
ATOM     16  C   UNL     1      -2.045  10.251  16.389  0.00  0.00    +0.000 C 
ATOM     17  C   UNL     1      -2.306  11.228  17.538  0.00  0.00    +0.000 C 
BRANCH  15  18
ATOM     18  N   UNL     1      -2.616   9.679  14.061  0.00  0.00    +0.000 NA
ATOM     19  H   UNL     1      -2.541  10.166  13.168  0.00  0.00    +0.000 HD
ATOM     20  H   UNL     1      -3.423   9.061  13.977  0.00  0.00    +0.000 HD
ENDBRANCH  15  18
ENDBRANCH   4  12
BRANCH  10  21
ATOM     21  C   UNL     1      -4.557  14.191  23.851  0.00  0.00    +0.000 C 
ATOM     22  C   UNL     1      -5.020  15.396  23.043  0.00  0.00    +0.000 C 
ATOM     23  C   UNL     1      -6.466  15.577  23.483  0.00  0.00    +0.000 C 
ATOM     24  C   UNL     1      -6.975  14.188  23.866  0.00  0.00    +0.000 C 
ATOM     25  C   UNL     1      -5.765  13.259  23.870  0.00  0.00    +0.000 C 
ENDBRANCH  10  21
BRANCH   1  26
ATOM     26  N   UNL     1       0.013  11.336  21.051  0.00  0.00    +0.000 N 
ATOM     27  H   UNL     1       0.577  11.680  21.818  0.00  0.00    +0.000 HD
BRANCH  26  28
ATOM     28  C   UNL     1       0.637  11.415  19.737  0.00  0.00    +0.000 C 
BRANCH  28  32
ATOM     29  C   UNL     1       2.195   7.561  18.508  0.00  0.00    +0.000 A 
ATOM     30  C   UNL     1       2.097   8.633  17.604  0.00  0.00    +0.000 A 
ATOM     31  C   UNL     1       1.598   9.876  17.997  0.00  0.00    +0.000 A 
ATOM     32  C   UNL     1       1.136  10.069  19.303  0.00  0.00    +0.000 A 
ATOM     33  C   UNL     1       1.251   9.034  20.224  0.00  0.00    +0.000 A 
ATOM     34  C   UNL     1       1.810   7.818  19.839  0.00  0.00    +0.000 A 
BRANCH  29  40
ATOM     35  C   UNL     1       4.023   5.981  17.640  0.00  0.00    +0.000 A 
ATOM     36  C   UNL     1       4.370   4.711  17.144  0.00  0.00    +0.000 A 
ATOM     37  C   UNL     1       3.485   3.641  17.211  0.00  0.00    +0.000 A 
ATOM     38  C   UNL     1       2.214   3.834  17.729  0.00  0.00    +0.000 A 
ATOM     39  C   UNL     1       1.821   5.109  18.142  0.00  0.00    +0.000 A 
ATOM     40  C   UNL     1       2.694   6.223  18.087  0.00  0.00    +0.000 A 
BRANCH  35  41
ATOM     41  N   UNL     1       4.984   7.005  17.491  0.00  0.00    +0.000 N 
ATOM     42  H   UNL     1       5.942   6.692  17.600  0.00  0.00    +0.000 HD
ATOM     43  H   UNL     1       4.783   7.806  18.085  0.00  0.00    +0.000 HD
ENDBRANCH  35  41
ENDBRANCH  29  40
ENDBRANCH  28  32
ENDBRANCH  26  28
ENDBRANCH   1  26
TORSDOF 8
ENDMDL
MODEL 9
REMARK VINA RESULT:      -8.3      8.353     12.480
REMARK  Name = 
REMARK  8 active torsions:
REMARK  status: ('A' for Active; 'I' for Inactive)
REMARK    1  A    between atoms: N_1  and  C_2
REMARK    2  A    between atoms: C_7  and  C_8
REMARK    3  A    between atoms: C_11  and  C_12
REMARK    4  A    between atoms: C_12  and  N_13
REMARK    5  A    between atoms: N_13  and  C_14
REMARK    6  A    between atoms: N_17  and  C_18
REMARK    7  A    between atoms: C_21  and  N_22
REMARK    8  A    between atoms: N_30  and  C_31
REMARK                            x       y       z     vdW  Elec       q    Type
REMARK                         _______ _______ _______ _____ _____    ______ ____
ROOT
ATOM      1  C   UNL     1      -0.700  11.475  18.591  0.00  0.00    +0.000 A 
ATOM      2  N   UNL     1      -0.758  12.510  19.474  0.00  0.00    +0.000 NA
ATOM      3  C   UNL     1      -1.954  12.997  19.861  0.00  0.00    +0.000 A 
ATOM      4  N   UNL     1      -2.010  14.026  20.796  0.00  0.00    +0.000 N 
ATOM      5  N   UNL     1      -3.153  12.585  19.419  0.00  0.00    +0.000 NA
ATOM      6  C   UNL     1      -3.071  11.566  18.551  0.00  0.00    +0.000 A 
ATOM      7  C   UNL     1      -1.913  10.962  18.108  0.00  0.00    +0.000 A 
ATOM      8  N   UNL     1      -2.206   9.959  17.208  0.00  0.00    +0.000 NA
ATOM      9  C   UNL     1      -3.506   9.950  17.104  0.00  0.00    +0.000 A 
ATOM     10  N   UNL     1      -4.081  10.909  17.893  0.00  0.00    +0.000 N 
ATOM     11  H   UNL     1      -2.921  14.453  20.678  0.00  0.00    +0.000 HD
ENDROOT
BRANCH   4  12
ATOM     12  C   UNL     1      -0.877  14.935  20.904  0.00  0.00    +0.000 C 
ATOM     13  C   UNL     1      -1.426  16.376  20.934  0.00  0.00    +0.000 C 
ATOM     14  C   UNL     1      -0.336  17.416  21.190  0.00  0.00    +0.000 C 
ATOM     15  C   UNL     1       0.425  17.109  22.481  0.00  0.00    +0.000 C 
ATOM     16  C   UNL     1       1.015  15.697  22.435  0.00  0.00    +0.000 C 
ATOM     17  C   UNL     1      -0.074  14.650  22.186  0.00  0.00    +0.000 C 
BRANCH  15  18
ATOM     18  N   UNL     1       1.476  18.105  22.681  0.00  0.00    +0.000 NA
ATOM     19  H   UNL     1       2.373  17.738  22.366  0.00  0.00    +0.000 HD
ATOM     20  H   UNL     1       1.584  18.293  23.677  0.00  0.00    +0.000 HD
ENDBRANCH  15  18
ENDBRANCH   4  12
BRANCH  10  21
ATOM     21  C   UNL     1      -5.497  11.155  17.947  0.00  0.00    +0.000 C 
ATOM     22  C   UNL     1      -6.063  11.310  19.352  0.00  0.00    +0.000 C 
ATOM     23  C   UNL     1      -7.428  11.939  19.111  0.00  0.00    +0.000 C 
ATOM     24  C   UNL     1      -7.302  12.759  17.827  0.00  0.00    +0.000 C 
ATOM     25  C   UNL     1      -5.948  12.414  17.213  0.00  0.00    +0.000 C 
ENDBRANCH  10  21
BRANCH   1  26
ATOM     26  N   UNL     1       0.569  11.019  18.216  0.00  0.00    +0.000 N 
ATOM     27  H   UNL     1       0.470  10.385  17.433  0.00  0.00    +0.000 HD
BRANCH  26  28
ATOM     28  C   UNL     1       1.362  10.514  19.328  0.00  0.00    +0.000 C 
BRANCH  28  32
ATOM     29  C   UNL     1       2.455   6.355  18.778  0.00  0.00    +0.000 A 
ATOM     30  C   UNL     1       2.554   7.283  17.726  0.00  0.00    +0.000 A 
ATOM     31  C   UNL     1       2.206   8.624  17.902  0.00  0.00    +0.000 A 
ATOM     32  C   UNL     1       1.700   9.067  19.128  0.00  0.00    +0.000 A 
ATOM     33  C   UNL     1       1.622   8.174  20.192  0.00  0.00    +0.000 A 
ATOM     34  C   UNL     1       2.033   6.854  20.026  0.00  0.00    +0.000 A 
BRANCH  29  40
ATOM     35  C   UNL     1       4.066   4.359  18.893  0.00  0.00    +0.000 A 
ATOM     36  C   UNL     1       4.333   3.018  18.566  0.00  0.00    +0.000 A 
ATOM     37  C   UNL     1       3.336   2.178  18.080  0.00  0.00    +0.000 A 
ATOM     38  C   UNL     1       2.063   2.680  17.864  0.00  0.00    +0.000 A 
ATOM     39  C   UNL     1       1.802   4.032  18.098  0.00  0.00    +0.000 A 
ATOM     40  C   UNL     1       2.792   4.918  18.589  0.00  0.00    +0.000 A 
BRANCH  35  41
ATOM     41  N   UNL     1       5.158   5.132  19.344  0.00  0.00    +0.000 N 
ATOM     42  H   UNL     1       5.052   5.485  20.289  0.00  0.00    +0.000 HD
ATOM     43  H   UNL     1       5.393   5.877  18.692  0.00  0.00    +0.000 HD
ENDBRANCH  35  41
ENDBRANCH  29  40
ENDBRANCH  28  32
ENDBRANCH  26  28
ENDBRANCH   1  26
TORSDOF 8
ENDMDL
