MODEL 1
REMARK VINA RESULT:      -8.3      0.000      0.000
REMARK  Name = 
REMARK  7 active torsions:
REMARK  status: ('A' for Active; 'I' for Inactive)
REMARK    1  A    between atoms: C_1  and  N_2
REMARK    2  A    between atoms: N_2  and  C_3
REMARK    3  A    between atoms: N_2  and  C_4
REMARK    4  A    between atoms: C_4  and  C_5
REMARK    5  A    between atoms: C_5  and  C_6
REMARK    6  A    between atoms: C_9  and  C_10
REMARK    7  A    between atoms: C_15  and  C_16
REMARK                            x       y       z     vdW  Elec       q    Type
REMARK                         _______ _______ _______ _____ _____    ______ ____
ROOT
ATOM      1  C   UNL     1       1.668   8.787  19.197  0.00  0.00    +0.000 A 
ATOM      2  C   UNL     1       2.473   9.154  18.114  0.00  0.00    +0.000 A 
ATOM      3  C   UNL     1       3.207   8.191  17.427  0.00  0.00    +0.000 A 
ATOM      4  C   UNL     1       3.136   6.857  17.815  0.00  0.00    +0.000 A 
ATOM      5  F   UNL     1       3.865   5.975  17.117  0.00  0.00    +0.000 F 
ATOM      6  C   UNL     1       2.335   6.429  18.886  0.00  0.00    +0.000 A 
ATOM      7  C   UNL     1       1.600   7.426  19.559  0.00  0.00    +0.000 A 
ENDROOT
BRANCH   6   8
ATOM      8  C   UNL     1       2.273   4.948  19.291  0.00  0.00    +0.000 C 
ATOM      9  C   UNL     1       1.715   4.082  18.122  0.00  0.00    +0.000 C 
ATOM     10  C   UNL     1       1.612   2.600  18.527  0.00  0.00    +0.000 C 
ATOM     11  C   UNL     1       3.007   2.076  18.891  0.00  0.00    +0.000 C 
ATOM     12  C   UNL     1       3.573   2.876  20.071  0.00  0.00    +0.000 C 
ATOM     13  C   UNL     1       2.642   2.746  21.285  0.00  0.00    +0.000 C 
ATOM     14  C   UNL     1       1.246   3.276  20.928  0.00  0.00    +0.000 C 
ATOM     15  C   UNL     1       0.685   2.469  19.746  0.00  0.00    +0.000 C 
ATOM     16  C   UNL     1       1.347   4.759  20.530  0.00  0.00    +0.000 C 
ATOM     17  C   UNL     1       3.667   4.356  19.671  0.00  0.00    +0.000 C 
ENDBRANCH   6   8
BRANCH   1  21
ATOM     18  C   UNL     1      -0.320  10.688  21.580  0.00  0.00    +0.000 A 
ATOM     19  C   UNL     1      -0.260  11.770  20.725  0.00  0.00    +0.000 A 
ATOM     20  S   UNL     1       0.645  11.373  19.336  0.00  0.00    +0.000 S 
ATOM     21  C   UNL     1       0.885   9.777  19.950  0.00  0.00    +0.000 A 
ATOM     22  N   UNL     1       0.350   9.560  21.137  0.00  0.00    +0.000 NA
BRANCH  18  23
ATOM     23  C   UNL     1      -1.015  10.644  22.899  0.00  0.00    +0.000 C 
BRANCH  23  24
ATOM     24  C   UNL     1      -1.707  11.981  23.204  0.00  0.00    +0.000 C 
BRANCH  24  26
ATOM     25  C   UNL     1      -3.785  12.492  24.293  0.00  0.00    +0.000 C 
ATOM     26  N   UNL     1      -3.177  11.961  23.068  0.00  0.00    +0.000 NA
ATOM     27  C   UNL     1      -3.643  12.731  21.914  0.00  0.00    +0.000 C 
ENDBRANCH  24  26
ENDBRANCH  23  24
ENDBRANCH  18  23
ENDBRANCH   1  21
TORSDOF 5
ENDMDL
MODEL 2
REMARK VINA RESULT:      -8.2      2.159      2.778
REMARK  Name = 
REMARK  7 active torsions:
REMARK  status: ('A' for Active; 'I' for Inactive)
REMARK    1  A    between atoms: C_1  and  N_2
REMARK    2  A    between atoms: N_2  and  C_3
REMARK    3  A    between atoms: N_2  and  C_4
REMARK    4  A    between atoms: C_4  and  C_5
REMARK    5  A    between atoms: C_5  and  C_6
REMARK    6  A    between atoms: C_9  and  C_10
REMARK    7  A    between atoms: C_15  and  C_16
REMARK                            x       y       z     vdW  Elec       q    Type
REMARK                         _______ _______ _______ _____ _____    ______ ____
ROOT
ATOM      1  C   UNL     1       1.725   8.546  18.855  0.00  0.00    +0.000 A 
ATOM      2  C   UNL     1       2.676   8.929  17.904  0.00  0.00    +0.000 A 
ATOM      3  C   UNL     1       3.536   7.985  17.350  0.00  0.00    +0.000 A 
ATOM      4  C   UNL     1       3.446   6.653  17.740  0.00  0.00    +0.000 A 
ATOM      5  F   UNL     1       4.300   5.788  17.175  0.00  0.00    +0.000 F 
ATOM      6  C   UNL     1       2.503   6.208  18.682  0.00  0.00    +0.000 A 
ATOM      7  C   UNL     1       1.644   7.186  19.221  0.00  0.00    +0.000 A 
ENDROOT
BRANCH   6   8
ATOM      8  C   UNL     1       2.424   4.729  19.092  0.00  0.00    +0.000 C 
ATOM      9  C   UNL     1       2.033   3.842  17.873  0.00  0.00    +0.000 C 
ATOM     10  C   UNL     1       1.914   2.361  18.278  0.00  0.00    +0.000 C 
ATOM     11  C   UNL     1       3.265   1.872  18.816  0.00  0.00    +0.000 C 
ATOM     12  C   UNL     1       3.664   2.695  20.048  0.00  0.00    +0.000 C 
ATOM     13  C   UNL     1       2.594   2.553  21.140  0.00  0.00    +0.000 C 
ATOM     14  C   UNL     1       1.242   3.047  20.609  0.00  0.00    +0.000 C 
ATOM     15  C   UNL     1       0.848   2.218  19.376  0.00  0.00    +0.000 C 
ATOM     16  C   UNL     1       1.357   4.529  20.210  0.00  0.00    +0.000 C 
ATOM     17  C   UNL     1       3.774   4.173  19.647  0.00  0.00    +0.000 C 
ENDBRANCH   6   8
BRANCH   1  21
ATOM     18  C   UNL     1      -0.829  11.009  19.666  0.00  0.00    +0.000 A 
ATOM     19  C   UNL     1      -0.429  10.949  20.986  0.00  0.00    +0.000 A 
ATOM     20  S   UNL     1       0.851   9.836  21.163  0.00  0.00    +0.000 S 
ATOM     21  C   UNL     1       0.806   9.517  19.466  0.00  0.00    +0.000 A 
ATOM     22  N   UNL     1      -0.129  10.176  18.809  0.00  0.00    +0.000 NA
BRANCH  18  23
ATOM     23  C   UNL     1      -1.921  11.860  19.114  0.00  0.00    +0.000 C 
BRANCH  23  24
ATOM     24  C   UNL     1      -1.949  11.799  17.579  0.00  0.00    +0.000 C 
BRANCH  24  26
ATOM     25  C   UNL     1      -2.986  10.941  15.591  0.00  0.00    +0.000 C 
ATOM     26  N   UNL     1      -3.203  11.272  17.004  0.00  0.00    +0.000 NA
ATOM     27  C   UNL     1      -3.691  10.090  17.717  0.00  0.00    +0.000 C 
ENDBRANCH  24  26
ENDBRANCH  23  24
ENDBRANCH  18  23
ENDBRANCH   1  21
TORSDOF 5
ENDMDL
MODEL 3
REMARK VINA RESULT:      -8.2      0.201      1.469
REMARK  Name = 
REMARK  7 active torsions:
REMARK  status: ('A' for Active; 'I' for Inactive)
REMARK    1  A    between atoms: C_1  and  N_2
REMARK    2  A    between atoms: N_2  and  C_3
REMARK    3  A    between atoms: N_2  and  C_4
REMARK    4  A    between atoms: C_4  and  C_5
REMARK    5  A    between atoms: C_5  and  C_6
REMARK    6  A    between atoms: C_9  and  C_10
REMARK    7  A    between atoms: C_15  and  C_16
REMARK                            x       y       z     vdW  Elec       q    Type
REMARK                         _______ _______ _______ _____ _____    ______ ____
ROOT
ATOM      1  C   UNL     1       1.672   8.884  19.352  0.00  0.00    +0.000 A 
ATOM      2  C   UNL     1       2.436   9.263  18.244  0.00  0.00    +0.000 A 
ATOM      3  C   UNL     1       3.122   8.305  17.502  0.00  0.00    +0.000 A 
ATOM      4  C   UNL     1       3.042   6.963  17.860  0.00  0.00    +0.000 A 
ATOM      5  F   UNL     1       3.724   6.086  17.111  0.00  0.00    +0.000 F 
ATOM      6  C   UNL     1       2.280   6.523  18.955  0.00  0.00    +0.000 A 
ATOM      7  C   UNL     1       1.594   7.515  19.683  0.00  0.00    +0.000 A 
ENDROOT
BRANCH   6   8
ATOM      8  C   UNL     1       2.207   5.033  19.327  0.00  0.00    +0.000 C 
ATOM      9  C   UNL     1       1.290   4.821  20.567  0.00  0.00    +0.000 C 
ATOM     10  C   UNL     1       1.238   3.336  20.973  0.00  0.00    +0.000 C 
ATOM     11  C   UNL     1       0.673   2.512  19.809  0.00  0.00    +0.000 C 
ATOM     12  C   UNL     1       1.577   2.659  18.578  0.00  0.00    +0.000 C 
ATOM     13  C   UNL     1       2.995   2.176  18.911  0.00  0.00    +0.000 C 
ATOM     14  C   UNL     1       3.568   3.003  20.070  0.00  0.00    +0.000 C 
ATOM     15  C   UNL     1       2.658   2.848  21.300  0.00  0.00    +0.000 C 
ATOM     16  C   UNL     1       3.627   4.485  19.663  0.00  0.00    +0.000 C 
ATOM     17  C   UNL     1       1.636   4.141  18.179  0.00  0.00    +0.000 C 
ENDBRANCH   6   8
BRANCH   1  21
ATOM     18  C   UNL     1      -0.318  10.721  21.782  0.00  0.00    +0.000 A 
ATOM     19  C   UNL     1      -0.019  11.887  21.105  0.00  0.00    +0.000 A 
ATOM     20  S   UNL     1       0.983  11.550  19.768  0.00  0.00    +0.000 S 
ATOM     21  C   UNL     1       0.941   9.868  20.162  0.00  0.00    +0.000 A 
ATOM     22  N   UNL     1       0.248   9.577  21.245  0.00  0.00    +0.000 NA
BRANCH  18  23
ATOM     23  C   UNL     1      -1.161  10.605  23.006  0.00  0.00    +0.000 C 
BRANCH  23  24
ATOM     24  C   UNL     1      -1.820  11.949  23.355  0.00  0.00    +0.000 C 
BRANCH  24  26
ATOM     25  C   UNL     1      -3.940  12.520  24.325  0.00  0.00    +0.000 C 
ATOM     26  N   UNL     1      -3.277  12.002  23.123  0.00  0.00    +0.000 NA
ATOM     27  C   UNL     1      -3.630  12.831  21.969  0.00  0.00    +0.000 C 
ENDBRANCH  24  26
ENDBRANCH  23  24
ENDBRANCH  18  23
ENDBRANCH   1  21
TORSDOF 5
ENDMDL
MODEL 4
REMARK VINA RESULT:      -8.2      0.125      1.460
REMARK  Name = 
REMARK  7 active torsions:
REMARK  status: ('A' for Active; 'I' for Inactive)
REMARK    1  A    between atoms: C_1  and  N_2
REMARK    2  A    between atoms: N_2  and  C_3
REMARK    3  A    between atoms: N_2  and  C_4
REMARK    4  A    between atoms: C_4  and  C_5
REMARK    5  A    between atoms: C_5  and  C_6
REMARK    6  A    between atoms: C_9  and  C_10
REMARK    7  A    between atoms: C_15  and  C_16
REMARK                            x       y       z     vdW  Elec       q    Type
REMARK                         _______ _______ _______ _____ _____    ______ ____
ROOT
ATOM      1  C   UNL     1       1.707   8.804  19.129  0.00  0.00    +0.000 A 
ATOM      2  C   UNL     1       2.534   9.152  18.056  0.00  0.00    +0.000 A 
ATOM      3  C   UNL     1       3.263   8.174  17.384  0.00  0.00    +0.000 A 
ATOM      4  C   UNL     1       3.164   6.844  17.779  0.00  0.00    +0.000 A 
ATOM      5  F   UNL     1       3.890   5.946  17.097  0.00  0.00    +0.000 F 
ATOM      6  C   UNL     1       2.341   6.434  18.841  0.00  0.00    +0.000 A 
ATOM      7  C   UNL     1       1.613   7.446  19.498  0.00  0.00    +0.000 A 
ENDROOT
BRANCH   6   8
ATOM      8  C   UNL     1       2.249   4.956  19.253  0.00  0.00    +0.000 C 
ATOM      9  C   UNL     1       3.654   4.407  19.643  0.00  0.00    +0.000 C 
ATOM     10  C   UNL     1       3.583   2.917  20.022  0.00  0.00    +0.000 C 
ATOM     11  C   UNL     1       2.648   2.743  21.226  0.00  0.00    +0.000 C 
ATOM     12  C   UNL     1       1.239   3.233  20.866  0.00  0.00    +0.000 C 
ATOM     13  C   UNL     1       0.697   2.432  19.673  0.00  0.00    +0.000 C 
ATOM     14  C   UNL     1       1.625   2.608  18.464  0.00  0.00    +0.000 C 
ATOM     15  C   UNL     1       3.034   2.114  18.831  0.00  0.00    +0.000 C 
ATOM     16  C   UNL     1       1.691   4.096  18.080  0.00  0.00    +0.000 C 
ATOM     17  C   UNL     1       1.311   4.717  20.478  0.00  0.00    +0.000 C 
ENDBRANCH   6   8
BRANCH   1  21
ATOM     18  C   UNL     1      -0.260  10.760  21.484  0.00  0.00    +0.000 A 
ATOM     19  C   UNL     1      -0.214  11.820  20.601  0.00  0.00    +0.000 A 
ATOM     20  S   UNL     1       0.678  11.390  19.212  0.00  0.00    +0.000 S 
ATOM     21  C   UNL     1       0.929   9.811  19.865  0.00  0.00    +0.000 A 
ATOM     22  N   UNL     1       0.409   9.623  21.062  0.00  0.00    +0.000 NA
BRANCH  18  23
ATOM     23  C   UNL     1      -0.940  10.748  22.811  0.00  0.00    +0.000 C 
BRANCH  23  24
ATOM     24  C   UNL     1      -1.639  12.088  23.087  0.00  0.00    +0.000 C 
BRANCH  24  26
ATOM     25  C   UNL     1      -3.654  12.827  24.162  0.00  0.00    +0.000 C 
ATOM     26  N   UNL     1      -3.114  12.035  23.052  0.00  0.00    +0.000 NA
ATOM     27  C   UNL     1      -3.661  12.524  21.785  0.00  0.00    +0.000 C 
ENDBRANCH  24  26
ENDBRANCH  23  24
ENDBRANCH  18  23
ENDBRANCH   1  21
TORSDOF 5
ENDMDL
MODEL 5
REMARK VINA RESULT:      -8.2      1.964      2.844
REMARK  Name = 
REMARK  7 active torsions:
REMARK  status: ('A' for Active; 'I' for Inactive)
REMARK    1  A    between atoms: C_1  and  N_2
REMARK    2  A    between atoms: N_2  and  C_3
REMARK    3  A    between atoms: N_2  and  C_4
REMARK    4  A    between atoms: C_4  and  C_5
REMARK    5  A    between atoms: C_5  and  C_6
REMARK    6  A    between atoms: C_9  and  C_10
REMARK    7  A    between atoms: C_15  and  C_16
REMARK                            x       y       z     vdW  Elec       q    Type
REMARK                         _______ _______ _______ _____ _____    ______ ____
ROOT
ATOM      1  C   UNL     1       1.952   8.459  18.691  0.00  0.00    +0.000 A 
ATOM      2  C   UNL     1       2.937   8.792  17.756  0.00  0.00    +0.000 A 
ATOM      3  C   UNL     1       3.761   7.806  17.222  0.00  0.00    +0.000 A 
ATOM      4  C   UNL     1       3.602   6.481  17.615  0.00  0.00    +0.000 A 
ATOM      5  F   UNL     1       4.425   5.575  17.069  0.00  0.00    +0.000 F 
ATOM      6  C   UNL     1       2.622   6.086  18.541  0.00  0.00    +0.000 A 
ATOM      7  C   UNL     1       1.800   7.106  19.060  0.00  0.00    +0.000 A 
ENDROOT
BRANCH   6   8
ATOM      8  C   UNL     1       2.466   4.614  18.955  0.00  0.00    +0.000 C 
ATOM      9  C   UNL     1       1.304   4.452  19.979  0.00  0.00    +0.000 C 
ATOM     10  C   UNL     1       1.161   2.987  20.432  0.00  0.00    +0.000 C 
ATOM     11  C   UNL     1       0.855   2.107  19.213  0.00  0.00    +0.000 C 
ATOM     12  C   UNL     1       2.001   2.205  18.198  0.00  0.00    +0.000 C 
ATOM     13  C   UNL     1       3.314   1.745  18.847  0.00  0.00    +0.000 C 
ATOM     14  C   UNL     1       3.629   2.627  20.063  0.00  0.00    +0.000 C 
ATOM     15  C   UNL     1       2.477   2.523  21.076  0.00  0.00    +0.000 C 
ATOM     16  C   UNL     1       3.779   4.090  19.611  0.00  0.00    +0.000 C 
ATOM     17  C   UNL     1       2.150   3.668  17.754  0.00  0.00    +0.000 C 
ENDBRANCH   6   8
BRANCH   1  21
ATOM     18  C   UNL     1      -0.317  11.205  19.436  0.00  0.00    +0.000 A 
ATOM     19  C   UNL     1      -0.274  10.843  20.767  0.00  0.00    +0.000 A 
ATOM     20  S   UNL     1       0.735   9.485  20.976  0.00  0.00    +0.000 S 
ATOM     21  C   UNL     1       1.069   9.474  19.281  0.00  0.00    +0.000 A 
ATOM     22  N   UNL     1       0.439  10.408  18.593  0.00  0.00    +0.000 NA
BRANCH  18  23
ATOM     23  C   UNL     1      -1.093  12.338  18.855  0.00  0.00    +0.000 C 
BRANCH  23  24
ATOM     24  C   UNL     1      -2.036  11.850  17.744  0.00  0.00    +0.000 C 
BRANCH  24  26
ATOM     25  C   UNL     1      -4.400  11.595  18.071  0.00  0.00    +0.000 C 
ATOM     26  N   UNL     1      -3.099  10.930  18.194  0.00  0.00    +0.000 NA
ATOM     27  C   UNL     1      -3.111   9.677  17.437  0.00  0.00    +0.000 C 
ENDBRANCH  24  26
ENDBRANCH  23  24
ENDBRANCH  18  23
ENDBRANCH   1  21
TORSDOF 5
ENDMDL
MODEL 6
REMARK VINA RESULT:      -8.1      2.150      3.071
REMARK  Name = 
REMARK  7 active torsions:
REMARK  status: ('A' for Active; 'I' for Inactive)
REMARK    1  A    between atoms: C_1  and  N_2
REMARK    2  A    between atoms: N_2  and  C_3
REMARK    3  A    between atoms: N_2  and  C_4
REMARK    4  A    between atoms: C_4  and  C_5
REMARK    5  A    between atoms: C_5  and  C_6
REMARK    6  A    between atoms: C_9  and  C_10
REMARK    7  A    between atoms: C_15  and  C_16
REMARK                            x       y       z     vdW  Elec       q    Type
REMARK                         _______ _______ _______ _____ _____    ______ ____
ROOT
ATOM      1  C   UNL     1       1.847   8.507  18.600  0.00  0.00    +0.000 A 
ATOM      2  C   UNL     1       2.878   8.814  17.707  0.00  0.00    +0.000 A 
ATOM      3  C   UNL     1       3.745   7.819  17.265  0.00  0.00    +0.000 A 
ATOM      4  C   UNL     1       3.582   6.511  17.710  0.00  0.00    +0.000 A 
ATOM      5  F   UNL     1       4.447   5.595  17.252  0.00  0.00    +0.000 F 
ATOM      6  C   UNL     1       2.557   6.141  18.596  0.00  0.00    +0.000 A 
ATOM      7  C   UNL     1       1.693   7.170  19.022  0.00  0.00    +0.000 A 
ENDROOT
BRANCH   6   8
ATOM      8  C   UNL     1       2.399   4.687  19.068  0.00  0.00    +0.000 C 
ATOM      9  C   UNL     1       3.738   4.153  19.659  0.00  0.00    +0.000 C 
ATOM     10  C   UNL     1       3.605   2.685  20.102  0.00  0.00    +0.000 C 
ATOM     11  C   UNL     1       2.524   2.578  21.186  0.00  0.00    +0.000 C 
ATOM     12  C   UNL     1       1.177   3.053  20.627  0.00  0.00    +0.000 C 
ATOM     13  C   UNL     1       0.780   2.194  19.418  0.00  0.00    +0.000 C 
ATOM     14  C   UNL     1       1.854   2.304  18.328  0.00  0.00    +0.000 C 
ATOM     15  C   UNL     1       3.201   1.824  18.894  0.00  0.00    +0.000 C 
ATOM     16  C   UNL     1       1.984   3.770  17.879  0.00  0.00    +0.000 C 
ATOM     17  C   UNL     1       1.312   4.515  20.177  0.00  0.00    +0.000 C 
ENDBRANCH   6   8
BRANCH   1  21
ATOM     18  C   UNL     1      -0.603  11.154  19.085  0.00  0.00    +0.000 A 
ATOM     19  C   UNL     1      -0.440  11.017  20.449  0.00  0.00    +0.000 A 
ATOM     20  S   UNL     1       0.697   9.792  20.786  0.00  0.00    +0.000 S 
ATOM     21  C   UNL     1       0.917   9.533  19.093  0.00  0.00    +0.000 A 
ATOM     22  N   UNL     1       0.164  10.292  18.320  0.00  0.00    +0.000 NA
BRANCH  18  23
ATOM     23  C   UNL     1      -1.514  12.114  18.399  0.00  0.00    +0.000 C 
BRANCH  23  24
ATOM     24  C   UNL     1      -2.983  11.692  18.554  0.00  0.00    +0.000 C 
BRANCH  24  26
ATOM     25  C   UNL     1      -4.899  11.343  17.151  0.00  0.00    +0.000 C 
ATOM     26  N   UNL     1      -3.524  10.911  17.423  0.00  0.00    +0.000 NA
ATOM     27  C   UNL     1      -2.715  11.049  16.211  0.00  0.00    +0.000 C 
ENDBRANCH  24  26
ENDBRANCH  23  24
ENDBRANCH  18  23
ENDBRANCH   1  21
TORSDOF 5
ENDMDL
MODEL 7
REMARK VINA RESULT:      -8.0      2.372      3.236
REMARK  Name = 
REMARK  7 active torsions:
REMARK  status: ('A' for Active; 'I' for Inactive)
REMARK    1  A    between atoms: C_1  and  N_2
REMARK    2  A    between atoms: N_2  and  C_3
REMARK    3  A    between atoms: N_2  and  C_4
REMARK    4  A    between atoms: C_4  and  C_5
REMARK    5  A    between atoms: C_5  and  C_6
REMARK    6  A    between atoms: C_9  and  C_10
REMARK    7  A    between atoms: C_15  and  C_16
REMARK                            x       y       z     vdW  Elec       q    Type
REMARK                         _______ _______ _______ _____ _____    ______ ____
ROOT
ATOM      1  C   UNL     1       1.709   8.612  18.676  0.00  0.00    +0.000 A 
ATOM      2  C   UNL     1       2.734   8.973  17.796  0.00  0.00    +0.000 A 
ATOM      3  C   UNL     1       3.631   8.014  17.332  0.00  0.00    +0.000 A 
ATOM      4  C   UNL     1       3.504   6.691  17.740  0.00  0.00    +0.000 A 
ATOM      5  F   UNL     1       4.397   5.813  17.262  0.00  0.00    +0.000 F 
ATOM      6  C   UNL     1       2.487   6.269  18.612  0.00  0.00    +0.000 A 
ATOM      7  C   UNL     1       1.592   7.260  19.061  0.00  0.00    +0.000 A 
ENDROOT
BRANCH   6   8
ATOM      8  C   UNL     1       2.369   4.798  19.045  0.00  0.00    +0.000 C 
ATOM      9  C   UNL     1       1.345   4.648  20.208  0.00  0.00    +0.000 C 
ATOM     10  C   UNL     1       1.244   3.185  20.677  0.00  0.00    +0.000 C 
ATOM     11  C   UNL     1       0.776   2.309  19.507  0.00  0.00    +0.000 C 
ATOM     12  C   UNL     1       1.786   2.395  18.355  0.00  0.00    +0.000 C 
ATOM     13  C   UNL     1       3.166   1.921  18.833  0.00  0.00    +0.000 C 
ATOM     14  C   UNL     1       3.642   2.798  19.998  0.00  0.00    +0.000 C 
ATOM     15  C   UNL     1       2.626   2.706  21.149  0.00  0.00    +0.000 C 
ATOM     16  C   UNL     1       3.749   4.260  19.530  0.00  0.00    +0.000 C 
ATOM     17  C   UNL     1       1.893   3.856  17.894  0.00  0.00    +0.000 C 
ENDBRANCH   6   8
BRANCH   1  21
ATOM     18  C   UNL     1      -1.015  10.946  19.287  0.00  0.00    +0.000 A 
ATOM     19  C   UNL     1      -0.493  11.184  20.543  0.00  0.00    +0.000 A 
ATOM     20  S   UNL     1       0.911  10.247  20.783  0.00  0.00    +0.000 S 
ATOM     21  C   UNL     1       0.748   9.597  19.192  0.00  0.00    +0.000 A 
ATOM     22  N   UNL     1      -0.309  10.027  18.530  0.00  0.00    +0.000 NA
BRANCH  18  23
ATOM     23  C   UNL     1      -2.240  11.570  18.710  0.00  0.00    +0.000 C 
BRANCH  23  24
ATOM     24  C   UNL     1      -2.858  10.676  17.624  0.00  0.00    +0.000 C 
BRANCH  24  26
ATOM     25  C   UNL     1      -3.575  10.596  15.335  0.00  0.00    +0.000 C 
ATOM     26  N   UNL     1      -3.578  11.403  16.560  0.00  0.00    +0.000 NA
ATOM     27  C   UNL     1      -4.956  11.723  16.935  0.00  0.00    +0.000 C 
ENDBRANCH  24  26
ENDBRANCH  23  24
ENDBRANCH  18  23
ENDBRANCH   1  21
TORSDOF 5
ENDMDL
MODEL 8
REMARK VINA RESULT:      -8.0      1.134      1.973
REMARK  Name = 
REMARK  7 active torsions:
REMARK  status: ('A' for Active; 'I' for Inactive)
REMARK    1  A    between atoms: C_1  and  N_2
REMARK    2  A    between atoms: N_2  and  C_3
REMARK    3  A    between atoms: N_2  and  C_4
REMARK    4  A    between atoms: C_4  and  C_5
REMARK    5  A    between atoms: C_5  and  C_6
REMARK    6  A    between atoms: C_9  and  C_10
REMARK    7  A    between atoms: C_15  and  C_16
REMARK                            x       y       z     vdW  Elec       q    Type
REMARK                         _______ _______ _______ _____ _____    ______ ____
ROOT
ATOM      1  C   UNL     1       1.786   8.479  18.853  0.00  0.00    +0.000 A 
ATOM      2  C   UNL     1       2.730   8.873  17.900  0.00  0.00    +0.000 A 
ATOM      3  C   UNL     1       3.575   7.933  17.317  0.00  0.00    +0.000 A 
ATOM      4  C   UNL     1       3.475   6.594  17.679  0.00  0.00    +0.000 A 
ATOM      5  F   UNL     1       4.315   5.733  17.085  0.00  0.00    +0.000 F 
ATOM      6  C   UNL     1       2.537   6.138  18.620  0.00  0.00    +0.000 A 
ATOM      7  C   UNL     1       1.694   7.112  19.189  0.00  0.00    +0.000 A 
ENDROOT
BRANCH   6   8
ATOM      8  C   UNL     1       2.448   4.651  18.998  0.00  0.00    +0.000 C 
ATOM      9  C   UNL     1       1.346   4.424  20.075  0.00  0.00    +0.000 C 
ATOM     10  C   UNL     1       1.270   2.943  20.491  0.00  0.00    +0.000 C 
ATOM     11  C   UNL     1       0.927   2.089  19.264  0.00  0.00    +0.000 C 
ATOM     12  C   UNL     1       2.016   2.250  18.195  0.00  0.00    +0.000 C 
ATOM     13  C   UNL     1       3.374   1.814  18.762  0.00  0.00    +0.000 C 
ATOM     14  C   UNL     1       3.725   2.671  19.986  0.00  0.00    +0.000 C 
ATOM     15  C   UNL     1       2.631   2.503  21.053  0.00  0.00    +0.000 C 
ATOM     16  C   UNL     1       3.808   4.150  19.570  0.00  0.00    +0.000 C 
ATOM     17  C   UNL     1       2.097   3.729  17.787  0.00  0.00    +0.000 C 
ENDBRANCH   6   8
BRANCH   1  21
ATOM     18  C   UNL     1      -0.146  10.609  21.083  0.00  0.00    +0.000 A 
ATOM     19  C   UNL     1      -0.736  11.186  19.976  0.00  0.00    +0.000 A 
ATOM     20  S   UNL     1      -0.118  10.488  18.549  0.00  0.00    +0.000 S 
ATOM     21  C   UNL     1       0.883   9.445  19.494  0.00  0.00    +0.000 A 
ATOM     22  N   UNL     1       0.788   9.628  20.797  0.00  0.00    +0.000 NA
BRANCH  18  23
ATOM     23  C   UNL     1      -0.419  10.954  22.508  0.00  0.00    +0.000 C 
BRANCH  23  24
ATOM     24  C   UNL     1      -1.226  12.258  22.617  0.00  0.00    +0.000 C 
BRANCH  24  26
ATOM     25  C   UNL     1       0.174  14.122  22.045  0.00  0.00    +0.000 C 
ATOM     26  N   UNL     1      -0.471  13.408  23.152  0.00  0.00    +0.000 NA
ATOM     27  C   UNL     1      -1.321  14.332  23.906  0.00  0.00    +0.000 C 
ENDBRANCH  24  26
ENDBRANCH  23  24
ENDBRANCH  18  23
ENDBRANCH   1  21
TORSDOF 5
ENDMDL
MODEL 9
REMARK VINA RESULT:      -8.0      0.953      1.838
REMARK  Name = 
REMARK  7 active torsions:
REMARK  status: ('A' for Active; 'I' for Inactive)
REMARK    1  A    between atoms: C_1  and  N_2
REMARK    2  A    between atoms: N_2  and  C_3
REMARK    3  A    between atoms: N_2  and  C_4
REMARK    4  A    between atoms: C_4  and  C_5
REMARK    5  A    between atoms: C_5  and  C_6
REMARK    6  A    between atoms: C_9  and  C_10
REMARK    7  A    between atoms: C_15  and  C_16
REMARK                            x       y       z     vdW  Elec       q    Type
REMARK                         _______ _______ _______ _____ _____    ______ ____
ROOT
ATOM      1  C   UNL     1       1.456   8.625  19.560  0.00  0.00    +0.000 A 
ATOM      2  C   UNL     1       2.169   9.142  18.474  0.00  0.00    +0.000 A 
ATOM      3  C   UNL     1       2.922   8.297  17.662  0.00  0.00    +0.000 A 
ATOM      4  C   UNL     1       2.961   6.933  17.929  0.00  0.00    +0.000 A 
ATOM      5  F   UNL     1       3.703   6.169  17.115  0.00  0.00    +0.000 F 
ATOM      6  C   UNL     1       2.254   6.357  18.998  0.00  0.00    +0.000 A 
ATOM      7  C   UNL     1       1.498   7.236  19.798  0.00  0.00    +0.000 A 
ENDROOT
BRANCH   6   8
ATOM      8  C   UNL     1       2.313   4.845  19.268  0.00  0.00    +0.000 C 
ATOM      9  C   UNL     1       3.758   4.412  19.658  0.00  0.00    +0.000 C 
ATOM     10  C   UNL     1       3.840   2.893  19.895  0.00  0.00    +0.000 C 
ATOM     11  C   UNL     1       2.895   2.507  21.040  0.00  0.00    +0.000 C 
ATOM     12  C   UNL     1       1.452   2.876  20.673  0.00  0.00    +0.000 C 
ATOM     13  C   UNL     1       1.034   2.141  19.392  0.00  0.00    +0.000 C 
ATOM     14  C   UNL     1       1.971   2.530  18.241  0.00  0.00    +0.000 C 
ATOM     15  C   UNL     1       3.415   2.155  18.615  0.00  0.00    +0.000 C 
ATOM     16  C   UNL     1       1.885   4.047  17.999  0.00  0.00    +0.000 C 
ATOM     17  C   UNL     1       1.372   4.390  20.428  0.00  0.00    +0.000 C 
ENDBRANCH   6   8
BRANCH   1  21
ATOM     18  C   UNL     1      -0.780  11.053  21.093  0.00  0.00    +0.000 A 
ATOM     19  C   UNL     1      -0.413  10.567  22.332  0.00  0.00    +0.000 A 
ATOM     20  S   UNL     1       0.712   9.298  22.157  0.00  0.00    +0.000 S 
ATOM     21  C   UNL     1       0.656   9.487  20.441  0.00  0.00    +0.000 A 
ATOM     22  N   UNL     1      -0.177  10.419  20.020  0.00  0.00    +0.000 NA
BRANCH  18  23
ATOM     23  C   UNL     1      -1.748  12.157  20.831  0.00  0.00    +0.000 C 
BRANCH  23  24
ATOM     24  C   UNL     1      -2.260  12.768  22.144  0.00  0.00    +0.000 C 
BRANCH  24  26
ATOM     25  C   UNL     1      -3.701  12.448  24.037  0.00  0.00    +0.000 C 
ATOM     26  N   UNL     1      -3.577  12.267  22.586  0.00  0.00    +0.000 NA
ATOM     27  C   UNL     1      -4.686  12.939  21.909  0.00  0.00    +0.000 C 
ENDBRANCH  24  26
ENDBRANCH  23  24
ENDBRANCH  18  23
ENDBRANCH   1  21
TORSDOF 5
ENDMDL
