MODEL 1
REMARK VINA RESULT:      -7.5      0.000      0.000
REMARK  Name = 
REMARK  6 active torsions:
REMARK  status: ('A' for Active; 'I' for Inactive)
REMARK    1  A    between atoms: C_6  and  C_7
REMARK    2  A    between atoms: C_7  and  C_8
REMARK    3  A    between atoms: C_8  and  C_9
REMARK    4  A    between atoms: C_9  and  N_10
REMARK    5  A    between atoms: C_14  and  C_15
REMARK    6  A    between atoms: C_15  and  N_16
REMARK                            x       y       z     vdW  Elec       q    Type
REMARK                         _______ _______ _______ _____ _____    ______ ____
ROOT
ATOM      1  C   UNL     1       3.684   7.183  17.466  0.00  0.00    +0.000 C 
ENDROOT
BRANCH   1   2
ATOM      2  N   UNL     1       4.603   6.115  17.796  0.00  0.00    +0.000 NA
ATOM      3  C   UNL     1       5.985   6.229  17.326  0.00  0.00    +0.000 C 
ATOM      4  C   UNL     1       6.651   4.840  17.378  0.00  0.00    +0.000 C 
ATOM      5  O   UNL     1       6.473   4.163  18.635  0.00  0.00    +0.000 OA
ATOM      6  C   UNL     1       5.107   4.170  19.115  0.00  0.00    +0.000 C 
ATOM      7  C   UNL     1       4.594   5.625  19.175  0.00  0.00    +0.000 C 
BRANCH   6   8
ATOM      8  C   UNL     1       4.153   3.321  18.254  0.00  0.00    +0.000 C 
BRANCH   8   9
ATOM      9  N   UNL     1       2.922   2.991  18.927  0.00  0.00    +0.000 N 
ATOM     10  C   UNL     1       1.650   3.131  18.457  0.00  0.00    +0.000 A 
ATOM     11  N   UNL     1       0.796   2.844  19.410  0.00  0.00    +0.000 NA
ATOM     12  C   UNL     1       1.609   2.539  20.465  0.00  0.00    +0.000 A 
ATOM     13  N   UNL     1       2.919   2.623  20.222  0.00  0.00    +0.000 NA
ENDBRANCH   8   9
ENDBRANCH   6   8
ENDBRANCH   1   2
BRANCH   1  14
ATOM     14  C   UNL     1       2.552   7.479  18.442  0.00  0.00    +0.000 C 
BRANCH  14  15
ATOM     15  C   UNL     1       1.880   8.794  18.040  0.00  0.00    +0.000 C 
BRANCH  15  21
ATOM     16  C   UNL     1      -1.129  11.360  22.456  0.00  0.00    +0.000 A 
ATOM     17  C   UNL     1      -0.725  10.199  23.131  0.00  0.00    +0.000 A 
ATOM     18  C   UNL     1       0.059   9.224  22.499  0.00  0.00    +0.000 A 
ATOM     19  C   UNL     1       0.397   9.489  21.181  0.00  0.00    +0.000 A 
ATOM     20  O   UNL     1       1.140   8.706  20.345  0.00  0.00    +0.000 OA
ATOM     21  C   UNL     1       1.166   9.418  19.174  0.00  0.00    +0.000 A 
ATOM     22  N   UNL     1       0.518  10.569  19.202  0.00  0.00    +0.000 NA
ATOM     23  C   UNL     1       0.019  10.622  20.478  0.00  0.00    +0.000 A 
ATOM     24  C   UNL     1      -0.763  11.589  21.121  0.00  0.00    +0.000 A 
ENDBRANCH  15  21
ENDBRANCH  14  15
ENDBRANCH   1  14
TORSDOF 6
ENDMDL
MODEL 2
REMARK VINA RESULT:      -7.4      0.811      1.110
REMARK  Name = 
REMARK  6 active torsions:
REMARK  status: ('A' for Active; 'I' for Inactive)
REMARK    1  A    between atoms: C_6  and  C_7
REMARK    2  A    between atoms: C_7  and  C_8
REMARK    3  A    between atoms: C_8  and  C_9
REMARK    4  A    between atoms: C_9  and  N_10
REMARK    5  A    between atoms: C_14  and  C_15
REMARK    6  A    between atoms: C_15  and  N_16
REMARK                            x       y       z     vdW  Elec       q    Type
REMARK                         _______ _______ _______ _____ _____    ______ ____
ROOT
ATOM      1  C   UNL     1       2.642   6.633  17.827  0.00  0.00    +0.000 C 
ENDROOT
BRANCH   1   2
ATOM      2  N   UNL     1       3.756   5.717  17.949  0.00  0.00    +0.000 NA
ATOM      3  C   UNL     1       4.836   5.815  16.964  0.00  0.00    +0.000 C 
ATOM      4  C   UNL     1       5.660   4.513  16.989  0.00  0.00    +0.000 C 
ATOM      5  O   UNL     1       6.055   4.108  18.312  0.00  0.00    +0.000 OA
ATOM      6  C   UNL     1       4.978   4.131  19.278  0.00  0.00    +0.000 C 
ATOM      7  C   UNL     1       4.327   5.531  19.284  0.00  0.00    +0.000 C 
BRANCH   6   8
ATOM      8  C   UNL     1       3.901   3.061  19.017  0.00  0.00    +0.000 C 
BRANCH   8   9
ATOM      9  N   UNL     1       2.882   3.020  20.036  0.00  0.00    +0.000 N 
ATOM     10  C   UNL     1       3.020   2.648  21.340  0.00  0.00    +0.000 A 
ATOM     11  N   UNL     1       1.841   2.618  21.914  0.00  0.00    +0.000 NA
ATOM     12  C   UNL     1       0.999   2.975  20.900  0.00  0.00    +0.000 A 
ATOM     13  N   UNL     1       1.587   3.223  19.727  0.00  0.00    +0.000 NA
ENDBRANCH   8   9
ENDBRANCH   6   8
ENDBRANCH   1   2
BRANCH   1  14
ATOM     14  C   UNL     1       2.876   8.096  18.185  0.00  0.00    +0.000 C 
BRANCH  14  15
ATOM     15  C   UNL     1       1.616   8.897  17.847  0.00  0.00    +0.000 C 
BRANCH  15  21
ATOM     16  C   UNL     1      -1.075  11.242  22.580  0.00  0.00    +0.000 A 
ATOM     17  C   UNL     1      -0.539  10.101  23.194  0.00  0.00    +0.000 A 
ATOM     18  C   UNL     1       0.233   9.180  22.473  0.00  0.00    +0.000 A 
ATOM     19  C   UNL     1       0.420   9.475  21.131  0.00  0.00    +0.000 A 
ATOM     20  O   UNL     1       1.119   8.745  20.213  0.00  0.00    +0.000 OA
ATOM     21  C   UNL     1       0.985   9.467  19.056  0.00  0.00    +0.000 A 
ATOM     22  N   UNL     1       0.277  10.577  19.166  0.00  0.00    +0.000 NA
ATOM     23  C   UNL     1      -0.092  10.590  20.486  0.00  0.00    +0.000 A 
ATOM     24  C   UNL     1      -0.860  11.503  21.218  0.00  0.00    +0.000 A 
ENDBRANCH  15  21
ENDBRANCH  14  15
ENDBRANCH   1  14
TORSDOF 6
ENDMDL
MODEL 3
REMARK VINA RESULT:      -7.3      1.833      3.722
REMARK  Name = 
REMARK  6 active torsions:
REMARK  status: ('A' for Active; 'I' for Inactive)
REMARK    1  A    between atoms: C_6  and  C_7
REMARK    2  A    between atoms: C_7  and  C_8
REMARK    3  A    between atoms: C_8  and  C_9
REMARK    4  A    between atoms: C_9  and  N_10
REMARK    5  A    between atoms: C_14  and  C_15
REMARK    6  A    between atoms: C_15  and  N_16
REMARK                            x       y       z     vdW  Elec       q    Type
REMARK                         _______ _______ _______ _____ _____    ______ ____
ROOT
ATOM      1  C   UNL     1       1.341   4.762  20.174  0.00  0.00    +0.000 C 
ENDROOT
BRANCH   1   2
ATOM      2  N   UNL     1       2.230   3.977  19.345  0.00  0.00    +0.000 NA
ATOM      3  C   UNL     1       2.722   2.705  19.878  0.00  0.00    +0.000 C 
ATOM      4  C   UNL     1       3.961   2.267  19.073  0.00  0.00    +0.000 C 
ATOM      5  O   UNL     1       3.768   2.314  17.648  0.00  0.00    +0.000 OA
ATOM      6  C   UNL     1       3.178   3.549  17.179  0.00  0.00    +0.000 C 
ATOM      7  C   UNL     1       1.860   3.808  17.939  0.00  0.00    +0.000 C 
BRANCH   6   8
ATOM      8  C   UNL     1       4.109   4.767  17.330  0.00  0.00    +0.000 C 
BRANCH   8   9
ATOM      9  N   UNL     1       5.379   4.599  16.670  0.00  0.00    +0.000 N 
ATOM     10  C   UNL     1       6.622   4.640  17.228  0.00  0.00    +0.000 A 
ATOM     11  N   UNL     1       7.529   4.574  16.285  0.00  0.00    +0.000 NA
ATOM     12  C   UNL     1       6.779   4.502  15.145  0.00  0.00    +0.000 A 
ATOM     13  N   UNL     1       5.456   4.523  15.328  0.00  0.00    +0.000 NA
ENDBRANCH   8   9
ENDBRANCH   6   8
ENDBRANCH   1   2
BRANCH   1  14
ATOM     14  C   UNL     1       1.930   5.943  20.936  0.00  0.00    +0.000 C 
BRANCH  14  15
ATOM     15  C   UNL     1       2.050   7.136  19.985  0.00  0.00    +0.000 C 
BRANCH  15  21
ATOM     16  C   UNL     1      -1.024  11.871  21.794  0.00  0.00    +0.000 A 
ATOM     17  C   UNL     1      -1.100  11.116  22.973  0.00  0.00    +0.000 A 
ATOM     18  C   UNL     1      -0.491   9.858  23.072  0.00  0.00    +0.000 A 
ATOM     19  C   UNL     1       0.178   9.423  21.937  0.00  0.00    +0.000 A 
ATOM     20  O   UNL     1       0.843   8.244  21.770  0.00  0.00    +0.000 OA
ATOM     21  C   UNL     1       1.306   8.313  20.483  0.00  0.00    +0.000 A 
ATOM     22  N   UNL     1       1.000   9.423  19.835  0.00  0.00    +0.000 NA
ATOM     23  C   UNL     1       0.275  10.138  20.754  0.00  0.00    +0.000 A 
ATOM     24  C   UNL     1      -0.337  11.394  20.668  0.00  0.00    +0.000 A 
ENDBRANCH  15  21
ENDBRANCH  14  15
ENDBRANCH   1  14
TORSDOF 6
ENDMDL
MODEL 4
REMARK VINA RESULT:      -7.2      2.964      8.136
REMARK  Name = 
REMARK  6 active torsions:
REMARK  status: ('A' for Active; 'I' for Inactive)
REMARK    1  A    between atoms: C_6  and  C_7
REMARK    2  A    between atoms: C_7  and  C_8
REMARK    3  A    between atoms: C_8  and  C_9
REMARK    4  A    between atoms: C_9  and  N_10
REMARK    5  A    between atoms: C_14  and  C_15
REMARK    6  A    between atoms: C_15  and  N_16
REMARK                            x       y       z     vdW  Elec       q    Type
REMARK                         _______ _______ _______ _____ _____    ______ ____
ROOT
ATOM      1  C   UNL     1       5.688   4.241  19.214  0.00  0.00    +0.000 C 
ENDROOT
BRANCH   1   2
ATOM      2  N   UNL     1       4.295   4.391  18.851  0.00  0.00    +0.000 NA
ATOM      3  C   UNL     1       3.633   3.263  18.191  0.00  0.00    +0.000 C 
ATOM      4  C   UNL     1       2.350   3.767  17.500  0.00  0.00    +0.000 C 
ATOM      5  O   UNL     1       1.515   4.570  18.353  0.00  0.00    +0.000 OA
ATOM      6  C   UNL     1       2.232   5.603  19.069  0.00  0.00    +0.000 C 
ATOM      7  C   UNL     1       3.398   4.966  19.854  0.00  0.00    +0.000 C 
BRANCH   6   8
ATOM      8  C   UNL     1       2.773   6.718  18.154  0.00  0.00    +0.000 C 
BRANCH   8   9
ATOM      9  N   UNL     1       2.225   8.017  18.454  0.00  0.00    +0.000 N 
ATOM     10  C   UNL     1       1.635   8.428  19.611  0.00  0.00    +0.000 A 
ATOM     11  N   UNL     1       1.149   9.634  19.452  0.00  0.00    +0.000 NA
ATOM     12  C   UNL     1       1.463   9.920  18.154  0.00  0.00    +0.000 A 
ATOM     13  N   UNL     1       2.115   8.958  17.496  0.00  0.00    +0.000 NA
ENDBRANCH   8   9
ENDBRANCH   6   8
ENDBRANCH   1   2
BRANCH   1  14
ATOM     14  C   UNL     1       6.722   5.040  18.429  0.00  0.00    +0.000 C 
BRANCH  14  15
ATOM     15  C   UNL     1       6.002   5.870  17.363  0.00  0.00    +0.000 C 
BRANCH  15  21
ATOM     16  C   UNL     1       6.333   3.484  11.947  0.00  0.00    +0.000 A 
ATOM     17  C   UNL     1       7.453   4.325  11.869  0.00  0.00    +0.000 A 
ATOM     18  C   UNL     1       7.833   5.133  12.949  0.00  0.00    +0.000 A 
ATOM     19  C   UNL     1       7.034   5.042  14.078  0.00  0.00    +0.000 A 
ATOM     20  O   UNL     1       7.180   5.722  15.252  0.00  0.00    +0.000 OA
ATOM     21  C   UNL     1       6.136   5.274  16.017  0.00  0.00    +0.000 A 
ATOM     22  N   UNL     1       5.358   4.378  15.437  0.00  0.00    +0.000 NA
ATOM     23  C   UNL     1       5.920   4.226  14.195  0.00  0.00    +0.000 A 
ATOM     24  C   UNL     1       5.550   3.422  13.110  0.00  0.00    +0.000 A 
ENDBRANCH  15  21
ENDBRANCH  14  15
ENDBRANCH   1  14
TORSDOF 6
ENDMDL
MODEL 5
REMARK VINA RESULT:      -7.2      1.690      3.492
REMARK  Name = 
REMARK  6 active torsions:
REMARK  status: ('A' for Active; 'I' for Inactive)
REMARK    1  A    between atoms: C_6  and  C_7
REMARK    2  A    between atoms: C_7  and  C_8
REMARK    3  A    between atoms: C_8  and  C_9
REMARK    4  A    between atoms: C_9  and  N_10
REMARK    5  A    between atoms: C_14  and  C_15
REMARK    6  A    between atoms: C_15  and  N_16
REMARK                            x       y       z     vdW  Elec       q    Type
REMARK                         _______ _______ _______ _____ _____    ______ ____
ROOT
ATOM      1  C   UNL     1       1.508   5.530  17.951  0.00  0.00    +0.000 C 
ENDROOT
BRANCH   1   2
ATOM      2  N   UNL     1       2.196   4.273  18.148  0.00  0.00    +0.000 NA
ATOM      3  C   UNL     1       1.390   3.092  18.468  0.00  0.00    +0.000 C 
ATOM      4  C   UNL     1       2.303   2.007  19.070  0.00  0.00    +0.000 C 
ATOM      5  O   UNL     1       3.491   1.761  18.296  0.00  0.00    +0.000 OA
ATOM      6  C   UNL     1       4.197   2.963  17.910  0.00  0.00    +0.000 C 
ATOM      7  C   UNL     1       3.226   3.912  17.173  0.00  0.00    +0.000 C 
BRANCH   6   8
ATOM      8  C   UNL     1       4.840   3.704  19.098  0.00  0.00    +0.000 C 
BRANCH   8   9
ATOM      9  N   UNL     1       5.974   4.509  18.720  0.00  0.00    +0.000 N 
ATOM     10  C   UNL     1       6.644   4.503  17.534  0.00  0.00    +0.000 A 
ATOM     11  N   UNL     1       7.697   5.280  17.621  0.00  0.00    +0.000 NA
ATOM     12  C   UNL     1       7.632   5.738  18.906  0.00  0.00    +0.000 A 
ATOM     13  N   UNL     1       6.600   5.288  19.623  0.00  0.00    +0.000 NA
ENDBRANCH   8   9
ENDBRANCH   6   8
ENDBRANCH   1   2
BRANCH   1  14
ATOM     14  C   UNL     1       2.281   6.817  18.217  0.00  0.00    +0.000 C 
BRANCH  14  15
ATOM     15  C   UNL     1       2.483   6.971  19.726  0.00  0.00    +0.000 C 
BRANCH  15  21
ATOM     16  C   UNL     1      -0.923  11.364  21.785  0.00  0.00    +0.000 A 
ATOM     17  C   UNL     1      -0.788  10.635  22.975  0.00  0.00    +0.000 A 
ATOM     18  C   UNL     1      -0.029   9.459  23.026  0.00  0.00    +0.000 A 
ATOM     19  C   UNL     1       0.566   9.075  21.834  0.00  0.00    +0.000 A 
ATOM     20  O   UNL     1       1.344   7.976  21.613  0.00  0.00    +0.000 OA
ATOM     21  C   UNL     1       1.661   8.066  20.283  0.00  0.00    +0.000 A 
ATOM     22  N   UNL     1       1.162   9.117  19.657  0.00  0.00    +0.000 NA
ATOM     23  C   UNL     1       0.457   9.766  20.637  0.00  0.00    +0.000 A 
ATOM     24  C   UNL     1      -0.304  10.941  20.599  0.00  0.00    +0.000 A 
ENDBRANCH  15  21
ENDBRANCH  14  15
ENDBRANCH   1  14
TORSDOF 6
ENDMDL
MODEL 6
REMARK VINA RESULT:      -7.2      1.149      1.249
REMARK  Name = 
REMARK  6 active torsions:
REMARK  status: ('A' for Active; 'I' for Inactive)
REMARK    1  A    between atoms: C_6  and  C_7
REMARK    2  A    between atoms: C_7  and  C_8
REMARK    3  A    between atoms: C_8  and  C_9
REMARK    4  A    between atoms: C_9  and  N_10
REMARK    5  A    between atoms: C_14  and  C_15
REMARK    6  A    between atoms: C_15  and  N_16
REMARK                            x       y       z     vdW  Elec       q    Type
REMARK                         _______ _______ _______ _____ _____    ______ ____
ROOT
ATOM      1  C   UNL     1       3.660   7.437  17.636  0.00  0.00    +0.000 C 
ENDROOT
BRANCH   1   2
ATOM      2  N   UNL     1       4.271   6.219  17.149  0.00  0.00    +0.000 NA
ATOM      3  C   UNL     1       5.217   6.324  16.035  0.00  0.00    +0.000 C 
ATOM      4  C   UNL     1       5.393   4.935  15.391  0.00  0.00    +0.000 C 
ATOM      5  O   UNL     1       5.661   3.890  16.342  0.00  0.00    +0.000 OA
ATOM      6  C   UNL     1       4.768   3.892  17.481  0.00  0.00    +0.000 C 
ATOM      7  C   UNL     1       4.793   5.285  18.147  0.00  0.00    +0.000 C 
BRANCH   6   8
ATOM      8  C   UNL     1       3.318   3.516  17.122  0.00  0.00    +0.000 C 
BRANCH   8   9
ATOM      9  N   UNL     1       2.514   3.187  18.273  0.00  0.00    +0.000 N 
ATOM     10  C   UNL     1       1.329   3.743  18.650  0.00  0.00    +0.000 A 
ATOM     11  N   UNL     1       0.974   3.270  19.819  0.00  0.00    +0.000 NA
ATOM     12  C   UNL     1       1.998   2.420  20.127  0.00  0.00    +0.000 A 
ATOM     13  N   UNL     1       2.971   2.341  19.216  0.00  0.00    +0.000 NA
ENDBRANCH   8   9
ENDBRANCH   6   8
ENDBRANCH   1   2
BRANCH   1  14
ATOM     14  C   UNL     1       2.236   7.357  18.172  0.00  0.00    +0.000 C 
BRANCH  14  15
ATOM     15  C   UNL     1       2.283   7.321  19.702  0.00  0.00    +0.000 C 
BRANCH  15  21
ATOM     16  C   UNL     1      -1.187  11.575  21.940  0.00  0.00    +0.000 A 
ATOM     17  C   UNL     1      -1.042  10.799  23.099  0.00  0.00    +0.000 A 
ATOM     18  C   UNL     1      -0.266   9.632  23.101  0.00  0.00    +0.000 A 
ATOM     19  C   UNL     1       0.335   9.308  21.894  0.00  0.00    +0.000 A 
ATOM     20  O   UNL     1       1.128   8.230  21.628  0.00  0.00    +0.000 OA
ATOM     21  C   UNL     1       1.445   8.380  20.304  0.00  0.00    +0.000 A 
ATOM     22  N   UNL     1       0.931   9.449  19.721  0.00  0.00    +0.000 NA
ATOM     23  C   UNL     1       0.217  10.047  20.727  0.00  0.00    +0.000 A 
ATOM     24  C   UNL     1      -0.560  11.211  20.738  0.00  0.00    +0.000 A 
ENDBRANCH  15  21
ENDBRANCH  14  15
ENDBRANCH   1  14
TORSDOF 6
ENDMDL
MODEL 7
REMARK VINA RESULT:      -7.2      1.146      1.552
REMARK  Name = 
REMARK  6 active torsions:
REMARK  status: ('A' for Active; 'I' for Inactive)
REMARK    1  A    between atoms: C_6  and  C_7
REMARK    2  A    between atoms: C_7  and  C_8
REMARK    3  A    between atoms: C_8  and  C_9
REMARK    4  A    between atoms: C_9  and  N_10
REMARK    5  A    between atoms: C_14  and  C_15
REMARK    6  A    between atoms: C_15  and  N_16
REMARK                            x       y       z     vdW  Elec       q    Type
REMARK                         _______ _______ _______ _____ _____    ______ ____
ROOT
ATOM      1  C   UNL     1       3.672   7.499  17.919  0.00  0.00    +0.000 C 
ENDROOT
BRANCH   1   2
ATOM      2  N   UNL     1       4.265   6.304  17.357  0.00  0.00    +0.000 NA
ATOM      3  C   UNL     1       5.213   6.463  16.252  0.00  0.00    +0.000 C 
ATOM      4  C   UNL     1       5.368   5.113  15.524  0.00  0.00    +0.000 C 
ATOM      5  O   UNL     1       5.619   4.008  16.409  0.00  0.00    +0.000 OA
ATOM      6  C   UNL     1       4.727   3.953  17.546  0.00  0.00    +0.000 C 
ATOM      7  C   UNL     1       4.771   5.302  18.296  0.00  0.00    +0.000 C 
BRANCH   6   8
ATOM      8  C   UNL     1       3.271   3.623  17.166  0.00  0.00    +0.000 C 
BRANCH   8   9
ATOM      9  N   UNL     1       2.451   3.275  18.300  0.00  0.00    +0.000 N 
ATOM     10  C   UNL     1       1.350   3.929  18.766  0.00  0.00    +0.000 A 
ATOM     11  N   UNL     1       0.959   3.383  19.891  0.00  0.00    +0.000 NA
ATOM     12  C   UNL     1       1.874   2.386  20.080  0.00  0.00    +0.000 A 
ATOM     13  N   UNL     1       2.814   2.285  19.138  0.00  0.00    +0.000 NA
ENDBRANCH   8   9
ENDBRANCH   6   8
ENDBRANCH   1   2
BRANCH   1  14
ATOM     14  C   UNL     1       2.169   7.695  17.757  0.00  0.00    +0.000 C 
BRANCH  14  15
ATOM     15  C   UNL     1       1.841   9.180  17.927  0.00  0.00    +0.000 C 
BRANCH  15  21
ATOM     16  C   UNL     1      -0.697  10.190  23.189  0.00  0.00    +0.000 A 
ATOM     17  C   UNL     1      -1.114  11.357  22.533  0.00  0.00    +0.000 A 
ATOM     18  C   UNL     1      -0.771  11.604  21.197  0.00  0.00    +0.000 A 
ATOM     19  C   UNL     1      -0.001  10.627  20.584  0.00  0.00    +0.000 A 
ATOM     20  O   UNL     1       0.469  10.627  19.304  0.00  0.00    +0.000 OA
ATOM     21  C   UNL     1       1.167   9.451  19.215  0.00  0.00    +0.000 A 
ATOM     22  N   UNL     1       1.172   8.717  20.314  0.00  0.00    +0.000 NA
ATOM     23  C   UNL     1       0.432   9.461  21.196  0.00  0.00    +0.000 A 
ATOM     24  C   UNL     1       0.082   9.225  22.531  0.00  0.00    +0.000 A 
ENDBRANCH  15  21
ENDBRANCH  14  15
ENDBRANCH   1  14
TORSDOF 6
ENDMDL
MODEL 8
REMARK VINA RESULT:      -7.1      2.422      3.041
REMARK  Name = 
REMARK  6 active torsions:
REMARK  status: ('A' for Active; 'I' for Inactive)
REMARK    1  A    between atoms: C_6  and  C_7
REMARK    2  A    between atoms: C_7  and  C_8
REMARK    3  A    between atoms: C_8  and  C_9
REMARK    4  A    between atoms: C_9  and  N_10
REMARK    5  A    between atoms: C_14  and  C_15
REMARK    6  A    between atoms: C_15  and  N_16
REMARK                            x       y       z     vdW  Elec       q    Type
REMARK                         _______ _______ _______ _____ _____    ______ ____
ROOT
ATOM      1  C   UNL     1       2.409   7.278  18.465  0.00  0.00    +0.000 C 
ENDROOT
BRANCH   1   2
ATOM      2  N   UNL     1       3.495   6.508  17.899  0.00  0.00    +0.000 NA
ATOM      3  C   UNL     1       4.487   7.216  17.086  0.00  0.00    +0.000 C 
ATOM      4  C   UNL     1       5.262   6.192  16.234  0.00  0.00    +0.000 C 
ATOM      5  O   UNL     1       5.757   5.072  16.989  0.00  0.00    +0.000 OA
ATOM      6  C   UNL     1       4.771   4.472  17.861  0.00  0.00    +0.000 C 
ATOM      7  C   UNL     1       4.174   5.558  18.782  0.00  0.00    +0.000 C 
BRANCH   6   8
ATOM      8  C   UNL     1       3.637   3.759  17.102  0.00  0.00    +0.000 C 
BRANCH   8   9
ATOM      9  N   UNL     1       2.658   3.157  17.973  0.00  0.00    +0.000 N 
ATOM     10  C   UNL     1       2.845   2.143  18.865  0.00  0.00    +0.000 A 
ATOM     11  N   UNL     1       1.691   1.788  19.374  0.00  0.00    +0.000 NA
ATOM     12  C   UNL     1       0.811   2.621  18.744  0.00  0.00    +0.000 A 
ATOM     13  N   UNL     1       1.353   3.473  17.869  0.00  0.00    +0.000 NA
ENDBRANCH   8   9
ENDBRANCH   6   8
ENDBRANCH   1   2
BRANCH   1  14
ATOM     14  C   UNL     1       2.046   8.600  17.798  0.00  0.00    +0.000 C 
BRANCH  14  15
ATOM     15  C   UNL     1       1.507   9.561  18.861  0.00  0.00    +0.000 C 
BRANCH  15  21
ATOM     16  C   UNL     1      -3.964  11.527  17.700  0.00  0.00    +0.000 A 
ATOM     17  C   UNL     1      -3.808  10.686  16.588  0.00  0.00    +0.000 A 
ATOM     18  C   UNL     1      -2.636   9.944  16.395  0.00  0.00    +0.000 A 
ATOM     19  C   UNL     1      -1.658  10.102  17.366  0.00  0.00    +0.000 A 
ATOM     20  O   UNL     1      -0.432   9.504  17.410  0.00  0.00    +0.000 OA
ATOM     21  C   UNL     1       0.130  10.004  18.555  0.00  0.00    +0.000 A 
ATOM     22  N   UNL     1      -0.628  10.849  19.231  0.00  0.00    +0.000 NA
ATOM     23  C   UNL     1      -1.771  10.922  18.477  0.00  0.00    +0.000 A 
ATOM     24  C   UNL     1      -2.949  11.658  18.660  0.00  0.00    +0.000 A 
ENDBRANCH  15  21
ENDBRANCH  14  15
ENDBRANCH   1  14
TORSDOF 6
ENDMDL
MODEL 9
REMARK VINA RESULT:      -7.1      1.117      1.304
REMARK  Name = 
REMARK  6 active torsions:
REMARK  status: ('A' for Active; 'I' for Inactive)
REMARK    1  A    between atoms: C_6  and  C_7
REMARK    2  A    between atoms: C_7  and  C_8
REMARK    3  A    between atoms: C_8  and  C_9
REMARK    4  A    between atoms: C_9  and  N_10
REMARK    5  A    between atoms: C_14  and  C_15
REMARK    6  A    between atoms: C_15  and  N_16
REMARK                            x       y       z     vdW  Elec       q    Type
REMARK                         _______ _______ _______ _____ _____    ______ ____
ROOT
ATOM      1  C   UNL     1       3.516   7.328  18.264  0.00  0.00    +0.000 C 
ENDROOT
BRANCH   1   2
ATOM      2  N   UNL     1       4.207   6.299  17.517  0.00  0.00    +0.000 NA
ATOM      3  C   UNL     1       5.177   6.721  16.504  0.00  0.00    +0.000 C 
ATOM      4  C   UNL     1       5.448   5.546  15.545  0.00  0.00    +0.000 C 
ATOM      5  O   UNL     1       5.746   4.310  16.219  0.00  0.00    +0.000 OA
ATOM      6  C   UNL     1       4.822   3.988  17.285  0.00  0.00    +0.000 C 
ATOM      7  C   UNL     1       4.750   5.171  18.275  0.00  0.00    +0.000 C 
BRANCH   6   8
ATOM      8  C   UNL     1       3.406   3.647  16.785  0.00  0.00    +0.000 C 
BRANCH   8   9
ATOM      9  N   UNL     1       2.553   3.108  17.814  0.00  0.00    +0.000 N 
ATOM     10  C   UNL     1       2.813   2.068  18.655  0.00  0.00    +0.000 A 
ATOM     11  N   UNL     1       1.742   1.795  19.360  0.00  0.00    +0.000 NA
ATOM     12  C   UNL     1       0.833   2.704  18.899  0.00  0.00    +0.000 A 
ATOM     13  N   UNL     1       1.279   3.525  17.944  0.00  0.00    +0.000 NA
ENDBRANCH   8   9
ENDBRANCH   6   8
ENDBRANCH   1   2
BRANCH   1  14
ATOM     14  C   UNL     1       2.078   7.651  17.874  0.00  0.00    +0.000 C 
BRANCH  14  15
ATOM     15  C   UNL     1       1.902   9.171  17.841  0.00  0.00    +0.000 C 
BRANCH  15  21
ATOM     16  C   UNL     1      -0.853  11.303  22.638  0.00  0.00    +0.000 A 
ATOM     17  C   UNL     1      -0.621   9.999  23.098  0.00  0.00    +0.000 A 
ATOM     18  C   UNL     1       0.045   9.054  22.305  0.00  0.00    +0.000 A 
ATOM     19  C   UNL     1       0.447   9.497  21.054  0.00  0.00    +0.000 A 
ATOM     20  O   UNL     1       1.101   8.782  20.094  0.00  0.00    +0.000 OA
ATOM     21  C   UNL     1       1.248   9.676  19.067  0.00  0.00    +0.000 A 
ATOM     22  N   UNL     1       0.755  10.880  19.297  0.00  0.00    +0.000 NA
ATOM     23  C   UNL     1       0.237  10.775  20.562  0.00  0.00    +0.000 A 
ATOM     24  C   UNL     1      -0.429  11.710  21.364  0.00  0.00    +0.000 A 
ENDBRANCH  15  21
ENDBRANCH  14  15
ENDBRANCH   1  14
TORSDOF 6
ENDMDL
