MODEL 1
REMARK VINA RESULT:      -7.7      0.000      0.000
REMARK  Name = 
REMARK  4 active torsions:
REMARK  status: ('A' for Active; 'I' for Inactive)
REMARK    1  A    between atoms: C_1  and  N_2
REMARK    2  A    between atoms: C_3  and  C_5
REMARK    3  A    between atoms: C_9  and  C_10
REMARK    4  A    between atoms: N_12  and  C_13
REMARK                            x       y       z     vdW  Elec       q    Type
REMARK                         _______ _______ _______ _____ _____    ______ ____
ROOT
ATOM      1  C   UNL     1       6.855   5.662  16.302  0.00  0.00    +0.000 A 
ATOM      2  N   UNL     1       7.594   5.443  15.159  0.00  0.00    +0.000 N 
ATOM      3  C   UNL     1       6.908   4.580  14.358  0.00  0.00    +0.000 A 
ATOM      4  N   UNL     1       5.728   4.293  14.858  0.00  0.00    +0.000 NA
ATOM      5  C   UNL     1       5.683   4.944  16.085  0.00  0.00    +0.000 A 
ATOM      6  H   UNL     1       8.507   5.842  14.985  0.00  0.00    +0.000 HD
ENDROOT
BRANCH   1   9
ATOM      7  C   UNL     1       8.143   8.769  17.970  0.00  0.00    +0.000 C 
ATOM      8  N   UNL     1       7.639   7.812  17.025  0.00  0.00    +0.000 N 
ATOM      9  C   UNL     1       7.353   6.513  17.357  0.00  0.00    +0.000 C 
ATOM     10  O   UNL     1       7.461   6.097  18.508  0.00  0.00    +0.000 OA
ATOM     11  H   UNL     1       7.619   8.088  16.047  0.00  0.00    +0.000 HD
ENDBRANCH   1   9
BRANCH   5  12
ATOM     12  C   UNL     1       4.525   4.855  16.973  0.00  0.00    +0.000 C 
ATOM     13  O   UNL     1       3.866   5.856  17.255  0.00  0.00    +0.000 OA
ATOM     14  N   UNL     1       4.275   3.585  17.456  0.00  0.00    +0.000 N 
ATOM     15  H   UNL     1       5.011   2.907  17.279  0.00  0.00    +0.000 HD
BRANCH  14  16
ATOM     16  C   UNL     1       3.174   3.228  18.264  0.00  0.00    +0.000 A 
ATOM     17  C   UNL     1       1.974   2.737  17.734  0.00  0.00    +0.000 A 
ATOM     18  C   UNL     1       0.879   2.462  18.558  0.00  0.00    +0.000 A 
ATOM     19  C   UNL     1       0.980   2.666  19.926  0.00  0.00    +0.000 A 
ATOM     20  C   UNL     1       2.186   3.110  20.466  0.00  0.00    +0.000 A 
ATOM     21 CL   UNL     1       2.307   3.356  22.166  0.00  0.00    +0.000 Cl
ATOM     22  C   UNL     1       3.288   3.377  19.647  0.00  0.00    +0.000 A 
ENDBRANCH  14  16
ENDBRANCH   5  12
TORSDOF 3
ENDMDL
MODEL 2
REMARK VINA RESULT:      -7.4      3.866      5.112
REMARK  Name = 
REMARK  4 active torsions:
REMARK  status: ('A' for Active; 'I' for Inactive)
REMARK    1  A    between atoms: C_1  and  N_2
REMARK    2  A    between atoms: C_3  and  C_5
REMARK    3  A    between atoms: C_9  and  C_10
REMARK    4  A    between atoms: N_12  and  C_13
REMARK                            x       y       z     vdW  Elec       q    Type
REMARK                         _______ _______ _______ _____ _____    ______ ____
ROOT
ATOM      1  C   UNL     1       4.796   3.861  19.005  0.00  0.00    +0.000 A 
ATOM      2  N   UNL     1       5.230   2.673  19.552  0.00  0.00    +0.000 N 
ATOM      3  C   UNL     1       4.259   2.196  20.381  0.00  0.00    +0.000 A 
ATOM      4  N   UNL     1       3.181   2.945  20.339  0.00  0.00    +0.000 NA
ATOM      5  C   UNL     1       3.504   4.004  19.500  0.00  0.00    +0.000 A 
ATOM      6  H   UNL     1       6.139   2.263  19.379  0.00  0.00    +0.000 HD
ENDROOT
BRANCH   1   9
ATOM      7  C   UNL     1       7.077   4.555  16.105  0.00  0.00    +0.000 C 
ATOM      8  N   UNL     1       6.215   3.933  17.071  0.00  0.00    +0.000 N 
ATOM      9  C   UNL     1       5.639   4.618  18.109  0.00  0.00    +0.000 C 
ATOM     10  O   UNL     1       5.783   5.830  18.249  0.00  0.00    +0.000 OA
ATOM     11  H   UNL     1       6.141   2.919  17.045  0.00  0.00    +0.000 HD
ENDBRANCH   1   9
BRANCH   5  12
ATOM     12  C   UNL     1       2.561   5.083  19.208  0.00  0.00    +0.000 C 
ATOM     13  O   UNL     1       1.509   4.858  18.609  0.00  0.00    +0.000 OA
ATOM     14  N   UNL     1       2.972   6.329  19.639  0.00  0.00    +0.000 N 
ATOM     15  H   UNL     1       3.938   6.378  19.950  0.00  0.00    +0.000 HD
BRANCH  14  16
ATOM     16  C   UNL     1       2.207   7.512  19.545  0.00  0.00    +0.000 A 
ATOM     17  C   UNL     1       2.123   8.268  18.368  0.00  0.00    +0.000 A 
ATOM     18  C   UNL     1       1.416   9.472  18.332  0.00  0.00    +0.000 A 
ATOM     19  C   UNL     1       0.774   9.927  19.475  0.00  0.00    +0.000 A 
ATOM     20  C   UNL     1       0.814   9.158  20.636  0.00  0.00    +0.000 A 
ATOM     21 CL   UNL     1       0.011   9.725  22.050  0.00  0.00    +0.000 Cl
ATOM     22  C   UNL     1       1.513   7.946  20.675  0.00  0.00    +0.000 A 
ENDBRANCH  14  16
ENDBRANCH   5  12
TORSDOF 3
ENDMDL
MODEL 3
REMARK VINA RESULT:      -7.3      1.289      1.289
REMARK  Name = 
REMARK  4 active torsions:
REMARK  status: ('A' for Active; 'I' for Inactive)
REMARK    1  A    between atoms: C_1  and  N_2
REMARK    2  A    between atoms: C_3  and  C_5
REMARK    3  A    between atoms: C_9  and  C_10
REMARK    4  A    between atoms: N_12  and  C_13
REMARK                            x       y       z     vdW  Elec       q    Type
REMARK                         _______ _______ _______ _____ _____    ______ ____
ROOT
ATOM      1  C   UNL     1       6.936   4.730  16.365  0.00  0.00    +0.000 A 
ATOM      2  N   UNL     1       7.595   4.791  15.155  0.00  0.00    +0.000 N 
ATOM      3  C   UNL     1       6.672   4.720  14.155  0.00  0.00    +0.000 A 
ATOM      4  N   UNL     1       5.447   4.713  14.629  0.00  0.00    +0.000 NA
ATOM      5  C   UNL     1       5.591   4.696  16.011  0.00  0.00    +0.000 A 
ATOM      6  H   UNL     1       8.600   4.842  15.055  0.00  0.00    +0.000 HD
ENDROOT
BRANCH   1   9
ATOM      7  C   UNL     1       7.878   5.762  19.850  0.00  0.00    +0.000 C 
ATOM      8  N   UNL     1       7.245   5.634  18.566  0.00  0.00    +0.000 N 
ATOM      9  C   UNL     1       7.667   4.746  17.610  0.00  0.00    +0.000 C 
ATOM     10  O   UNL     1       8.589   3.960  17.814  0.00  0.00    +0.000 OA
ATOM     11  H   UNL     1       6.538   6.323  18.323  0.00  0.00    +0.000 HD
ENDBRANCH   1   9
BRANCH   5  12
ATOM     12  C   UNL     1       4.441   4.664  16.914  0.00  0.00    +0.000 C 
ATOM     13  O   UNL     1       3.800   5.686  17.159  0.00  0.00    +0.000 OA
ATOM     14  N   UNL     1       4.179   3.420  17.455  0.00  0.00    +0.000 N 
ATOM     15  H   UNL     1       4.903   2.724  17.300  0.00  0.00    +0.000 HD
BRANCH  14  16
ATOM     16  C   UNL     1       3.082   3.115  18.290  0.00  0.00    +0.000 A 
ATOM     17  C   UNL     1       1.856   2.655  17.791  0.00  0.00    +0.000 A 
ATOM     18  C   UNL     1       0.769   2.433  18.640  0.00  0.00    +0.000 A 
ATOM     19  C   UNL     1       0.903   2.658  20.002  0.00  0.00    +0.000 A 
ATOM     20  C   UNL     1       2.132   3.071  20.511  0.00  0.00    +0.000 A 
ATOM     21 CL   UNL     1       2.294   3.344  22.204  0.00  0.00    +0.000 Cl
ATOM     22  C   UNL     1       3.227   3.286  19.668  0.00  0.00    +0.000 A 
ENDBRANCH  14  16
ENDBRANCH   5  12
TORSDOF 3
ENDMDL
MODEL 4
REMARK VINA RESULT:      -7.1      3.971      4.950
REMARK  Name = 
REMARK  4 active torsions:
REMARK  status: ('A' for Active; 'I' for Inactive)
REMARK    1  A    between atoms: C_1  and  N_2
REMARK    2  A    between atoms: C_3  and  C_5
REMARK    3  A    between atoms: C_9  and  C_10
REMARK    4  A    between atoms: N_12  and  C_13
REMARK                            x       y       z     vdW  Elec       q    Type
REMARK                         _______ _______ _______ _____ _____    ______ ____
ROOT
ATOM      1  C   UNL     1       4.982   4.006  19.080  0.00  0.00    +0.000 A 
ATOM      2  N   UNL     1       5.257   2.738  19.546  0.00  0.00    +0.000 N 
ATOM      3  C   UNL     1       4.115   2.213  20.073  0.00  0.00    +0.000 A 
ATOM      4  N   UNL     1       3.090   3.015  19.897  0.00  0.00    +0.000 NA
ATOM      5  C   UNL     1       3.616   4.153  19.296  0.00  0.00    +0.000 A 
ATOM      6  H   UNL     1       6.172   2.307  19.522  0.00  0.00    +0.000 HD
ENDROOT
BRANCH   1   9
ATOM      7  C   UNL     1       8.020   6.207  18.920  0.00  0.00    +0.000 C 
ATOM      8  N   UNL     1       6.936   5.372  19.358  0.00  0.00    +0.000 N 
ATOM      9  C   UNL     1       6.020   4.824  18.497  0.00  0.00    +0.000 C 
ATOM     10  O   UNL     1       6.100   4.974  17.280  0.00  0.00    +0.000 OA
ATOM     11  H   UNL     1       6.781   5.295  20.359  0.00  0.00    +0.000 HD
ENDBRANCH   1   9
BRANCH   5  12
ATOM     12  C   UNL     1       2.786   5.306  18.952  0.00  0.00    +0.000 C 
ATOM     13  O   UNL     1       2.116   5.317  17.919  0.00  0.00    +0.000 OA
ATOM     14  N   UNL     1       2.851   6.345  19.860  0.00  0.00    +0.000 N 
ATOM     15  H   UNL     1       3.584   6.257  20.559  0.00  0.00    +0.000 HD
BRANCH  14  16
ATOM     16  C   UNL     1       2.087   7.530  19.792  0.00  0.00    +0.000 A 
ATOM     17  C   UNL     1       2.065   8.352  18.658  0.00  0.00    +0.000 A 
ATOM     18  C   UNL     1       1.356   9.556  18.652  0.00  0.00    +0.000 A 
ATOM     19  C   UNL     1       0.649   9.943  19.781  0.00  0.00    +0.000 A 
ATOM     20  C   UNL     1       0.629   9.108  20.897  0.00  0.00    +0.000 A 
ATOM     21 CL   UNL     1      -0.254   9.592  22.294  0.00  0.00    +0.000 Cl
ATOM     22  C   UNL     1       1.329   7.898  20.905  0.00  0.00    +0.000 A 
ENDBRANCH  14  16
ENDBRANCH   5  12
TORSDOF 3
ENDMDL
MODEL 5
REMARK VINA RESULT:      -7.1      1.508      1.799
REMARK  Name = 
REMARK  4 active torsions:
REMARK  status: ('A' for Active; 'I' for Inactive)
REMARK    1  A    between atoms: C_1  and  N_2
REMARK    2  A    between atoms: C_3  and  C_5
REMARK    3  A    between atoms: C_9  and  C_10
REMARK    4  A    between atoms: N_12  and  C_13
REMARK                            x       y       z     vdW  Elec       q    Type
REMARK                         _______ _______ _______ _____ _____    ______ ____
ROOT
ATOM      1  C   UNL     1       6.849   5.556  16.152  0.00  0.00    +0.000 A 
ATOM      2  N   UNL     1       7.602   5.440  15.003  0.00  0.00    +0.000 N 
ATOM      3  C   UNL     1       6.976   4.574  14.159  0.00  0.00    +0.000 A 
ATOM      4  N   UNL     1       5.816   4.187  14.639  0.00  0.00    +0.000 NA
ATOM      5  C   UNL     1       5.727   4.774  15.896  0.00  0.00    +0.000 A 
ATOM      6  H   UNL     1       8.488   5.905  14.853  0.00  0.00    +0.000 HD
ENDROOT
BRANCH   1   9
ATOM      7  C   UNL     1       8.050   8.627  17.946  0.00  0.00    +0.000 C 
ATOM      8  N   UNL     1       7.598   7.689  16.957  0.00  0.00    +0.000 N 
ATOM      9  C   UNL     1       7.289   6.386  17.249  0.00  0.00    +0.000 C 
ATOM     10  O   UNL     1       7.331   5.949  18.397  0.00  0.00    +0.000 OA
ATOM     11  H   UNL     1       7.634   7.983  15.984  0.00  0.00    +0.000 HD
ENDBRANCH   1   9
BRANCH   5  12
ATOM     12  C   UNL     1       4.575   4.568  16.773  0.00  0.00    +0.000 C 
ATOM     13  O   UNL     1       3.744   3.693  16.529  0.00  0.00    +0.000 OA
ATOM     14  N   UNL     1       4.514   5.438  17.844  0.00  0.00    +0.000 N 
ATOM     15  H   UNL     1       5.168   6.214  17.804  0.00  0.00    +0.000 HD
BRANCH  14  16
ATOM     16  C   UNL     1       3.545   5.392  18.870  0.00  0.00    +0.000 A 
ATOM     17  C   UNL     1       2.691   6.466  19.154  0.00  0.00    +0.000 A 
ATOM     18  C   UNL     1       1.796   6.413  20.225  0.00  0.00    +0.000 A 
ATOM     19  C   UNL     1       1.737   5.276  21.016  0.00  0.00    +0.000 A 
ATOM     20  C   UNL     1       2.550   4.186  20.712  0.00  0.00    +0.000 A 
ATOM     21 CL   UNL     1       2.470   2.774  21.696  0.00  0.00    +0.000 Cl
ATOM     22  C   UNL     1       3.443   4.230  19.636  0.00  0.00    +0.000 A 
ENDBRANCH  14  16
ENDBRANCH   5  12
TORSDOF 3
ENDMDL
MODEL 6
REMARK VINA RESULT:      -7.0      3.697      4.919
REMARK  Name = 
REMARK  4 active torsions:
REMARK  status: ('A' for Active; 'I' for Inactive)
REMARK    1  A    between atoms: C_1  and  N_2
REMARK    2  A    between atoms: C_3  and  C_5
REMARK    3  A    between atoms: C_9  and  C_10
REMARK    4  A    between atoms: N_12  and  C_13
REMARK                            x       y       z     vdW  Elec       q    Type
REMARK                         _______ _______ _______ _____ _____    ______ ____
ROOT
ATOM      1  C   UNL     1       4.352   3.483  18.782  0.00  0.00    +0.000 A 
ATOM      2  N   UNL     1       4.507   2.117  18.885  0.00  0.00    +0.000 N 
ATOM      3  C   UNL     1       3.280   1.532  18.784  0.00  0.00    +0.000 A 
ATOM      4  N   UNL     1       2.345   2.417  18.527  0.00  0.00    +0.000 NA
ATOM      5  C   UNL     1       2.991   3.647  18.543  0.00  0.00    +0.000 A 
ATOM      6  H   UNL     1       5.392   1.654  19.045  0.00  0.00    +0.000 HD
ENDROOT
BRANCH   1   9
ATOM      7  C   UNL     1       7.707   4.975  18.002  0.00  0.00    +0.000 C 
ATOM      8  N   UNL     1       6.517   4.171  18.009  0.00  0.00    +0.000 N 
ATOM      9  C   UNL     1       5.486   4.370  18.891  0.00  0.00    +0.000 C 
ATOM     10  O   UNL     1       5.494   5.291  19.704  0.00  0.00    +0.000 OA
ATOM     11  H   UNL     1       6.507   3.347  17.415  0.00  0.00    +0.000 HD
ENDBRANCH   1   9
BRANCH   5  12
ATOM     12  C   UNL     1       2.280   4.905  18.318  0.00  0.00    +0.000 C 
ATOM     13  O   UNL     1       1.307   4.955  17.563  0.00  0.00    +0.000 OA
ATOM     14  N   UNL     1       2.808   5.986  18.996  0.00  0.00    +0.000 N 
ATOM     15  H   UNL     1       3.712   5.820  19.428  0.00  0.00    +0.000 HD
BRANCH  14  16
ATOM     16  C   UNL     1       2.256   7.286  19.003  0.00  0.00    +0.000 A 
ATOM     17  C   UNL     1       2.294   8.130  17.885  0.00  0.00    +0.000 A 
ATOM     18  C   UNL     1       1.804   9.437  17.951  0.00  0.00    +0.000 A 
ATOM     19  C   UNL     1       1.259   9.908  19.136  0.00  0.00    +0.000 A 
ATOM     20  C   UNL     1       1.176   9.059  20.238  0.00  0.00    +0.000 A 
ATOM     21 CL   UNL     1       0.493   9.648  21.705  0.00  0.00    +0.000 Cl
ATOM     22  C   UNL     1       1.656   7.747  20.175  0.00  0.00    +0.000 A 
ENDBRANCH  14  16
ENDBRANCH   5  12
TORSDOF 3
ENDMDL
MODEL 7
REMARK VINA RESULT:      -7.0      1.497      2.951
REMARK  Name = 
REMARK  4 active torsions:
REMARK  status: ('A' for Active; 'I' for Inactive)
REMARK    1  A    between atoms: C_1  and  N_2
REMARK    2  A    between atoms: C_3  and  C_5
REMARK    3  A    between atoms: C_9  and  C_10
REMARK    4  A    between atoms: N_12  and  C_13
REMARK                            x       y       z     vdW  Elec       q    Type
REMARK                         _______ _______ _______ _____ _____    ______ ____
ROOT
ATOM      1  C   UNL     1       6.667   5.952  16.803  0.00  0.00    +0.000 A 
ATOM      2  N   UNL     1       7.695   6.864  16.913  0.00  0.00    +0.000 N 
ATOM      3  C   UNL     1       7.960   7.062  18.234  0.00  0.00    +0.000 A 
ATOM      4  N   UNL     1       7.240   6.270  18.994  0.00  0.00    +0.000 NA
ATOM      5  C   UNL     1       6.408   5.582  18.119  0.00  0.00    +0.000 A 
ATOM      6  H   UNL     1       8.136   7.323  16.126  0.00  0.00    +0.000 HD
ENDROOT
BRANCH   1   9
ATOM      7  C   UNL     1       6.166   3.892  13.704  0.00  0.00    +0.000 C 
ATOM      8  N   UNL     1       6.597   4.393  14.980  0.00  0.00    +0.000 N 
ATOM      9  C   UNL     1       6.144   5.573  15.511  0.00  0.00    +0.000 C 
ATOM     10  O   UNL     1       5.294   6.257  14.947  0.00  0.00    +0.000 OA
ATOM     11  H   UNL     1       7.363   3.906  15.438  0.00  0.00    +0.000 HD
ENDBRANCH   1   9
BRANCH   5  12
ATOM     12  C   UNL     1       5.425   4.603  18.584  0.00  0.00    +0.000 C 
ATOM     13  O   UNL     1       5.780   3.578  19.166  0.00  0.00    +0.000 OA
ATOM     14  N   UNL     1       4.115   4.931  18.291  0.00  0.00    +0.000 N 
ATOM     15  H   UNL     1       4.002   5.711  17.651  0.00  0.00    +0.000 HD
BRANCH  14  16
ATOM     16  C   UNL     1       2.985   4.191  18.700  0.00  0.00    +0.000 A 
ATOM     17  C   UNL     1       1.937   3.866  17.829  0.00  0.00    +0.000 A 
ATOM     18  C   UNL     1       0.799   3.196  18.285  0.00  0.00    +0.000 A 
ATOM     19  C   UNL     1       0.705   2.832  19.620  0.00  0.00    +0.000 A 
ATOM     20  C   UNL     1       1.763   3.110  20.483  0.00  0.00    +0.000 A 
ATOM     21 CL   UNL     1       1.643   2.652  22.139  0.00  0.00    +0.000 Cl
ATOM     22  C   UNL     1       2.909   3.773  20.030  0.00  0.00    +0.000 A 
ENDBRANCH  14  16
ENDBRANCH   5  12
TORSDOF 3
ENDMDL
MODEL 8
REMARK VINA RESULT:      -7.0      3.460      6.329
REMARK  Name = 
REMARK  4 active torsions:
REMARK  status: ('A' for Active; 'I' for Inactive)
REMARK    1  A    between atoms: C_1  and  N_2
REMARK    2  A    between atoms: C_3  and  C_5
REMARK    3  A    between atoms: C_9  and  C_10
REMARK    4  A    between atoms: N_12  and  C_13
REMARK                            x       y       z     vdW  Elec       q    Type
REMARK                         _______ _______ _______ _____ _____    ______ ____
ROOT
ATOM      1  C   UNL     1       2.134   4.795  20.105  0.00  0.00    +0.000 A 
ATOM      2  N   UNL     1       1.115   4.152  20.774  0.00  0.00    +0.000 N 
ATOM      3  C   UNL     1       1.318   2.807  20.684  0.00  0.00    +0.000 A 
ATOM      4  N   UNL     1       2.452   2.531  20.082  0.00  0.00    +0.000 NA
ATOM      5  C   UNL     1       2.967   3.761  19.692  0.00  0.00    +0.000 A 
ATOM      6  H   UNL     1       0.338   4.623  21.219  0.00  0.00    +0.000 HD
ENDROOT
BRANCH   1   9
ATOM      7  C   UNL     1       1.485   8.377  21.023  0.00  0.00    +0.000 C 
ATOM      8  N   UNL     1       1.539   6.942  20.997  0.00  0.00    +0.000 N 
ATOM      9  C   UNL     1       2.161   6.235  20.001  0.00  0.00    +0.000 C 
ATOM     10  O   UNL     1       2.763   6.793  19.086  0.00  0.00    +0.000 OA
ATOM     11  H   UNL     1       0.980   6.442  21.684  0.00  0.00    +0.000 HD
ENDBRANCH   1   9
BRANCH   5  12
ATOM     12  C   UNL     1       4.229   3.881  18.962  0.00  0.00    +0.000 C 
ATOM     13  O   UNL     1       5.286   3.488  19.457  0.00  0.00    +0.000 OA
ATOM     14  N   UNL     1       4.112   4.478  17.721  0.00  0.00    +0.000 N 
ATOM     15  H   UNL     1       3.211   4.909  17.536  0.00  0.00    +0.000 HD
BRANCH  14  16
ATOM     16  C   UNL     1       5.168   4.637  16.797  0.00  0.00    +0.000 A 
ATOM     17  C   UNL     1       6.312   5.395  17.078  0.00  0.00    +0.000 A 
ATOM     18  C   UNL     1       7.303   5.592  16.113  0.00  0.00    +0.000 A 
ATOM     19  C   UNL     1       7.163   5.019  14.858  0.00  0.00    +0.000 A 
ATOM     20  C   UNL     1       6.050   4.226  14.586  0.00  0.00    +0.000 A 
ATOM     21 CL   UNL     1       5.884   3.513  13.026  0.00  0.00    +0.000 Cl
ATOM     22  C   UNL     1       5.059   4.018  15.551  0.00  0.00    +0.000 A 
ENDBRANCH  14  16
ENDBRANCH   5  12
TORSDOF 3
ENDMDL
MODEL 9
REMARK VINA RESULT:      -7.0      1.867      1.935
REMARK  Name = 
REMARK  4 active torsions:
REMARK  status: ('A' for Active; 'I' for Inactive)
REMARK    1  A    between atoms: C_1  and  N_2
REMARK    2  A    between atoms: C_3  and  C_5
REMARK    3  A    between atoms: C_9  and  C_10
REMARK    4  A    between atoms: N_12  and  C_13
REMARK                            x       y       z     vdW  Elec       q    Type
REMARK                         _______ _______ _______ _____ _____    ______ ____
ROOT
ATOM      1  C   UNL     1       6.790   5.367  16.068  0.00  0.00    +0.000 A 
ATOM      2  N   UNL     1       7.369   5.374  14.817  0.00  0.00    +0.000 N 
ATOM      3  C   UNL     1       6.698   4.494  14.023  0.00  0.00    +0.000 A 
ATOM      4  N   UNL     1       5.659   3.982  14.643  0.00  0.00    +0.000 NA
ATOM      5  C   UNL     1       5.711   4.500  15.931  0.00  0.00    +0.000 A 
ATOM      6  H   UNL     1       8.181   5.924  14.567  0.00  0.00    +0.000 HD
ENDROOT
BRANCH   1   9
ATOM      7  C   UNL     1       7.982   8.451  17.848  0.00  0.00    +0.000 C 
ATOM      8  N   UNL     1       7.466   7.521  16.881  0.00  0.00    +0.000 N 
ATOM      9  C   UNL     1       7.319   6.183  17.136  0.00  0.00    +0.000 C 
ATOM     10  O   UNL     1       7.572   5.698  18.237  0.00  0.00    +0.000 OA
ATOM     11  H   UNL     1       7.329   7.862  15.933  0.00  0.00    +0.000 HD
ENDBRANCH   1   9
BRANCH   5  12
ATOM     12  C   UNL     1       4.725   4.149  16.953  0.00  0.00    +0.000 C 
ATOM     13  O   UNL     1       4.551   2.977  17.288  0.00  0.00    +0.000 OA
ATOM     14  N   UNL     1       4.027   5.227  17.462  0.00  0.00    +0.000 N 
ATOM     15  H   UNL     1       4.156   6.098  16.956  0.00  0.00    +0.000 HD
BRANCH  14  16
ATOM     16  C   UNL     1       3.081   5.158  18.508  0.00  0.00    +0.000 A 
ATOM     17  C   UNL     1       2.384   3.984  18.823  0.00  0.00    +0.000 A 
ATOM     18  C   UNL     1       1.402   3.971  19.816  0.00  0.00    +0.000 A 
ATOM     19  C   UNL     1       1.115   5.135  20.514  0.00  0.00    +0.000 A 
ATOM     20  C   UNL     1       1.836   6.295  20.238  0.00  0.00    +0.000 A 
ATOM     21 CL   UNL     1       1.479   7.736  21.112  0.00  0.00    +0.000 Cl
ATOM     22  C   UNL     1       2.827   6.311  19.251  0.00  0.00    +0.000 A 
ENDBRANCH  14  16
ENDBRANCH   5  12
TORSDOF 3
ENDMDL
