MODEL 1
REMARK VINA RESULT:      -8.1      0.000      0.000
REMARK  Name = 
REMARK  3 active torsions:
REMARK  status: ('A' for Active; 'I' for Inactive)
REMARK    1  A    between atoms: N_10  and  O_11
REMARK    2  A    between atoms: O_11  and  C_12
REMARK    3  A    between atoms: C_12  and  C_13
REMARK                            x       y       z     vdW  Elec       q    Type
REMARK                         _______ _______ _______ _____ _____    ______ ____
ROOT
ATOM      1  N   UNL     1       2.416   4.649  21.114  0.00  0.00    +0.000 N 
ATOM      2  C   UNL     1       3.275   4.503  20.086  0.00  0.00    +0.000 C 
ATOM      3  N   UNL     1       3.941   5.531  19.697  0.00  0.00    +0.000 NA
ATOM      4  C   UNL     1       4.896   5.371  18.586  0.00  0.00    +0.000 C 
ATOM      5  C   UNL     1       4.723   6.678  17.779  0.00  0.00    +0.000 C 
ATOM      6  C   UNL     1       5.907   7.152  16.941  0.00  0.00    +0.000 C 
ATOM      7  C   UNL     1       7.281   6.950  17.563  0.00  0.00    +0.000 C 
ATOM      8  C   UNL     1       7.454   5.638  18.313  0.00  0.00    +0.000 C 
ATOM      9  C   UNL     1       6.291   5.330  19.247  0.00  0.00    +0.000 C 
ATOM     10  N   UNL     1       4.612   4.187  17.757  0.00  0.00    +0.000 N 
ATOM     11  C   UNL     1       4.003   3.149  18.417  0.00  0.00    +0.000 C 
ATOM     12  N   UNL     1       4.071   1.913  17.855  0.00  0.00    +0.000 N 
ATOM     13  N   UNL     1       3.343   3.270  19.526  0.00  0.00    +0.000 NA
ATOM     14  H   UNL     1       2.133   5.607  21.255  0.00  0.00    +0.000 HD
ATOM     15  H   UNL     1       1.656   3.980  21.089  0.00  0.00    +0.000 HD
ATOM     16  H   UNL     1       4.223   1.869  16.861  0.00  0.00    +0.000 HD
ATOM     17  H   UNL     1       3.363   1.279  18.206  0.00  0.00    +0.000 HD
ENDROOT
BRANCH  10  18
ATOM     18  O   UNL     1       5.564   3.822  16.774  0.00  0.00    +0.000 OA
BRANCH  18  19
ATOM     19  C   UNL     1       4.940   3.975  15.489  0.00  0.00    +0.000 C 
BRANCH  19  20
ATOM     20  C   UNL     1       5.905   4.139  14.329  0.00  0.00    +0.000 A 
ATOM     21  C   UNL     1       7.031   4.972  14.352  0.00  0.00    +0.000 A 
ATOM     22  C   UNL     1       7.810   5.145  13.201  0.00  0.00    +0.000 A 
ATOM     23  C   UNL     1       7.482   4.481  12.018  0.00  0.00    +0.000 A 
ATOM     24  C   UNL     1       6.389   3.621  11.991  0.00  0.00    +0.000 A 
ATOM     25  C   UNL     1       5.613   3.449  13.138  0.00  0.00    +0.000 A 
ENDBRANCH  19  20
ENDBRANCH  18  19
ENDBRANCH  10  18
TORSDOF 3
ENDMDL
MODEL 2
REMARK VINA RESULT:      -8.1      2.549      5.401
REMARK  Name = 
REMARK  3 active torsions:
REMARK  status: ('A' for Active; 'I' for Inactive)
REMARK    1  A    between atoms: N_10  and  O_11
REMARK    2  A    between atoms: O_11  and  C_12
REMARK    3  A    between atoms: C_12  and  C_13
REMARK                            x       y       z     vdW  Elec       q    Type
REMARK                         _______ _______ _______ _____ _____    ______ ____
ROOT
ATOM      1  N   UNL     1       8.302   9.237  17.637  0.00  0.00    +0.000 N 
ATOM      2  C   UNL     1       7.855   7.969  17.743  0.00  0.00    +0.000 C 
ATOM      3  N   UNL     1       7.034   7.536  16.854  0.00  0.00    +0.000 NA
ATOM      4  C   UNL     1       6.560   6.144  16.956  0.00  0.00    +0.000 C 
ATOM      5  C   UNL     1       5.073   6.247  16.543  0.00  0.00    +0.000 C 
ATOM      6  C   UNL     1       4.416   5.001  15.956  0.00  0.00    +0.000 C 
ATOM      7  C   UNL     1       5.291   4.165  15.031  0.00  0.00    +0.000 C 
ATOM      8  C   UNL     1       6.739   4.031  15.475  0.00  0.00    +0.000 C 
ATOM      9  C   UNL     1       7.358   5.360  15.892  0.00  0.00    +0.000 C 
ATOM     10  N   UNL     1       6.703   5.591  18.313  0.00  0.00    +0.000 N 
ATOM     11  C   UNL     1       7.735   6.117  19.048  0.00  0.00    +0.000 C 
ATOM     12  N   UNL     1       8.179   5.407  20.118  0.00  0.00    +0.000 N 
ATOM     13  N   UNL     1       8.299   7.260  18.810  0.00  0.00    +0.000 NA
ATOM     14  H   UNL     1       7.699   9.818  17.075  0.00  0.00    +0.000 HD
ATOM     15  H   UNL     1       8.568   9.635  18.529  0.00  0.00    +0.000 HD
ATOM     16  H   UNL     1       7.536   4.754  20.534  0.00  0.00    +0.000 HD
ATOM     17  H   UNL     1       8.700   5.970  20.780  0.00  0.00    +0.000 HD
ENDROOT
BRANCH  10  18
ATOM     18  O   UNL     1       6.455   4.208  18.495  0.00  0.00    +0.000 OA
BRANCH  18  19
ATOM     19  C   UNL     1       5.462   4.079  19.526  0.00  0.00    +0.000 C 
BRANCH  19  20
ATOM     20  C   UNL     1       4.076   3.711  19.029  0.00  0.00    +0.000 A 
ATOM     21  C   UNL     1       3.783   2.557  18.290  0.00  0.00    +0.000 A 
ATOM     22  C   UNL     1       2.495   2.348  17.781  0.00  0.00    +0.000 A 
ATOM     23  C   UNL     1       1.483   3.281  18.011  0.00  0.00    +0.000 A 
ATOM     24  C   UNL     1       1.749   4.412  18.774  0.00  0.00    +0.000 A 
ATOM     25  C   UNL     1       3.033   4.621  19.282  0.00  0.00    +0.000 A 
ENDBRANCH  19  20
ENDBRANCH  18  19
ENDBRANCH  10  18
TORSDOF 3
ENDMDL
MODEL 3
REMARK VINA RESULT:      -8.0      2.568      5.364
REMARK  Name = 
REMARK  3 active torsions:
REMARK  status: ('A' for Active; 'I' for Inactive)
REMARK    1  A    between atoms: N_10  and  O_11
REMARK    2  A    between atoms: O_11  and  C_12
REMARK    3  A    between atoms: C_12  and  C_13
REMARK                            x       y       z     vdW  Elec       q    Type
REMARK                         _______ _______ _______ _____ _____    ______ ____
ROOT
ATOM      1  N   UNL     1       8.429   9.225  17.807  0.00  0.00    +0.000 N 
ATOM      2  C   UNL     1       7.944   7.968  17.871  0.00  0.00    +0.000 C 
ATOM      3  N   UNL     1       7.115   7.588  16.966  0.00  0.00    +0.000 NA
ATOM      4  C   UNL     1       6.599   6.209  17.021  0.00  0.00    +0.000 C 
ATOM      5  C   UNL     1       5.118   6.369  16.605  0.00  0.00    +0.000 C 
ATOM      6  C   UNL     1       4.428   5.161  15.976  0.00  0.00    +0.000 C 
ATOM      7  C   UNL     1       5.282   4.329  15.029  0.00  0.00    +0.000 C 
ATOM      8  C   UNL     1       6.724   4.139  15.475  0.00  0.00    +0.000 C 
ATOM      9  C   UNL     1       7.379   5.435  15.937  0.00  0.00    +0.000 C 
ATOM     10  N   UNL     1       6.718   5.609  18.361  0.00  0.00    +0.000 N 
ATOM     11  C   UNL     1       7.762   6.081  19.117  0.00  0.00    +0.000 C 
ATOM     12  N   UNL     1       8.178   5.324  20.166  0.00  0.00    +0.000 N 
ATOM     13  N   UNL     1       8.360   7.213  18.917  0.00  0.00    +0.000 NA
ATOM     14  H   UNL     1       7.846   9.841  17.261  0.00  0.00    +0.000 HD
ATOM     15  H   UNL     1       8.701   9.587  18.712  0.00  0.00    +0.000 HD
ATOM     16  H   UNL     1       7.514   4.678  20.558  0.00  0.00    +0.000 HD
ATOM     17  H   UNL     1       8.712   5.851  20.847  0.00  0.00    +0.000 HD
ENDROOT
BRANCH  10  18
ATOM     18  O   UNL     1       6.429   4.229  18.498  0.00  0.00    +0.000 OA
BRANCH  18  19
ATOM     19  C   UNL     1       5.428   4.097  19.521  0.00  0.00    +0.000 C 
BRANCH  19  20
ATOM     20  C   UNL     1       4.035   3.782  19.009  0.00  0.00    +0.000 A 
ATOM     21  C   UNL     1       2.912   4.591  19.227  0.00  0.00    +0.000 A 
ATOM     22  C   UNL     1       1.643   4.173  18.809  0.00  0.00    +0.000 A 
ATOM     23  C   UNL     1       1.479   2.948  18.160  0.00  0.00    +0.000 A 
ATOM     24  C   UNL     1       2.589   2.151  17.903  0.00  0.00    +0.000 A 
ATOM     25  C   UNL     1       3.855   2.569  18.320  0.00  0.00    +0.000 A 
ENDBRANCH  19  20
ENDBRANCH  18  19
ENDBRANCH  10  18
TORSDOF 3
ENDMDL
MODEL 4
REMARK VINA RESULT:      -7.7      0.139      1.057
REMARK  Name = 
REMARK  3 active torsions:
REMARK  status: ('A' for Active; 'I' for Inactive)
REMARK    1  A    between atoms: N_10  and  O_11
REMARK    2  A    between atoms: O_11  and  C_12
REMARK    3  A    between atoms: C_12  and  C_13
REMARK                            x       y       z     vdW  Elec       q    Type
REMARK                         _______ _______ _______ _____ _____    ______ ____
ROOT
ATOM      1  N   UNL     1       2.425   4.689  21.119  0.00  0.00    +0.000 N 
ATOM      2  C   UNL     1       3.293   4.541  20.098  0.00  0.00    +0.000 C 
ATOM      3  N   UNL     1       3.937   5.575  19.690  0.00  0.00    +0.000 NA
ATOM      4  C   UNL     1       4.900   5.413  18.587  0.00  0.00    +0.000 C 
ATOM      5  C   UNL     1       4.701   6.699  17.751  0.00  0.00    +0.000 C 
ATOM      6  C   UNL     1       5.878   7.181  16.908  0.00  0.00    +0.000 C 
ATOM      7  C   UNL     1       7.254   7.024  17.540  0.00  0.00    +0.000 C 
ATOM      8  C   UNL     1       7.453   5.733  18.319  0.00  0.00    +0.000 C 
ATOM      9  C   UNL     1       6.292   5.419  19.255  0.00  0.00    +0.000 C 
ATOM     10  N   UNL     1       4.647   4.206  17.782  0.00  0.00    +0.000 N 
ATOM     11  C   UNL     1       4.059   3.168  18.462  0.00  0.00    +0.000 C 
ATOM     12  N   UNL     1       4.158   1.923  17.927  0.00  0.00    +0.000 N 
ATOM     13  N   UNL     1       3.391   3.298  19.565  0.00  0.00    +0.000 NA
ATOM     14  H   UNL     1       2.120   5.643  21.238  0.00  0.00    +0.000 HD
ATOM     15  H   UNL     1       1.681   4.003  21.105  0.00  0.00    +0.000 HD
ATOM     16  H   UNL     1       4.315   1.861  16.935  0.00  0.00    +0.000 HD
ATOM     17  H   UNL     1       3.463   1.280  18.289  0.00  0.00    +0.000 HD
ENDROOT
BRANCH  10  18
ATOM     18  O   UNL     1       5.612   3.841  16.812  0.00  0.00    +0.000 OA
BRANCH  18  19
ATOM     19  C   UNL     1       4.936   3.736  15.548  0.00  0.00    +0.000 C 
BRANCH  19  20
ATOM     20  C   UNL     1       5.800   4.043  14.338  0.00  0.00    +0.000 A 
ATOM     21  C   UNL     1       5.628   3.461  13.076  0.00  0.00    +0.000 A 
ATOM     22  C   UNL     1       6.536   3.722  12.043  0.00  0.00    +0.000 A 
ATOM     23  C   UNL     1       7.621   4.575  12.252  0.00  0.00    +0.000 A 
ATOM     24  C   UNL     1       7.784   5.190  13.489  0.00  0.00    +0.000 A 
ATOM     25  C   UNL     1       6.878   4.930  14.519  0.00  0.00    +0.000 A 
ENDBRANCH  19  20
ENDBRANCH  18  19
ENDBRANCH  10  18
TORSDOF 3
ENDMDL
MODEL 5
REMARK VINA RESULT:      -7.5      1.909      3.375
REMARK  Name = 
REMARK  3 active torsions:
REMARK  status: ('A' for Active; 'I' for Inactive)
REMARK    1  A    between atoms: N_10  and  O_11
REMARK    2  A    between atoms: O_11  and  C_12
REMARK    3  A    between atoms: C_12  and  C_13
REMARK                            x       y       z     vdW  Elec       q    Type
REMARK                         _______ _______ _______ _____ _____    ______ ____
ROOT
ATOM      1  N   UNL     1       8.171   5.442  20.730  0.00  0.00    +0.000 N 
ATOM      2  C   UNL     1       7.348   5.462  19.663  0.00  0.00    +0.000 C 
ATOM      3  N   UNL     1       6.220   4.852  19.750  0.00  0.00    +0.000 NA
ATOM      4  C   UNL     1       5.310   4.889  18.592  0.00  0.00    +0.000 C 
ATOM      5  C   UNL     1       4.712   3.463  18.567  0.00  0.00    +0.000 C 
ATOM      6  C   UNL     1       3.337   3.286  17.927  0.00  0.00    +0.000 C 
ATOM      7  C   UNL     1       2.338   4.406  18.184  0.00  0.00    +0.000 C 
ATOM      8  C   UNL     1       2.930   5.806  18.158  0.00  0.00    +0.000 C 
ATOM      9  C   UNL     1       4.221   5.920  18.960  0.00  0.00    +0.000 C 
ATOM     10  N   UNL     1       6.003   5.202  17.331  0.00  0.00    +0.000 N 
ATOM     11  C   UNL     1       7.126   5.980  17.465  0.00  0.00    +0.000 C 
ATOM     12  N   UNL     1       7.580   6.633  16.363  0.00  0.00    +0.000 N 
ATOM     13  N   UNL     1       7.801   6.114  18.564  0.00  0.00    +0.000 NA
ATOM     14  H   UNL     1       7.974   4.680  21.361  0.00  0.00    +0.000 HD
ATOM     15  H   UNL     1       9.146   5.544  20.477  0.00  0.00    +0.000 HD
ATOM     16  H   UNL     1       7.325   6.252  15.467  0.00  0.00    +0.000 HD
ATOM     17  H   UNL     1       8.549   6.919  16.443  0.00  0.00    +0.000 HD
ENDROOT
BRANCH  10  18
ATOM     18  O   UNL     1       5.212   5.449  16.183  0.00  0.00    +0.000 OA
BRANCH  18  19
ATOM     19  C   UNL     1       5.147   4.225  15.432  0.00  0.00    +0.000 C 
BRANCH  19  20
ATOM     20  C   UNL     1       5.971   4.218  14.157  0.00  0.00    +0.000 A 
ATOM     21  C   UNL     1       7.121   4.992  13.957  0.00  0.00    +0.000 A 
ATOM     22  C   UNL     1       7.762   5.003  12.711  0.00  0.00    +0.000 A 
ATOM     23  C   UNL     1       7.269   4.236  11.655  0.00  0.00    +0.000 A 
ATOM     24  C   UNL     1       6.150   3.433  11.850  0.00  0.00    +0.000 A 
ATOM     25  C   UNL     1       5.512   3.422  13.092  0.00  0.00    +0.000 A 
ENDBRANCH  19  20
ENDBRANCH  18  19
ENDBRANCH  10  18
TORSDOF 3
ENDMDL
MODEL 6
REMARK VINA RESULT:      -7.4      1.914      3.530
REMARK  Name = 
REMARK  3 active torsions:
REMARK  status: ('A' for Active; 'I' for Inactive)
REMARK    1  A    between atoms: N_10  and  O_11
REMARK    2  A    between atoms: O_11  and  C_12
REMARK    3  A    between atoms: C_12  and  C_13
REMARK                            x       y       z     vdW  Elec       q    Type
REMARK                         _______ _______ _______ _____ _____    ______ ____
ROOT
ATOM      1  N   UNL     1       8.184   5.432  20.725  0.00  0.00    +0.000 N 
ATOM      2  C   UNL     1       7.367   5.450  19.653  0.00  0.00    +0.000 C 
ATOM      3  N   UNL     1       6.226   4.865  19.745  0.00  0.00    +0.000 NA
ATOM      4  C   UNL     1       5.323   4.901  18.582  0.00  0.00    +0.000 C 
ATOM      5  C   UNL     1       4.694   3.488  18.578  0.00  0.00    +0.000 C 
ATOM      6  C   UNL     1       3.320   3.329  17.933  0.00  0.00    +0.000 C 
ATOM      7  C   UNL     1       2.343   4.473  18.166  0.00  0.00    +0.000 C 
ATOM      8  C   UNL     1       2.965   5.860  18.118  0.00  0.00    +0.000 C 
ATOM      9  C   UNL     1       4.254   5.961  18.925  0.00  0.00    +0.000 C 
ATOM     10  N   UNL     1       6.029   5.177  17.319  0.00  0.00    +0.000 N 
ATOM     11  C   UNL     1       7.167   5.934  17.445  0.00  0.00    +0.000 C 
ATOM     12  N   UNL     1       7.641   6.556  16.334  0.00  0.00    +0.000 N 
ATOM     13  N   UNL     1       7.839   6.073  18.545  0.00  0.00    +0.000 NA
ATOM     14  H   UNL     1       7.968   4.685  21.368  0.00  0.00    +0.000 HD
ATOM     15  H   UNL     1       9.162   5.508  20.475  0.00  0.00    +0.000 HD
ATOM     16  H   UNL     1       7.382   6.166  15.443  0.00  0.00    +0.000 HD
ATOM     17  H   UNL     1       8.615   6.824  16.414  0.00  0.00    +0.000 HD
ENDROOT
BRANCH  10  18
ATOM     18  O   UNL     1       5.249   5.419  16.162  0.00  0.00    +0.000 OA
BRANCH  18  19
ATOM     19  C   UNL     1       5.138   4.178  15.447  0.00  0.00    +0.000 C 
BRANCH  19  20
ATOM     20  C   UNL     1       5.791   4.173  14.077  0.00  0.00    +0.000 A 
ATOM     21  C   UNL     1       5.344   3.407  12.993  0.00  0.00    +0.000 A 
ATOM     22  C   UNL     1       6.069   3.382  11.794  0.00  0.00    +0.000 A 
ATOM     23  C   UNL     1       7.240   4.129  11.659  0.00  0.00    +0.000 A 
ATOM     24  C   UNL     1       7.675   4.924  12.714  0.00  0.00    +0.000 A 
ATOM     25  C   UNL     1       6.953   4.949  13.909  0.00  0.00    +0.000 A 
ENDBRANCH  19  20
ENDBRANCH  18  19
ENDBRANCH  10  18
TORSDOF 3
ENDMDL
MODEL 7
REMARK VINA RESULT:      -7.3      2.051      3.531
REMARK  Name = 
REMARK  3 active torsions:
REMARK  status: ('A' for Active; 'I' for Inactive)
REMARK    1  A    between atoms: N_10  and  O_11
REMARK    2  A    between atoms: O_11  and  C_12
REMARK    3  A    between atoms: C_12  and  C_13
REMARK                            x       y       z     vdW  Elec       q    Type
REMARK                         _______ _______ _______ _____ _____    ______ ____
ROOT
ATOM      1  N   UNL     1       0.771   1.527  18.533  0.00  0.00    +0.000 N 
ATOM      2  C   UNL     1       1.648   2.497  18.860  0.00  0.00    +0.000 C 
ATOM      3  N   UNL     1       1.316   3.719  18.645  0.00  0.00    +0.000 NA
ATOM      4  C   UNL     1       2.265   4.782  19.021  0.00  0.00    +0.000 C 
ATOM      5  C   UNL     1       2.126   5.803  17.868  0.00  0.00    +0.000 C 
ATOM      6  C   UNL     1       2.468   7.260  18.171  0.00  0.00    +0.000 C 
ATOM      7  C   UNL     1       2.045   7.767  19.543  0.00  0.00    +0.000 C 
ATOM      8  C   UNL     1       2.233   6.770  20.675  0.00  0.00    +0.000 C 
ATOM      9  C   UNL     1       1.714   5.378  20.334  0.00  0.00    +0.000 C 
ATOM     10  N   UNL     1       3.649   4.294  19.140  0.00  0.00    +0.000 N 
ATOM     11  C   UNL     1       3.769   2.976  19.507  0.00  0.00    +0.000 C 
ATOM     12  N   UNL     1       4.960   2.567  20.019  0.00  0.00    +0.000 N 
ATOM     13  N   UNL     1       2.835   2.088  19.372  0.00  0.00    +0.000 NA
ATOM     14  H   UNL     1       0.090   1.829  17.852  0.00  0.00    +0.000 HD
ATOM     15  H   UNL     1       1.220   0.645  18.322  0.00  0.00    +0.000 HD
ATOM     16  H   UNL     1       5.774   3.108  19.777  0.00  0.00    +0.000 HD
ATOM     17  H   UNL     1       5.087   1.563  19.973  0.00  0.00    +0.000 HD
ENDROOT
BRANCH  10  18
ATOM     18  O   UNL     1       4.620   5.176  19.675  0.00  0.00    +0.000 OA
BRANCH  18  19
ATOM     19  C   UNL     1       5.854   4.933  18.979  0.00  0.00    +0.000 C 
BRANCH  19  20
ATOM     20  C   UNL     1       5.785   5.132  17.476  0.00  0.00    +0.000 A 
ATOM     21  C   UNL     1       5.517   6.358  16.854  0.00  0.00    +0.000 A 
ATOM     22  C   UNL     1       5.368   6.431  15.463  0.00  0.00    +0.000 A 
ATOM     23  C   UNL     1       5.494   5.286  14.677  0.00  0.00    +0.000 A 
ATOM     24  C   UNL     1       5.798   4.068  15.277  0.00  0.00    +0.000 A 
ATOM     25  C   UNL     1       5.947   3.996  16.663  0.00  0.00    +0.000 A 
ENDBRANCH  19  20
ENDBRANCH  18  19
ENDBRANCH  10  18
TORSDOF 3
ENDMDL
MODEL 8
REMARK VINA RESULT:      -7.3      2.144      5.374
REMARK  Name = 
REMARK  3 active torsions:
REMARK  status: ('A' for Active; 'I' for Inactive)
REMARK    1  A    between atoms: N_10  and  O_11
REMARK    2  A    between atoms: O_11  and  C_12
REMARK    3  A    between atoms: C_12  and  C_13
REMARK                            x       y       z     vdW  Elec       q    Type
REMARK                         _______ _______ _______ _____ _____    ______ ____
ROOT
ATOM      1  N   UNL     1       8.413   6.697  19.336  0.00  0.00    +0.000 N 
ATOM      2  C   UNL     1       7.516   5.916  18.702  0.00  0.00    +0.000 C 
ATOM      3  N   UNL     1       7.276   6.147  17.461  0.00  0.00    +0.000 NA
ATOM      4  C   UNL     1       6.311   5.282  16.759  0.00  0.00    +0.000 C 
ATOM      5  C   UNL     1       5.547   6.271  15.848  0.00  0.00    +0.000 C 
ATOM      6  C   UNL     1       4.914   5.713  14.577  0.00  0.00    +0.000 C 
ATOM      7  C   UNL     1       5.721   4.648  13.847  0.00  0.00    +0.000 C 
ATOM      8  C   UNL     1       6.428   3.653  14.754  0.00  0.00    +0.000 C 
ATOM      9  C   UNL     1       7.167   4.320  15.907  0.00  0.00    +0.000 C 
ATOM     10  N   UNL     1       5.397   4.585  17.680  0.00  0.00    +0.000 N 
ATOM     11  C   UNL     1       5.913   4.326  18.925  0.00  0.00    +0.000 C 
ATOM     12  N   UNL     1       5.312   3.365  19.673  0.00  0.00    +0.000 N 
ATOM     13  N   UNL     1       6.918   4.956  19.449  0.00  0.00    +0.000 NA
ATOM     14  H   UNL     1       8.555   7.584  18.876  0.00  0.00    +0.000 HD
ATOM     15  H   UNL     1       8.247   6.757  20.333  0.00  0.00    +0.000 HD
ATOM     16  H   UNL     1       4.350   3.155  19.464  0.00  0.00    +0.000 HD
ATOM     17  H   UNL     1       5.526   3.439  20.661  0.00  0.00    +0.000 HD
ENDROOT
BRANCH  10  18
ATOM     18  O   UNL     1       4.548   3.586  17.142  0.00  0.00    +0.000 OA
BRANCH  18  19
ATOM     19  C   UNL     1       3.232   4.151  17.030  0.00  0.00    +0.000 C 
BRANCH  19  20
ATOM     20  C   UNL     1       2.360   3.977  18.261  0.00  0.00    +0.000 A 
ATOM     21  C   UNL     1       2.117   4.982  19.205  0.00  0.00    +0.000 A 
ATOM     22  C   UNL     1       1.386   4.705  20.366  0.00  0.00    +0.000 A 
ATOM     23  C   UNL     1       0.880   3.424  20.595  0.00  0.00    +0.000 A 
ATOM     24  C   UNL     1       1.081   2.425  19.649  0.00  0.00    +0.000 A 
ATOM     25  C   UNL     1       1.810   2.702  18.491  0.00  0.00    +0.000 A 
ENDBRANCH  19  20
ENDBRANCH  18  19
ENDBRANCH  10  18
TORSDOF 3
ENDMDL
MODEL 9
REMARK VINA RESULT:      -7.3      2.040      3.614
REMARK  Name = 
REMARK  3 active torsions:
REMARK  status: ('A' for Active; 'I' for Inactive)
REMARK    1  A    between atoms: N_10  and  O_11
REMARK    2  A    between atoms: O_11  and  C_12
REMARK    3  A    between atoms: C_12  and  C_13
REMARK                            x       y       z     vdW  Elec       q    Type
REMARK                         _______ _______ _______ _____ _____    ______ ____
ROOT
ATOM      1  N   UNL     1       0.853   1.510  18.560  0.00  0.00    +0.000 N 
ATOM      2  C   UNL     1       1.715   2.494  18.886  0.00  0.00    +0.000 C 
ATOM      3  N   UNL     1       1.361   3.711  18.674  0.00  0.00    +0.000 NA
ATOM      4  C   UNL     1       2.294   4.789  19.048  0.00  0.00    +0.000 C 
ATOM      5  C   UNL     1       2.132   5.810  17.897  0.00  0.00    +0.000 C 
ATOM      6  C   UNL     1       2.451   7.271  18.202  0.00  0.00    +0.000 C 
ATOM      7  C   UNL     1       2.026   7.769  19.577  0.00  0.00    +0.000 C 
ATOM      8  C   UNL     1       2.236   6.773  20.707  0.00  0.00    +0.000 C 
ATOM      9  C   UNL     1       1.739   5.373  20.365  0.00  0.00    +0.000 C 
ATOM     10  N   UNL     1       3.686   4.324  19.161  0.00  0.00    +0.000 N 
ATOM     11  C   UNL     1       3.831   3.008  19.524  0.00  0.00    +0.000 C 
ATOM     12  N   UNL     1       5.030   2.618  20.031  0.00  0.00    +0.000 N 
ATOM     13  N   UNL     1       2.911   2.104  19.392  0.00  0.00    +0.000 NA
ATOM     14  H   UNL     1       0.164   1.802  17.883  0.00  0.00    +0.000 HD
ATOM     15  H   UNL     1       1.316   0.636  18.346  0.00  0.00    +0.000 HD
ATOM     16  H   UNL     1       5.834   3.173  19.786  0.00  0.00    +0.000 HD
ATOM     17  H   UNL     1       5.174   1.616  19.982  0.00  0.00    +0.000 HD
ENDROOT
BRANCH  10  18
ATOM     18  O   UNL     1       4.645   5.221  19.692  0.00  0.00    +0.000 OA
BRANCH  18  19
ATOM     19  C   UNL     1       5.857   5.055  18.940  0.00  0.00    +0.000 C 
BRANCH  19  20
ATOM     20  C   UNL     1       5.680   5.099  17.433  0.00  0.00    +0.000 A 
ATOM     21  C   UNL     1       5.788   3.983  16.593  0.00  0.00    +0.000 A 
ATOM     22  C   UNL     1       5.714   4.131  15.202  0.00  0.00    +0.000 A 
ATOM     23  C   UNL     1       5.522   5.391  14.634  0.00  0.00    +0.000 A 
ATOM     24  C   UNL     1       5.376   6.502  15.456  0.00  0.00    +0.000 A 
ATOM     25  C   UNL     1       5.449   6.355  16.843  0.00  0.00    +0.000 A 
ENDBRANCH  19  20
ENDBRANCH  18  19
ENDBRANCH  10  18
TORSDOF 3
ENDMDL
