MODEL 1
REMARK VINA RESULT:      -8.4      0.000      0.000
REMARK  Name = 
REMARK  10 active torsions:
REMARK  status: ('A' for Active; 'I' for Inactive)
REMARK    1  A    between atoms: N_2  and  C_3
REMARK    2  A    between atoms: C_6  and  O_7
REMARK    3  A    between atoms: O_7  and  C_8
REMARK    4  A    between atoms: C_11  and  C_12
REMARK    5  A    between atoms: C_14  and  C_15
REMARK    6  A    between atoms: C_19  and  C_20
REMARK    7  A    between atoms: C_20  and  O_21
REMARK    8  A    between atoms: C_20  and  C_22
REMARK    9  A    between atoms: C_22  and  O_23
REMARK   10  A    between atoms: C_27  and  C_28
REMARK                            x       y       z     vdW  Elec       q    Type
REMARK                         _______ _______ _______ _____ _____    ______ ____
ROOT
ATOM      1  C   UNL     1       0.999  10.067  18.759  0.00  0.00    +0.000 A 
ATOM      2  C   UNL     1       0.875   9.448  20.002  0.00  0.00    +0.000 A 
ATOM      3  C   UNL     1       1.509   8.215  20.250  0.00  0.00    +0.000 A 
ATOM      4  C   UNL     1       2.280   7.569  19.264  0.00  0.00    +0.000 A 
ATOM      5  C   UNL     1       2.427   8.242  18.034  0.00  0.00    +0.000 A 
ATOM      6  C   UNL     1       1.769   9.449  17.771  0.00  0.00    +0.000 A 
ENDROOT
BRANCH   4   7
ATOM      7  C   UNL     1       2.862   6.222  19.461  0.00  0.00    +0.000 A 
ATOM      8  N   UNL     1       2.238   5.358  20.273  0.00  0.00    +0.000 NA
ATOM      9  C   UNL     1       2.770   4.109  20.317  0.00  0.00    +0.000 A 
ATOM     10  C   UNL     1       3.874   3.703  19.597  0.00  0.00    +0.000 A 
ATOM     11  C   UNL     1       4.454   4.660  18.797  0.00  0.00    +0.000 A 
ATOM     12  N   UNL     1       3.958   5.916  18.727  0.00  0.00    +0.000 NA
BRANCH   9  13
ATOM     13  C   UNL     1       2.091   3.116  21.206  0.00  0.00    +0.000 C 
ATOM     14  N   UNL     1       0.760   2.912  20.971  0.00  0.00    +0.000 N 
ATOM     15  O   UNL     1       2.684   2.517  22.094  0.00  0.00    +0.000 OA
ATOM     16  H   UNL     1       0.287   3.410  20.227  0.00  0.00    +0.000 HD
ATOM     17  H   UNL     1       0.257   2.247  21.542  0.00  0.00    +0.000 HD
ENDBRANCH   9  13
BRANCH  11  18
ATOM     18  C   UNL     1       5.688   4.312  17.975  0.00  0.00    +0.000 C 
BRANCH  18  19
ATOM     19  O   UNL     1       5.450   4.627  16.598  0.00  0.00    +0.000 OA
ATOM     20  H   UNL     1       5.136   3.815  16.161  0.00  0.00    +0.000 HD
ENDBRANCH  18  19
BRANCH  18  21
ATOM     21  C   UNL     1       6.969   5.029  18.442  0.00  0.00    +0.000 C 
BRANCH  21  22
ATOM     22  O   UNL     1       6.901   5.428  19.808  0.00  0.00    +0.000 OA
ATOM     23  H   UNL     1       6.378   6.254  19.817  0.00  0.00    +0.000 HD
ENDBRANCH  21  22
ENDBRANCH  18  21
ENDBRANCH  11  18
ENDBRANCH   4   7
BRANCH   1  24
ATOM     24  O   UNL     1       0.316  11.257  18.560  0.00  0.00    +0.000 OA
BRANCH  24  28
ATOM     25  C   UNL     1      -3.841  11.042  18.343  0.00  0.00    +0.000 A 
ATOM     26  C   UNL     1      -3.081  10.136  17.622  0.00  0.00    +0.000 A 
ATOM     27  C   UNL     1      -1.695  10.254  17.655  0.00  0.00    +0.000 A 
ATOM     28  C   UNL     1      -1.064  11.220  18.464  0.00  0.00    +0.000 A 
ATOM     29  C   UNL     1      -1.844  12.169  19.151  0.00  0.00    +0.000 A 
ATOM     30  C   UNL     1      -3.247  12.063  19.083  0.00  0.00    +0.000 A 
BRANCH  29  31
ATOM     31  C   UNL     1      -1.300  13.321  19.962  0.00  0.00    +0.000 C 
ATOM     32  F   UNL     1      -2.220  14.120  20.559  0.00  0.00    +0.000 F 
ATOM     33  F   UNL     1      -0.485  12.881  20.967  0.00  0.00    +0.000 F 
ATOM     34  F   UNL     1      -0.517  14.146  19.208  0.00  0.00    +0.000 F 
ENDBRANCH  29  31
BRANCH  25  36
ATOM     35  C   UNL     1      -6.384  10.848  18.281  0.00  0.00    +0.000 C 
ATOM     36  N   UNL     1      -5.224  10.936  18.313  0.00  0.00    +0.000 NA
ENDBRANCH  25  36
ENDBRANCH  24  28
ENDBRANCH   1  24
TORSDOF 10
ENDMDL
MODEL 2
REMARK VINA RESULT:      -8.4      2.801      4.585
REMARK  Name = 
REMARK  10 active torsions:
REMARK  status: ('A' for Active; 'I' for Inactive)
REMARK    1  A    between atoms: N_2  and  C_3
REMARK    2  A    between atoms: C_6  and  O_7
REMARK    3  A    between atoms: O_7  and  C_8
REMARK    4  A    between atoms: C_11  and  C_12
REMARK    5  A    between atoms: C_14  and  C_15
REMARK    6  A    between atoms: C_19  and  C_20
REMARK    7  A    between atoms: C_20  and  O_21
REMARK    8  A    between atoms: C_20  and  C_22
REMARK    9  A    between atoms: C_22  and  O_23
REMARK   10  A    between atoms: C_27  and  C_28
REMARK                            x       y       z     vdW  Elec       q    Type
REMARK                         _______ _______ _______ _____ _____    ______ ____
ROOT
ATOM      1  C   UNL     1       1.110   9.159  19.642  0.00  0.00    +0.000 A 
ATOM      2  C   UNL     1       1.432   8.069  20.449  0.00  0.00    +0.000 A 
ATOM      3  C   UNL     1       2.279   7.053  19.968  0.00  0.00    +0.000 A 
ATOM      4  C   UNL     1       2.824   7.098  18.669  0.00  0.00    +0.000 A 
ATOM      5  C   UNL     1       2.520   8.234  17.895  0.00  0.00    +0.000 A 
ATOM      6  C   UNL     1       1.650   9.229  18.355  0.00  0.00    +0.000 A 
ENDROOT
BRANCH   4   7
ATOM      7  C   UNL     1       3.624   5.989  18.101  0.00  0.00    +0.000 A 
ATOM      8  N   UNL     1       4.874   6.237  17.683  0.00  0.00    +0.000 NA
ATOM      9  C   UNL     1       5.580   5.150  17.278  0.00  0.00    +0.000 A 
ATOM     10  C   UNL     1       5.096   3.858  17.274  0.00  0.00    +0.000 A 
ATOM     11  C   UNL     1       3.802   3.701  17.711  0.00  0.00    +0.000 A 
ATOM     12  N   UNL     1       3.062   4.757  18.121  0.00  0.00    +0.000 NA
BRANCH   9  13
ATOM     13  C   UNL     1       6.982   5.390  16.815  0.00  0.00    +0.000 C 
ATOM     14  N   UNL     1       7.804   4.298  16.800  0.00  0.00    +0.000 N 
ATOM     15  O   UNL     1       7.379   6.496  16.469  0.00  0.00    +0.000 OA
ATOM     16  H   UNL     1       7.457   3.389  17.081  0.00  0.00    +0.000 HD
ATOM     17  H   UNL     1       8.760   4.408  16.490  0.00  0.00    +0.000 HD
ENDBRANCH   9  13
BRANCH  11  18
ATOM     18  C   UNL     1       3.173   2.314  17.730  0.00  0.00    +0.000 C 
BRANCH  18  19
ATOM     19  O   UNL     1       4.124   1.364  18.224  0.00  0.00    +0.000 OA
ATOM     20  H   UNL     1       4.768   1.197  17.513  0.00  0.00    +0.000 HD
ENDBRANCH  18  19
BRANCH  18  21
ATOM     21  C   UNL     1       1.888   2.226  18.575  0.00  0.00    +0.000 C 
BRANCH  21  22
ATOM     22  O   UNL     1       0.842   3.049  18.063  0.00  0.00    +0.000 OA
ATOM     23  H   UNL     1       0.012   2.563  18.240  0.00  0.00    +0.000 HD
ENDBRANCH  21  22
ENDBRANCH  18  21
ENDBRANCH  11  18
ENDBRANCH   4   7
BRANCH   1  24
ATOM     24  O   UNL     1       0.237  10.106  20.154  0.00  0.00    +0.000 OA
BRANCH  24  28
ATOM     25  C   UNL     1       0.953  14.081  19.123  0.00  0.00    +0.000 A 
ATOM     26  C   UNL     1       1.715  13.495  20.119  0.00  0.00    +0.000 A 
ATOM     27  C   UNL     1       1.428  12.188  20.497  0.00  0.00    +0.000 A 
ATOM     28  C   UNL     1       0.439  11.436  19.831  0.00  0.00    +0.000 A 
ATOM     29  C   UNL     1      -0.366  12.055  18.857  0.00  0.00    +0.000 A 
ATOM     30  C   UNL     1      -0.091  13.392  18.506  0.00  0.00    +0.000 A 
BRANCH  29  31
ATOM     31  C   UNL     1      -1.529  11.405  18.146  0.00  0.00    +0.000 C 
ATOM     32  F   UNL     1      -2.578  11.038  18.924  0.00  0.00    +0.000 F 
ATOM     33  F   UNL     1      -2.050  12.228  17.187  0.00  0.00    +0.000 F 
ATOM     34  F   UNL     1      -1.147  10.280  17.474  0.00  0.00    +0.000 F 
ENDBRANCH  29  31
BRANCH  25  36
ATOM     35  C   UNL     1       1.449  16.483  18.421  0.00  0.00    +0.000 C 
ATOM     36  N   UNL     1       1.227  15.386  18.742  0.00  0.00    +0.000 NA
ENDBRANCH  25  36
ENDBRANCH  24  28
ENDBRANCH   1  24
TORSDOF 10
ENDMDL
MODEL 3
REMARK VINA RESULT:      -8.3      1.859      3.561
REMARK  Name = 
REMARK  10 active torsions:
REMARK  status: ('A' for Active; 'I' for Inactive)
REMARK    1  A    between atoms: N_2  and  C_3
REMARK    2  A    between atoms: C_6  and  O_7
REMARK    3  A    between atoms: O_7  and  C_8
REMARK    4  A    between atoms: C_11  and  C_12
REMARK    5  A    between atoms: C_14  and  C_15
REMARK    6  A    between atoms: C_19  and  C_20
REMARK    7  A    between atoms: C_20  and  O_21
REMARK    8  A    between atoms: C_20  and  C_22
REMARK    9  A    between atoms: C_22  and  O_23
REMARK   10  A    between atoms: C_27  and  C_28
REMARK                            x       y       z     vdW  Elec       q    Type
REMARK                         _______ _______ _______ _____ _____    ______ ____
ROOT
ATOM      1  C   UNL     1       1.400   9.333  19.364  0.00  0.00    +0.000 A 
ATOM      2  C   UNL     1       1.932   9.335  18.076  0.00  0.00    +0.000 A 
ATOM      3  C   UNL     1       2.614   8.204  17.586  0.00  0.00    +0.000 A 
ATOM      4  C   UNL     1       2.783   7.046  18.370  0.00  0.00    +0.000 A 
ATOM      5  C   UNL     1       2.193   7.057  19.649  0.00  0.00    +0.000 A 
ATOM      6  C   UNL     1       1.546   8.190  20.154  0.00  0.00    +0.000 A 
ENDROOT
BRANCH   4   7
ATOM      7  C   UNL     1       3.591   5.889  17.922  0.00  0.00    +0.000 A 
ATOM      8  N   UNL     1       4.853   6.096  17.518  0.00  0.00    +0.000 NA
ATOM      9  C   UNL     1       5.564   4.976  17.227  0.00  0.00    +0.000 A 
ATOM     10  C   UNL     1       5.073   3.690  17.323  0.00  0.00    +0.000 A 
ATOM     11  C   UNL     1       3.766   3.576  17.736  0.00  0.00    +0.000 A 
ATOM     12  N   UNL     1       3.021   4.665  18.033  0.00  0.00    +0.000 NA
BRANCH   9  13
ATOM     13  C   UNL     1       6.979   5.170  16.784  0.00  0.00    +0.000 C 
ATOM     14  N   UNL     1       7.898   4.312  17.319  0.00  0.00    +0.000 N 
ATOM     15  O   UNL     1       7.304   6.043  15.990  0.00  0.00    +0.000 OA
ATOM     16  H   UNL     1       7.611   3.589  17.968  0.00  0.00    +0.000 HD
ATOM     17  H   UNL     1       8.868   4.399  17.047  0.00  0.00    +0.000 HD
ENDBRANCH   9  13
BRANCH  11  18
ATOM     18  C   UNL     1       3.129   2.198  17.858  0.00  0.00    +0.000 C 
BRANCH  18  19
ATOM     19  O   UNL     1       4.120   1.245  18.261  0.00  0.00    +0.000 OA
ATOM     20  H   UNL     1       4.343   1.429  19.191  0.00  0.00    +0.000 HD
ENDBRANCH  18  19
BRANCH  18  21
ATOM     21  C   UNL     1       1.948   2.144  18.846  0.00  0.00    +0.000 C 
BRANCH  21  22
ATOM     22  O   UNL     1       0.758   2.710  18.302  0.00  0.00    +0.000 OA
ATOM     23  H   UNL     1       1.051   3.301  17.580  0.00  0.00    +0.000 HD
ENDBRANCH  21  22
ENDBRANCH  18  21
ENDBRANCH  11  18
ENDBRANCH   4   7
BRANCH   1  24
ATOM     24  O   UNL     1       0.778  10.491  19.807  0.00  0.00    +0.000 OA
BRANCH  24  28
ATOM     25  C   UNL     1      -2.999  11.365  18.275  0.00  0.00    +0.000 A 
ATOM     26  C   UNL     1      -2.216  10.417  17.638  0.00  0.00    +0.000 A 
ATOM     27  C   UNL     1      -0.934  10.176  18.122  0.00  0.00    +0.000 A 
ATOM     28  C   UNL     1      -0.461  10.817  19.284  0.00  0.00    +0.000 A 
ATOM     29  C   UNL     1      -1.242  11.817  19.894  0.00  0.00    +0.000 A 
ATOM     30  C   UNL     1      -2.525  12.079  19.374  0.00  0.00    +0.000 A 
BRANCH  29  31
ATOM     31  C   UNL     1      -0.815  12.658  21.073  0.00  0.00    +0.000 C 
ATOM     32  F   UNL     1       0.319  13.385  20.911  0.00  0.00    +0.000 F 
ATOM     33  F   UNL     1      -1.784  13.557  21.420  0.00  0.00    +0.000 F 
ATOM     34  F   UNL     1      -0.620  11.900  22.191  0.00  0.00    +0.000 F 
ENDBRANCH  29  31
BRANCH  25  36
ATOM     35  C   UNL     1      -5.347  11.825  17.389  0.00  0.00    +0.000 C 
ATOM     36  N   UNL     1      -4.277  11.616  17.797  0.00  0.00    +0.000 NA
ENDBRANCH  25  36
ENDBRANCH  24  28
ENDBRANCH   1  24
TORSDOF 10
ENDMDL
MODEL 4
REMARK VINA RESULT:      -8.3      0.751      1.011
REMARK  Name = 
REMARK  10 active torsions:
REMARK  status: ('A' for Active; 'I' for Inactive)
REMARK    1  A    between atoms: N_2  and  C_3
REMARK    2  A    between atoms: C_6  and  O_7
REMARK    3  A    between atoms: O_7  and  C_8
REMARK    4  A    between atoms: C_11  and  C_12
REMARK    5  A    between atoms: C_14  and  C_15
REMARK    6  A    between atoms: C_19  and  C_20
REMARK    7  A    between atoms: C_20  and  O_21
REMARK    8  A    between atoms: C_20  and  C_22
REMARK    9  A    between atoms: C_22  and  O_23
REMARK   10  A    between atoms: C_27  and  C_28
REMARK                            x       y       z     vdW  Elec       q    Type
REMARK                         _______ _______ _______ _____ _____    ______ ____
ROOT
ATOM      1  C   UNL     1       1.089   9.979  18.789  0.00  0.00    +0.000 A 
ATOM      2  C   UNL     1       0.982   9.356  20.031  0.00  0.00    +0.000 A 
ATOM      3  C   UNL     1       1.585   8.103  20.253  0.00  0.00    +0.000 A 
ATOM      4  C   UNL     1       2.308   7.441  19.241  0.00  0.00    +0.000 A 
ATOM      5  C   UNL     1       2.439   8.118  18.012  0.00  0.00    +0.000 A 
ATOM      6  C   UNL     1       1.812   9.345  17.775  0.00  0.00    +0.000 A 
ENDROOT
BRANCH   4   7
ATOM      7  C   UNL     1       2.855   6.075  19.413  0.00  0.00    +0.000 A 
ATOM      8  N   UNL     1       2.020   5.078  19.738  0.00  0.00    +0.000 NA
ATOM      9  C   UNL     1       2.575   3.839  19.770  0.00  0.00    +0.000 A 
ATOM     10  C   UNL     1       3.900   3.567  19.496  0.00  0.00    +0.000 A 
ATOM     11  C   UNL     1       4.682   4.653  19.181  0.00  0.00    +0.000 A 
ATOM     12  N   UNL     1       4.170   5.905  19.141  0.00  0.00    +0.000 NA
BRANCH   9  13
ATOM     13  C   UNL     1       1.669   2.702  20.119  0.00  0.00    +0.000 C 
ATOM     14  N   UNL     1       1.062   2.772  21.341  0.00  0.00    +0.000 N 
ATOM     15  O   UNL     1       1.476   1.759  19.361  0.00  0.00    +0.000 OA
ATOM     16  H   UNL     1       1.225   3.563  21.952  0.00  0.00    +0.000 HD
ATOM     17  H   UNL     1       0.435   2.030  21.621  0.00  0.00    +0.000 HD
ENDBRANCH   9  13
BRANCH  11  18
ATOM     18  C   UNL     1       6.162   4.457  18.877  0.00  0.00    +0.000 C 
BRANCH  18  19
ATOM     19  O   UNL     1       6.326   4.116  17.496  0.00  0.00    +0.000 OA
ATOM     20  H   UNL     1       7.073   3.494  17.433  0.00  0.00    +0.000 HD
ENDBRANCH  18  19
BRANCH  18  21
ATOM     21  C   UNL     1       7.031   5.687  19.199  0.00  0.00    +0.000 C 
BRANCH  21  22
ATOM     22  O   UNL     1       7.837   5.495  20.359  0.00  0.00    +0.000 OA
ATOM     23  H   UNL     1       7.647   6.257  20.943  0.00  0.00    +0.000 HD
ENDBRANCH  21  22
ENDBRANCH  18  21
ENDBRANCH  11  18
ENDBRANCH   4   7
BRANCH   1  24
ATOM     24  O   UNL     1       0.437  11.190  18.617  0.00  0.00    +0.000 OA
BRANCH  24  28
ATOM     25  C   UNL     1      -3.718  11.078  18.302  0.00  0.00    +0.000 A 
ATOM     26  C   UNL     1      -2.963  10.160  17.591  0.00  0.00    +0.000 A 
ATOM     27  C   UNL     1      -1.576  10.244  17.656  0.00  0.00    +0.000 A 
ATOM     28  C   UNL     1      -0.942  11.187  18.489  0.00  0.00    +0.000 A 
ATOM     29  C   UNL     1      -1.714  12.150  19.166  0.00  0.00    +0.000 A 
ATOM     30  C   UNL     1      -3.118  12.078  19.064  0.00  0.00    +0.000 A 
BRANCH  29  31
ATOM     31  C   UNL     1      -1.162  13.281  19.999  0.00  0.00    +0.000 C 
ATOM     32  F   UNL     1      -0.322  14.138  19.365  0.00  0.00    +0.000 F 
ATOM     33  F   UNL     1      -2.164  14.057  20.512  0.00  0.00    +0.000 F 
ATOM     34  F   UNL     1      -0.480  12.822  21.088  0.00  0.00    +0.000 F 
ENDBRANCH  29  31
BRANCH  25  36
ATOM     35  C   UNL     1      -6.263  10.950  18.181  0.00  0.00    +0.000 C 
ATOM     36  N   UNL     1      -5.102  11.006  18.240  0.00  0.00    +0.000 NA
ENDBRANCH  25  36
ENDBRANCH  24  28
ENDBRANCH   1  24
TORSDOF 10
ENDMDL
MODEL 5
REMARK VINA RESULT:      -8.3      1.959      3.509
REMARK  Name = 
REMARK  10 active torsions:
REMARK  status: ('A' for Active; 'I' for Inactive)
REMARK    1  A    between atoms: N_2  and  C_3
REMARK    2  A    between atoms: C_6  and  O_7
REMARK    3  A    between atoms: O_7  and  C_8
REMARK    4  A    between atoms: C_11  and  C_12
REMARK    5  A    between atoms: C_14  and  C_15
REMARK    6  A    between atoms: C_19  and  C_20
REMARK    7  A    between atoms: C_20  and  O_21
REMARK    8  A    between atoms: C_20  and  C_22
REMARK    9  A    between atoms: C_22  and  O_23
REMARK   10  A    between atoms: C_27  and  C_28
REMARK                            x       y       z     vdW  Elec       q    Type
REMARK                         _______ _______ _______ _____ _____    ______ ____
ROOT
ATOM      1  C   UNL     1       1.394   9.188  19.447  0.00  0.00    +0.000 A 
ATOM      2  C   UNL     1       1.580   8.045  20.222  0.00  0.00    +0.000 A 
ATOM      3  C   UNL     1       2.302   6.949  19.711  0.00  0.00    +0.000 A 
ATOM      4  C   UNL     1       2.854   6.967  18.415  0.00  0.00    +0.000 A 
ATOM      5  C   UNL     1       2.690   8.154  17.674  0.00  0.00    +0.000 A 
ATOM      6  C   UNL     1       1.943   9.231  18.163  0.00  0.00    +0.000 A 
ENDROOT
BRANCH   4   7
ATOM      7  C   UNL     1       3.519   5.787  17.814  0.00  0.00    +0.000 A 
ATOM      8  N   UNL     1       4.677   5.958  17.161  0.00  0.00    +0.000 NA
ATOM      9  C   UNL     1       5.280   4.818  16.735  0.00  0.00    +0.000 A 
ATOM     10  C   UNL     1       4.780   3.547  16.933  0.00  0.00    +0.000 A 
ATOM     11  C   UNL     1       3.583   3.471  17.604  0.00  0.00    +0.000 A 
ATOM     12  N   UNL     1       2.947   4.581  18.043  0.00  0.00    +0.000 NA
BRANCH   9  13
ATOM     13  C   UNL     1       6.580   4.971  16.011  0.00  0.00    +0.000 C 
ATOM     14  N   UNL     1       6.508   5.502  14.754  0.00  0.00    +0.000 N 
ATOM     15  O   UNL     1       7.650   4.642  16.507  0.00  0.00    +0.000 OA
ATOM     16  H   UNL     1       5.615   5.777  14.362  0.00  0.00    +0.000 HD
ATOM     17  H   UNL     1       7.360   5.631  14.226  0.00  0.00    +0.000 HD
ENDBRANCH   9  13
BRANCH  11  18
ATOM     18  C   UNL     1       2.943   2.112  17.859  0.00  0.00    +0.000 C 
BRANCH  18  19
ATOM     19  O   UNL     1       3.954   1.167  18.226  0.00  0.00    +0.000 OA
ATOM     20  H   UNL     1       4.814   1.622  18.175  0.00  0.00    +0.000 HD
ENDBRANCH  18  19
BRANCH  18  21
ATOM     21  C   UNL     1       1.853   2.132  18.947  0.00  0.00    +0.000 C 
BRANCH  21  22
ATOM     22  O   UNL     1       0.579   2.514  18.435  0.00  0.00    +0.000 OA
ATOM     23  H   UNL     1       0.053   2.790  19.212  0.00  0.00    +0.000 HD
ENDBRANCH  21  22
ENDBRANCH  18  21
ENDBRANCH  11  18
ENDBRANCH   4   7
BRANCH   1  24
ATOM     24  O   UNL     1       0.637  10.217  19.986  0.00  0.00    +0.000 OA
BRANCH  24  28
ATOM     25  C   UNL     1      -2.905  11.259  18.049  0.00  0.00    +0.000 A 
ATOM     26  C   UNL     1      -2.083  10.299  17.481  0.00  0.00    +0.000 A 
ATOM     27  C   UNL     1      -0.875  10.003  18.105  0.00  0.00    +0.000 A 
ATOM     28  C   UNL     1      -0.522  10.599  19.332  0.00  0.00    +0.000 A 
ATOM     29  C   UNL     1      -1.336  11.610  19.874  0.00  0.00    +0.000 A 
ATOM     30  C   UNL     1      -2.541  11.929  19.215  0.00  0.00    +0.000 A 
BRANCH  29  31
ATOM     31  C   UNL     1      -1.024  12.407  21.117  0.00  0.00    +0.000 C 
ATOM     32  F   UNL     1      -1.927  13.361  21.460  0.00  0.00    +0.000 F 
ATOM     33  F   UNL     1      -0.908  11.597  22.212  0.00  0.00    +0.000 F 
ATOM     34  F   UNL     1       0.179  13.045  21.022  0.00  0.00    +0.000 F 
ENDBRANCH  29  31
BRANCH  25  36
ATOM     35  C   UNL     1      -5.123  11.817  16.919  0.00  0.00    +0.000 C 
ATOM     36  N   UNL     1      -4.109  11.566  17.433  0.00  0.00    +0.000 NA
ENDBRANCH  25  36
ENDBRANCH  24  28
ENDBRANCH   1  24
TORSDOF 10
ENDMDL
MODEL 6
REMARK VINA RESULT:      -8.1      2.728      3.742
REMARK  Name = 
REMARK  10 active torsions:
REMARK  status: ('A' for Active; 'I' for Inactive)
REMARK    1  A    between atoms: N_2  and  C_3
REMARK    2  A    between atoms: C_6  and  O_7
REMARK    3  A    between atoms: O_7  and  C_8
REMARK    4  A    between atoms: C_11  and  C_12
REMARK    5  A    between atoms: C_14  and  C_15
REMARK    6  A    between atoms: C_19  and  C_20
REMARK    7  A    between atoms: C_20  and  O_21
REMARK    8  A    between atoms: C_20  and  C_22
REMARK    9  A    between atoms: C_22  and  O_23
REMARK   10  A    between atoms: C_27  and  C_28
REMARK                            x       y       z     vdW  Elec       q    Type
REMARK                         _______ _______ _______ _____ _____    ______ ____
ROOT
ATOM      1  C   UNL     1       1.065   9.096  19.797  0.00  0.00    +0.000 A 
ATOM      2  C   UNL     1       1.365   8.037  20.652  0.00  0.00    +0.000 A 
ATOM      3  C   UNL     1       2.171   6.971  20.208  0.00  0.00    +0.000 A 
ATOM      4  C   UNL     1       2.695   6.935  18.901  0.00  0.00    +0.000 A 
ATOM      5  C   UNL     1       2.414   8.042  18.077  0.00  0.00    +0.000 A 
ATOM      6  C   UNL     1       1.584   9.086  18.500  0.00  0.00    +0.000 A 
ENDROOT
BRANCH   4   7
ATOM      7  C   UNL     1       3.449   5.774  18.375  0.00  0.00    +0.000 A 
ATOM      8  N   UNL     1       3.386   4.607  19.032  0.00  0.00    +0.000 NA
ATOM      9  C   UNL     1       4.012   3.563  18.430  0.00  0.00    +0.000 A 
ATOM     10  C   UNL     1       4.682   3.641  17.226  0.00  0.00    +0.000 A 
ATOM     11  C   UNL     1       4.702   4.879  16.630  0.00  0.00    +0.000 A 
ATOM     12  N   UNL     1       4.093   5.946  17.197  0.00  0.00    +0.000 NA
BRANCH   9  13
ATOM     13  C   UNL     1       3.952   2.243  19.132  0.00  0.00    +0.000 C 
ATOM     14  N   UNL     1       4.910   2.026  20.082  0.00  0.00    +0.000 N 
ATOM     15  O   UNL     1       3.101   1.402  18.876  0.00  0.00    +0.000 OA
ATOM     16  H   UNL     1       5.602   2.736  20.288  0.00  0.00    +0.000 HD
ATOM     17  H   UNL     1       4.909   1.151  20.588  0.00  0.00    +0.000 HD
ENDBRANCH   9  13
BRANCH  11  18
ATOM     18  C   UNL     1       5.429   5.070  15.305  0.00  0.00    +0.000 C 
BRANCH  18  19
ATOM     19  O   UNL     1       5.765   6.451  15.137  0.00  0.00    +0.000 OA
ATOM     20  H   UNL     1       6.445   6.671  15.799  0.00  0.00    +0.000 HD
ENDBRANCH  18  19
BRANCH  18  21
ATOM     21  C   UNL     1       6.707   4.220  15.170  0.00  0.00    +0.000 C 
BRANCH  21  22
ATOM     22  O   UNL     1       7.764   4.691  16.004  0.00  0.00    +0.000 OA
ATOM     23  H   UNL     1       8.162   5.446  15.527  0.00  0.00    +0.000 HD
ENDBRANCH  21  22
ENDBRANCH  18  21
ENDBRANCH  11  18
ENDBRANCH   4   7
BRANCH   1  24
ATOM     24  O   UNL     1       0.231  10.095  20.276  0.00  0.00    +0.000 OA
BRANCH  24  28
ATOM     25  C   UNL     1       1.131  14.004  19.140  0.00  0.00    +0.000 A 
ATOM     26  C   UNL     1       1.845  13.421  20.173  0.00  0.00    +0.000 A 
ATOM     27  C   UNL     1       1.497  12.138  20.584  0.00  0.00    +0.000 A 
ATOM     28  C   UNL     1       0.495  11.406  19.916  0.00  0.00    +0.000 A 
ATOM     29  C   UNL     1      -0.262  12.024  18.904  0.00  0.00    +0.000 A 
ATOM     30  C   UNL     1       0.075  13.337  18.519  0.00  0.00    +0.000 A 
BRANCH  29  31
ATOM     31  C   UNL     1      -1.432  11.398  18.185  0.00  0.00    +0.000 C 
ATOM     32  F   UNL     1      -2.495  11.055  18.955  0.00  0.00    +0.000 F 
ATOM     33  F   UNL     1      -1.928  12.230  17.220  0.00  0.00    +0.000 F 
ATOM     34  F   UNL     1      -1.069  10.263  17.518  0.00  0.00    +0.000 F 
ENDBRANCH  29  31
BRANCH  25  36
ATOM     35  C   UNL     1       1.743  16.358  18.371  0.00  0.00    +0.000 C 
ATOM     36  N   UNL     1       1.466  15.284  18.725  0.00  0.00    +0.000 NA
ENDBRANCH  25  36
ENDBRANCH  24  28
ENDBRANCH   1  24
TORSDOF 10
ENDMDL
MODEL 7
REMARK VINA RESULT:      -8.1      0.797      1.298
REMARK  Name = 
REMARK  10 active torsions:
REMARK  status: ('A' for Active; 'I' for Inactive)
REMARK    1  A    between atoms: N_2  and  C_3
REMARK    2  A    between atoms: C_6  and  O_7
REMARK    3  A    between atoms: O_7  and  C_8
REMARK    4  A    between atoms: C_11  and  C_12
REMARK    5  A    between atoms: C_14  and  C_15
REMARK    6  A    between atoms: C_19  and  C_20
REMARK    7  A    between atoms: C_20  and  O_21
REMARK    8  A    between atoms: C_20  and  C_22
REMARK    9  A    between atoms: C_22  and  O_23
REMARK   10  A    between atoms: C_27  and  C_28
REMARK                            x       y       z     vdW  Elec       q    Type
REMARK                         _______ _______ _______ _____ _____    ______ ____
ROOT
ATOM      1  C   UNL     1       0.653  10.462  18.829  0.00  0.00    +0.000 A 
ATOM      2  C   UNL     1       0.518   9.840  20.070  0.00  0.00    +0.000 A 
ATOM      3  C   UNL     1       1.171   8.620  20.328  0.00  0.00    +0.000 A 
ATOM      4  C   UNL     1       1.972   7.989  19.356  0.00  0.00    +0.000 A 
ATOM      5  C   UNL     1       2.127   8.665  18.130  0.00  0.00    +0.000 A 
ATOM      6  C   UNL     1       1.452   9.859  17.855  0.00  0.00    +0.000 A 
ENDROOT
BRANCH   4   7
ATOM      7  C   UNL     1       2.575   6.653  19.564  0.00  0.00    +0.000 A 
ATOM      8  N   UNL     1       1.927   5.758  20.323  0.00  0.00    +0.000 NA
ATOM      9  C   UNL     1       2.488   4.523  20.377  0.00  0.00    +0.000 A 
ATOM     10  C   UNL     1       3.642   4.157  19.715  0.00  0.00    +0.000 A 
ATOM     11  C   UNL     1       4.243   5.143  18.968  0.00  0.00    +0.000 A 
ATOM     12  N   UNL     1       3.720   6.388  18.890  0.00  0.00    +0.000 NA
BRANCH   9  13
ATOM     13  C   UNL     1       1.784   3.497  21.207  0.00  0.00    +0.000 C 
ATOM     14  N   UNL     1       0.633   2.983  20.677  0.00  0.00    +0.000 N 
ATOM     15  O   UNL     1       2.205   3.133  22.297  0.00  0.00    +0.000 OA
ATOM     16  H   UNL     1       0.303   3.288  19.770  0.00  0.00    +0.000 HD
ATOM     17  H   UNL     1       0.124   2.283  21.198  0.00  0.00    +0.000 HD
ENDBRANCH   9  13
BRANCH  11  18
ATOM     18  C   UNL     1       5.531   4.841  18.213  0.00  0.00    +0.000 C 
BRANCH  18  19
ATOM     19  O   UNL     1       6.056   3.581  18.646  0.00  0.00    +0.000 OA
ATOM     20  H   UNL     1       5.516   2.881  18.236  0.00  0.00    +0.000 HD
ENDBRANCH  18  19
BRANCH  18  21
ATOM     21  C   UNL     1       5.363   4.818  16.682  0.00  0.00    +0.000 C 
BRANCH  21  22
ATOM     22  O   UNL     1       4.994   6.090  16.156  0.00  0.00    +0.000 OA
ATOM     23  H   UNL     1       5.581   6.739  16.594  0.00  0.00    +0.000 HD
ENDBRANCH  21  22
ENDBRANCH  18  21
ENDBRANCH  11  18
ENDBRANCH   4   7
BRANCH   1  24
ATOM     24  O   UNL     1      -0.049  11.639  18.618  0.00  0.00    +0.000 OA
BRANCH  24  28
ATOM     25  C   UNL     1      -4.197  11.336  18.344  0.00  0.00    +0.000 A 
ATOM     26  C   UNL     1      -3.411  10.693  17.403  0.00  0.00    +0.000 A 
ATOM     27  C   UNL     1      -2.030  10.850  17.468  0.00  0.00    +0.000 A 
ATOM     28  C   UNL     1      -1.428  11.578  18.514  0.00  0.00    +0.000 A 
ATOM     29  C   UNL     1      -2.235  12.271  19.435  0.00  0.00    +0.000 A 
ATOM     30  C   UNL     1      -3.635  12.135  19.338  0.00  0.00    +0.000 A 
BRANCH  29  31
ATOM     31  C   UNL     1      -1.727  13.174  20.533  0.00  0.00    +0.000 C 
ATOM     32  F   UNL     1      -0.882  12.608  21.431  0.00  0.00    +0.000 F 
ATOM     33  F   UNL     1      -1.057  14.250  20.022  0.00  0.00    +0.000 F 
ATOM     34  F   UNL     1      -2.749  13.709  21.263  0.00  0.00    +0.000 F 
ENDBRANCH  29  31
BRANCH  25  36
ATOM     35  C   UNL     1      -6.733  11.071  18.244  0.00  0.00    +0.000 C 
ATOM     36  N   UNL     1      -5.576  11.190  18.285  0.00  0.00    +0.000 NA
ENDBRANCH  25  36
ENDBRANCH  24  28
ENDBRANCH   1  24
TORSDOF 10
ENDMDL
MODEL 8
REMARK VINA RESULT:      -8.1      1.702      1.749
REMARK  Name = 
REMARK  10 active torsions:
REMARK  status: ('A' for Active; 'I' for Inactive)
REMARK    1  A    between atoms: N_2  and  C_3
REMARK    2  A    between atoms: C_6  and  O_7
REMARK    3  A    between atoms: O_7  and  C_8
REMARK    4  A    between atoms: C_11  and  C_12
REMARK    5  A    between atoms: C_14  and  C_15
REMARK    6  A    between atoms: C_19  and  C_20
REMARK    7  A    between atoms: C_20  and  O_21
REMARK    8  A    between atoms: C_20  and  C_22
REMARK    9  A    between atoms: C_22  and  O_23
REMARK   10  A    between atoms: C_27  and  C_28
REMARK                            x       y       z     vdW  Elec       q    Type
REMARK                         _______ _______ _______ _____ _____    ______ ____
ROOT
ATOM      1  C   UNL     1       1.191   9.850  19.246  0.00  0.00    +0.000 A 
ATOM      2  C   UNL     1       1.239   8.804  20.166  0.00  0.00    +0.000 A 
ATOM      3  C   UNL     1       1.869   7.590  19.830  0.00  0.00    +0.000 A 
ATOM      4  C   UNL     1       2.464   7.389  18.569  0.00  0.00    +0.000 A 
ATOM      5  C   UNL     1       2.441   8.481  17.679  0.00  0.00    +0.000 A 
ATOM      6  C   UNL     1       1.785   9.676  17.993  0.00  0.00    +0.000 A 
ENDROOT
BRANCH   4   7
ATOM      7  C   UNL     1       3.031   6.086  18.152  0.00  0.00    +0.000 A 
ATOM      8  N   UNL     1       2.347   4.965  18.419  0.00  0.00    +0.000 NA
ATOM      9  C   UNL     1       2.876   3.823  17.910  0.00  0.00    +0.000 A 
ATOM     10  C   UNL     1       4.035   3.762  17.163  0.00  0.00    +0.000 A 
ATOM     11  C   UNL     1       4.674   4.961  16.948  0.00  0.00    +0.000 A 
ATOM     12  N   UNL     1       4.182   6.121  17.440  0.00  0.00    +0.000 NA
BRANCH   9  13
ATOM     13  C   UNL     1       2.132   2.554  18.180  0.00  0.00    +0.000 C 
ATOM     14  N   UNL     1       2.894   1.426  18.305  0.00  0.00    +0.000 N 
ATOM     15  O   UNL     1       0.913   2.518  18.284  0.00  0.00    +0.000 OA
ATOM     16  H   UNL     1       3.903   1.475  18.225  0.00  0.00    +0.000 HD
ATOM     17  H   UNL     1       2.438   0.544  18.493  0.00  0.00    +0.000 HD
ENDBRANCH   9  13
BRANCH  11  18
ATOM     18  C   UNL     1       5.969   4.995  16.147  0.00  0.00    +0.000 C 
BRANCH  18  19
ATOM     19  O   UNL     1       5.865   5.976  15.110  0.00  0.00    +0.000 OA
ATOM     20  H   UNL     1       6.733   6.032  14.670  0.00  0.00    +0.000 HD
ENDBRANCH  18  19
BRANCH  18  21
ATOM     21  C   UNL     1       7.218   5.291  16.998  0.00  0.00    +0.000 C 
BRANCH  21  22
ATOM     22  O   UNL     1       8.023   4.133  17.206  0.00  0.00    +0.000 OA
ATOM     23  H   UNL     1       8.486   4.280  18.055  0.00  0.00    +0.000 HD
ENDBRANCH  21  22
ENDBRANCH  18  21
ENDBRANCH  11  18
ENDBRANCH   4   7
BRANCH   1  24
ATOM     24  O   UNL     1       0.519  11.005  19.616  0.00  0.00    +0.000 OA
BRANCH  24  28
ATOM     25  C   UNL     1      -3.447  11.397  18.395  0.00  0.00    +0.000 A 
ATOM     26  C   UNL     1      -2.604  10.558  17.687  0.00  0.00    +0.000 A 
ATOM     27  C   UNL     1      -1.267  10.480  18.066  0.00  0.00    +0.000 A 
ATOM     28  C   UNL     1      -0.789  11.173  19.196  0.00  0.00    +0.000 A 
ATOM     29  C   UNL     1      -1.639  12.064  19.878  0.00  0.00    +0.000 A 
ATOM     30  C   UNL     1      -2.982  12.162  19.464  0.00  0.00    +0.000 A 
BRANCH  29  31
ATOM     31  C   UNL     1      -1.230  12.948  21.031  0.00  0.00    +0.000 C 
ATOM     32  F   UNL     1      -2.208  13.717  21.573  0.00  0.00    +0.000 F 
ATOM     33  F   UNL     1      -0.720  12.214  22.065  0.00  0.00    +0.000 F 
ATOM     34  F   UNL     1      -0.228  13.806  20.680  0.00  0.00    +0.000 F 
ENDBRANCH  29  31
BRANCH  25  36
ATOM     35  C   UNL     1      -5.901  11.553  17.714  0.00  0.00    +0.000 C 
ATOM     36  N   UNL     1      -4.780  11.485  18.022  0.00  0.00    +0.000 NA
ENDBRANCH  25  36
ENDBRANCH  24  28
ENDBRANCH   1  24
TORSDOF 10
ENDMDL
MODEL 9
REMARK VINA RESULT:      -8.1      1.952      3.504
REMARK  Name = 
REMARK  10 active torsions:
REMARK  status: ('A' for Active; 'I' for Inactive)
REMARK    1  A    between atoms: N_2  and  C_3
REMARK    2  A    between atoms: C_6  and  O_7
REMARK    3  A    between atoms: O_7  and  C_8
REMARK    4  A    between atoms: C_11  and  C_12
REMARK    5  A    between atoms: C_14  and  C_15
REMARK    6  A    between atoms: C_19  and  C_20
REMARK    7  A    between atoms: C_20  and  O_21
REMARK    8  A    between atoms: C_20  and  C_22
REMARK    9  A    between atoms: C_22  and  O_23
REMARK   10  A    between atoms: C_27  and  C_28
REMARK                            x       y       z     vdW  Elec       q    Type
REMARK                         _______ _______ _______ _____ _____    ______ ____
ROOT
ATOM      1  C   UNL     1       1.441   9.239  19.286  0.00  0.00    +0.000 A 
ATOM      2  C   UNL     1       1.654   8.134  20.109  0.00  0.00    +0.000 A 
ATOM      3  C   UNL     1       2.391   7.030  19.640  0.00  0.00    +0.000 A 
ATOM      4  C   UNL     1       2.930   6.999  18.339  0.00  0.00    +0.000 A 
ATOM      5  C   UNL     1       2.738   8.149  17.548  0.00  0.00    +0.000 A 
ATOM      6  C   UNL     1       1.977   9.234  17.996  0.00  0.00    +0.000 A 
ENDROOT
BRANCH   4   7
ATOM      7  C   UNL     1       3.609   5.805  17.784  0.00  0.00    +0.000 A 
ATOM      8  N   UNL     1       4.809   5.952  17.204  0.00  0.00    +0.000 NA
ATOM      9  C   UNL     1       5.416   4.800  16.819  0.00  0.00    +0.000 A 
ATOM     10  C   UNL     1       4.883   3.539  16.990  0.00  0.00    +0.000 A 
ATOM     11  C   UNL     1       3.645   3.487  17.587  0.00  0.00    +0.000 A 
ATOM     12  N   UNL     1       3.004   4.610  17.982  0.00  0.00    +0.000 NA
BRANCH   9  13
ATOM     13  C   UNL     1       6.761   4.927  16.177  0.00  0.00    +0.000 C 
ATOM     14  N   UNL     1       7.787   4.273  16.800  0.00  0.00    +0.000 N 
ATOM     15  O   UNL     1       6.942   5.576  15.155  0.00  0.00    +0.000 OA
ATOM     16  H   UNL     1       7.619   3.733  17.640  0.00  0.00    +0.000 HD
ATOM     17  H   UNL     1       8.715   4.324  16.401  0.00  0.00    +0.000 HD
ENDBRANCH   9  13
BRANCH  11  18
ATOM     18  C   UNL     1       2.967   2.141  17.806  0.00  0.00    +0.000 C 
BRANCH  18  19
ATOM     19  O   UNL     1       3.902   1.220  18.378  0.00  0.00    +0.000 OA
ATOM     20  H   UNL     1       3.392   0.493  18.778  0.00  0.00    +0.000 HD
ENDBRANCH  18  19
BRANCH  18  21
ATOM     21  C   UNL     1       1.717   2.213  18.704  0.00  0.00    +0.000 C 
BRANCH  21  22
ATOM     22  O   UNL     1       2.029   2.606  20.039  0.00  0.00    +0.000 OA
ATOM     23  H   UNL     1       2.435   1.821  20.458  0.00  0.00    +0.000 HD
ENDBRANCH  21  22
ENDBRANCH  18  21
ENDBRANCH  11  18
ENDBRANCH   4   7
BRANCH   1  24
ATOM     24  O   UNL     1       0.671  10.278  19.786  0.00  0.00    +0.000 OA
BRANCH  24  28
ATOM     25  C   UNL     1      -2.894  11.294  17.880  0.00  0.00    +0.000 A 
ATOM     26  C   UNL     1      -2.655   9.969  18.199  0.00  0.00    +0.000 A 
ATOM     27  C   UNL     1      -1.437   9.632  18.781  0.00  0.00    +0.000 A 
ATOM     28  C   UNL     1      -0.492  10.621  19.118  0.00  0.00    +0.000 A 
ATOM     29  C   UNL     1      -0.719  11.958  18.742  0.00  0.00    +0.000 A 
ATOM     30  C   UNL     1      -1.942  12.283  18.121  0.00  0.00    +0.000 A 
BRANCH  29  31
ATOM     31  C   UNL     1       0.252  13.097  18.940  0.00  0.00    +0.000 C 
ATOM     32  F   UNL     1      -0.146  14.311  18.483  0.00  0.00    +0.000 F 
ATOM     33  F   UNL     1       0.544  13.277  20.264  0.00  0.00    +0.000 F 
ATOM     34  F   UNL     1       1.455  12.846  18.345  0.00  0.00    +0.000 F 
ENDBRANCH  29  31
BRANCH  25  36
ATOM     35  C   UNL     1      -5.117  11.924  16.799  0.00  0.00    +0.000 C 
ATOM     36  N   UNL     1      -4.103  11.640  17.295  0.00  0.00    +0.000 NA
ENDBRANCH  25  36
ENDBRANCH  24  28
ENDBRANCH   1  24
TORSDOF 10
ENDMDL
