MODEL 1
REMARK VINA RESULT:      -7.2      0.000      0.000
REMARK  Name = 
REMARK  7 active torsions:
REMARK  status: ('A' for Active; 'I' for Inactive)
REMARK    1  A    between atoms: C_1  and  C_2
REMARK    2  A    between atoms: C_2  and  C_3
REMARK    3  A    between atoms: C_3  and  O_4
REMARK    4  A    between atoms: O_4  and  C_5
REMARK    5  A    between atoms: C_5  and  C_6
REMARK    6  A    between atoms: N_8  and  C_9
REMARK    7  A    between atoms: C_18  and  N_19
REMARK                            x       y       z     vdW  Elec       q    Type
REMARK                         _______ _______ _______ _____ _____    ______ ____
ROOT
ATOM      1  C   UNL     1       4.463   3.692  18.468  0.00  0.00    +0.000 C 
ATOM      2  C   UNL     1       3.358   3.365  19.462  0.00  0.00    +0.000 A 
ATOM      3  C   UNL     1       3.703   2.771  20.690  0.00  0.00    +0.000 A 
ATOM      4  C   UNL     1       2.728   2.477  21.643  0.00  0.00    +0.000 A 
ATOM      5  C   UNL     1       1.393   2.772  21.383  0.00  0.00    +0.000 A 
ATOM      6  C   UNL     1       1.035   3.358  20.170  0.00  0.00    +0.000 A 
ATOM      7  C   UNL     1       2.007   3.666  19.205  0.00  0.00    +0.000 A 
ATOM      8  C   UNL     1       1.558   4.242  17.889  0.00  0.00    +0.000 C 
ATOM      9  C   UNL     1       2.682   4.916  17.115  0.00  0.00    +0.000 C 
ATOM     10  C   UNL     1       3.921   4.007  17.047  0.00  0.00    +0.000 C 
ENDROOT
BRANCH  10  11
ATOM     11  N   UNL     1       4.947   4.520  16.147  0.00  0.00    +0.000 N 
ATOM     12  C   UNL     1       5.861   3.761  15.463  0.00  0.00    +0.000 A 
ATOM     13  C   UNL     1       6.586   4.661  14.717  0.00  0.00    +0.000 A 
ATOM     14  N   UNL     1       6.149   5.939  14.938  0.00  0.00    +0.000 NA
ATOM     15  C   UNL     1       5.173   5.826  15.809  0.00  0.00    +0.000 A 
ENDBRANCH  10  11
BRANCH   1  18
ATOM     16  C   UNL     1       6.649   4.797  18.862  0.00  0.00    +0.000 C 
ATOM     17  O   UNL     1       7.284   3.944  18.249  0.00  0.00    +0.000 OA
ATOM     18  N   UNL     1       5.277   4.775  19.011  0.00  0.00    +0.000 N 
ATOM     19  H   UNL     1       4.867   5.425  19.673  0.00  0.00    +0.000 HD
BRANCH  16  20
ATOM     20  C   UNL     1       7.317   5.981  19.560  0.00  0.00    +0.000 C 
BRANCH  20  21
ATOM     21  O   UNL     1       8.147   6.749  18.692  0.00  0.00    +0.000 OA
BRANCH  21  22
ATOM     22  C   UNL     1       7.381   7.655  17.892  0.00  0.00    +0.000 C 
BRANCH  22  24
ATOM     23  C   UNL     1       8.816   9.497  18.821  0.00  0.00    +0.000 C 
ATOM     24  C   UNL     1       8.244   8.865  17.564  0.00  0.00    +0.000 C 
ENDBRANCH  22  24
ENDBRANCH  21  22
ENDBRANCH  20  21
ENDBRANCH  16  20
ENDBRANCH   1  18
TORSDOF 6
ENDMDL
MODEL 2
REMARK VINA RESULT:      -6.8      3.527      4.638
REMARK  Name = 
REMARK  7 active torsions:
REMARK  status: ('A' for Active; 'I' for Inactive)
REMARK    1  A    between atoms: C_1  and  C_2
REMARK    2  A    between atoms: C_2  and  C_3
REMARK    3  A    between atoms: C_3  and  O_4
REMARK    4  A    between atoms: O_4  and  C_5
REMARK    5  A    between atoms: C_5  and  C_6
REMARK    6  A    between atoms: N_8  and  C_9
REMARK    7  A    between atoms: C_18  and  N_19
REMARK                            x       y       z     vdW  Elec       q    Type
REMARK                         _______ _______ _______ _____ _____    ______ ____
ROOT
ATOM      1  C   UNL     1       3.778   5.330  18.893  0.00  0.00    +0.000 C 
ATOM      2  C   UNL     1       2.701   4.266  19.044  0.00  0.00    +0.000 A 
ATOM      3  C   UNL     1       1.592   4.534  19.868  0.00  0.00    +0.000 A 
ATOM      4  C   UNL     1       0.567   3.600  20.017  0.00  0.00    +0.000 A 
ATOM      5  C   UNL     1       0.634   2.384  19.344  0.00  0.00    +0.000 A 
ATOM      6  C   UNL     1       1.727   2.102  18.527  0.00  0.00    +0.000 A 
ATOM      7  C   UNL     1       2.763   3.036  18.363  0.00  0.00    +0.000 A 
ATOM      8  C   UNL     1       3.947   2.656  17.516  0.00  0.00    +0.000 C 
ATOM      9  C   UNL     1       4.773   3.854  17.068  0.00  0.00    +0.000 C 
ATOM     10  C   UNL     1       5.083   4.779  18.257  0.00  0.00    +0.000 C 
ENDROOT
BRANCH  10  11
ATOM     11  N   UNL     1       6.039   5.828  17.920  0.00  0.00    +0.000 N 
ATOM     12  C   UNL     1       7.147   6.163  18.654  0.00  0.00    +0.000 A 
ATOM     13  C   UNL     1       7.762   7.163  17.936  0.00  0.00    +0.000 A 
ATOM     14  N   UNL     1       7.054   7.451  16.800  0.00  0.00    +0.000 NA
ATOM     15  C   UNL     1       6.020   6.643  16.822  0.00  0.00    +0.000 A 
ENDBRANCH  10  11
BRANCH   1  18
ATOM     16  C   UNL     1       2.557   7.486  18.784  0.00  0.00    +0.000 C 
ATOM     17  O   UNL     1       2.403   7.556  19.999  0.00  0.00    +0.000 OA
ATOM     18  N   UNL     1       3.223   6.457  18.150  0.00  0.00    +0.000 N 
ATOM     19  H   UNL     1       3.150   6.402  17.140  0.00  0.00    +0.000 HD
BRANCH  16  20
ATOM     20  C   UNL     1       1.998   8.533  17.819  0.00  0.00    +0.000 C 
BRANCH  20  21
ATOM     21  O   UNL     1       1.630   9.750  18.465  0.00  0.00    +0.000 OA
BRANCH  21  22
ATOM     22  C   UNL     1       0.222   9.990  18.377  0.00  0.00    +0.000 C 
BRANCH  22  24
ATOM     23  C   UNL     1      -0.664  11.535  20.150  0.00  0.00    +0.000 C 
ATOM     24  C   UNL     1      -0.342  10.095  19.787  0.00  0.00    +0.000 C 
ENDBRANCH  22  24
ENDBRANCH  21  22
ENDBRANCH  20  21
ENDBRANCH  16  20
ENDBRANCH   1  18
TORSDOF 6
ENDMDL
MODEL 3
REMARK VINA RESULT:      -6.7      1.017      1.033
REMARK  Name = 
REMARK  7 active torsions:
REMARK  status: ('A' for Active; 'I' for Inactive)
REMARK    1  A    between atoms: C_1  and  C_2
REMARK    2  A    between atoms: C_2  and  C_3
REMARK    3  A    between atoms: C_3  and  O_4
REMARK    4  A    between atoms: O_4  and  C_5
REMARK    5  A    between atoms: C_5  and  C_6
REMARK    6  A    between atoms: N_8  and  C_9
REMARK    7  A    between atoms: C_18  and  N_19
REMARK                            x       y       z     vdW  Elec       q    Type
REMARK                         _______ _______ _______ _____ _____    ______ ____
ROOT
ATOM      1  C   UNL     1       4.592   3.535  18.147  0.00  0.00    +0.000 C 
ATOM      2  C   UNL     1       3.618   3.528  19.316  0.00  0.00    +0.000 A 
ATOM      3  C   UNL     1       3.770   2.554  20.320  0.00  0.00    +0.000 A 
ATOM      4  C   UNL     1       2.918   2.524  21.424  0.00  0.00    +0.000 A 
ATOM      5  C   UNL     1       1.901   3.467  21.541  0.00  0.00    +0.000 A 
ATOM      6  C   UNL     1       1.735   4.435  20.552  0.00  0.00    +0.000 A 
ATOM      7  C   UNL     1       2.590   4.481  19.439  0.00  0.00    +0.000 A 
ATOM      8  C   UNL     1       2.329   5.511  18.373  0.00  0.00    +0.000 C 
ATOM      9  C   UNL     1       3.525   5.748  17.463  0.00  0.00    +0.000 C 
ATOM     10  C   UNL     1       4.104   4.414  16.963  0.00  0.00    +0.000 C 
ENDROOT
BRANCH  10  11
ATOM     11  N   UNL     1       5.119   4.592  15.930  0.00  0.00    +0.000 N 
ATOM     12  C   UNL     1       5.861   3.591  15.359  0.00  0.00    +0.000 A 
ATOM     13  C   UNL     1       6.645   4.218  14.419  0.00  0.00    +0.000 A 
ATOM     14  N   UNL     1       6.410   5.567  14.413  0.00  0.00    +0.000 NA
ATOM     15  C   UNL     1       5.498   5.764  15.337  0.00  0.00    +0.000 A 
ENDBRANCH  10  11
BRANCH   1  18
ATOM     16  C   UNL     1       6.097   5.102  19.344  0.00  0.00    +0.000 C 
ATOM     17  O   UNL     1       5.192   5.876  19.640  0.00  0.00    +0.000 OA
ATOM     18  N   UNL     1       5.908   3.932  18.636  0.00  0.00    +0.000 N 
ATOM     19  H   UNL     1       6.734   3.452  18.296  0.00  0.00    +0.000 HD
BRANCH  16  20
ATOM     20  C   UNL     1       7.560   5.364  19.706  0.00  0.00    +0.000 C 
BRANCH  20  21
ATOM     21  O   UNL     1       8.067   6.576  19.153  0.00  0.00    +0.000 OA
BRANCH  21  22
ATOM     22  C   UNL     1       7.682   6.733  17.783  0.00  0.00    +0.000 C 
BRANCH  22  24
ATOM     23  C   UNL     1       8.489   9.043  18.356  0.00  0.00    +0.000 C 
ATOM     24  C   UNL     1       7.562   8.219  17.478  0.00  0.00    +0.000 C 
ENDBRANCH  22  24
ENDBRANCH  21  22
ENDBRANCH  20  21
ENDBRANCH  16  20
ENDBRANCH   1  18
TORSDOF 6
ENDMDL
MODEL 4
REMARK VINA RESULT:      -6.6      3.527      4.211
REMARK  Name = 
REMARK  7 active torsions:
REMARK  status: ('A' for Active; 'I' for Inactive)
REMARK    1  A    between atoms: C_1  and  C_2
REMARK    2  A    between atoms: C_2  and  C_3
REMARK    3  A    between atoms: C_3  and  O_4
REMARK    4  A    between atoms: O_4  and  C_5
REMARK    5  A    between atoms: C_5  and  C_6
REMARK    6  A    between atoms: N_8  and  C_9
REMARK    7  A    between atoms: C_18  and  N_19
REMARK                            x       y       z     vdW  Elec       q    Type
REMARK                         _______ _______ _______ _____ _____    ______ ____
ROOT
ATOM      1  C   UNL     1       3.754   5.329  18.878  0.00  0.00    +0.000 C 
ATOM      2  C   UNL     1       2.699   4.245  19.040  0.00  0.00    +0.000 A 
ATOM      3  C   UNL     1       1.588   4.494  19.866  0.00  0.00    +0.000 A 
ATOM      4  C   UNL     1       0.582   3.541  20.024  0.00  0.00    +0.000 A 
ATOM      5  C   UNL     1       0.672   2.322  19.358  0.00  0.00    +0.000 A 
ATOM      6  C   UNL     1       1.768   2.058  18.539  0.00  0.00    +0.000 A 
ATOM      7  C   UNL     1       2.784   3.012  18.365  0.00  0.00    +0.000 A 
ATOM      8  C   UNL     1       3.973   2.651  17.516  0.00  0.00    +0.000 C 
ATOM      9  C   UNL     1       4.772   3.862  17.058  0.00  0.00    +0.000 C 
ATOM     10  C   UNL     1       5.068   4.801  18.240  0.00  0.00    +0.000 C 
ENDROOT
BRANCH  10  11
ATOM     11  N   UNL     1       6.001   5.867  17.893  0.00  0.00    +0.000 N 
ATOM     12  C   UNL     1       7.150   6.174  18.574  0.00  0.00    +0.000 A 
ATOM     13  C   UNL     1       7.720   7.206  17.865  0.00  0.00    +0.000 A 
ATOM     14  N   UNL     1       6.946   7.541  16.787  0.00  0.00    +0.000 NA
ATOM     15  C   UNL     1       5.915   6.729  16.835  0.00  0.00    +0.000 A 
ENDBRANCH  10  11
BRANCH   1  18
ATOM     16  C   UNL     1       2.502   7.467  18.761  0.00  0.00    +0.000 C 
ATOM     17  O   UNL     1       2.364   7.548  19.978  0.00  0.00    +0.000 OA
ATOM     18  N   UNL     1       3.174   6.439  18.130  0.00  0.00    +0.000 N 
ATOM     19  H   UNL     1       3.087   6.372  17.122  0.00  0.00    +0.000 HD
BRANCH  16  20
ATOM     20  C   UNL     1       1.916   8.495  17.793  0.00  0.00    +0.000 C 
BRANCH  20  21
ATOM     21  O   UNL     1       2.488   9.793  17.938  0.00  0.00    +0.000 OA
BRANCH  21  22
ATOM     22  C   UNL     1       1.560  10.718  18.515  0.00  0.00    +0.000 C 
BRANCH  22  24
ATOM     23  C   UNL     1       1.743  12.980  19.594  0.00  0.00    +0.000 C 
ATOM     24  C   UNL     1       2.140  12.121  18.406  0.00  0.00    +0.000 C 
ENDBRANCH  22  24
ENDBRANCH  21  22
ENDBRANCH  20  21
ENDBRANCH  16  20
ENDBRANCH   1  18
TORSDOF 6
ENDMDL
MODEL 5
REMARK VINA RESULT:      -6.4      2.586      3.377
REMARK  Name = 
REMARK  7 active torsions:
REMARK  status: ('A' for Active; 'I' for Inactive)
REMARK    1  A    between atoms: C_1  and  C_2
REMARK    2  A    between atoms: C_2  and  C_3
REMARK    3  A    between atoms: C_3  and  O_4
REMARK    4  A    between atoms: O_4  and  C_5
REMARK    5  A    between atoms: C_5  and  C_6
REMARK    6  A    between atoms: N_8  and  C_9
REMARK    7  A    between atoms: C_18  and  N_19
REMARK                            x       y       z     vdW  Elec       q    Type
REMARK                         _______ _______ _______ _____ _____    ______ ____
ROOT
ATOM      1  C   UNL     1       4.305   4.462  18.480  0.00  0.00    +0.000 C 
ATOM      2  C   UNL     1       3.251   3.866  19.402  0.00  0.00    +0.000 A 
ATOM      3  C   UNL     1       2.878   4.576  20.558  0.00  0.00    +0.000 A 
ATOM      4  C   UNL     1       1.898   4.082  21.418  0.00  0.00    +0.000 A 
ATOM      5  C   UNL     1       1.275   2.870  21.136  0.00  0.00    +0.000 A 
ATOM      6  C   UNL     1       1.635   2.153  19.997  0.00  0.00    +0.000 A 
ATOM      7  C   UNL     1       2.615   2.642  19.119  0.00  0.00    +0.000 A 
ATOM      8  C   UNL     1       3.007   1.798  17.936  0.00  0.00    +0.000 C 
ATOM      9  C   UNL     1       3.734   2.583  16.853  0.00  0.00    +0.000 C 
ATOM     10  C   UNL     1       4.863   3.433  17.459  0.00  0.00    +0.000 C 
ENDROOT
BRANCH  10  11
ATOM     11  N   UNL     1       5.716   4.043  16.445  0.00  0.00    +0.000 N 
ATOM     12  C   UNL     1       5.348   4.320  15.154  0.00  0.00    +0.000 A 
ATOM     13  C   UNL     1       6.448   4.923  14.591  0.00  0.00    +0.000 A 
ATOM     14  N   UNL     1       7.472   5.008  15.495  0.00  0.00    +0.000 NA
ATOM     15  C   UNL     1       7.009   4.462  16.595  0.00  0.00    +0.000 A 
ENDBRANCH  10  11
BRANCH   1  18
ATOM     16  C   UNL     1       4.474   6.814  17.712  0.00  0.00    +0.000 C 
ATOM     17  O   UNL     1       5.631   6.944  18.097  0.00  0.00    +0.000 OA
ATOM     18  N   UNL     1       3.748   5.647  17.836  0.00  0.00    +0.000 N 
ATOM     19  H   UNL     1       2.753   5.691  17.645  0.00  0.00    +0.000 HD
BRANCH  16  20
ATOM     20  C   UNL     1       3.685   7.954  17.066  0.00  0.00    +0.000 C 
BRANCH  20  21
ATOM     21  O   UNL     1       2.349   8.058  17.553  0.00  0.00    +0.000 OA
BRANCH  21  22
ATOM     22  C   UNL     1       2.048   9.385  17.994  0.00  0.00    +0.000 C 
BRANCH  22  24
ATOM     23  C   UNL     1       1.704   8.173  20.168  0.00  0.00    +0.000 C 
ATOM     24  C   UNL     1       1.222   9.299  19.270  0.00  0.00    +0.000 C 
ENDBRANCH  22  24
ENDBRANCH  21  22
ENDBRANCH  20  21
ENDBRANCH  16  20
ENDBRANCH   1  18
TORSDOF 6
ENDMDL
MODEL 6
REMARK VINA RESULT:      -6.4      3.214      4.356
REMARK  Name = 
REMARK  7 active torsions:
REMARK  status: ('A' for Active; 'I' for Inactive)
REMARK    1  A    between atoms: C_1  and  C_2
REMARK    2  A    between atoms: C_2  and  C_3
REMARK    3  A    between atoms: C_3  and  O_4
REMARK    4  A    between atoms: O_4  and  C_5
REMARK    5  A    between atoms: C_5  and  C_6
REMARK    6  A    between atoms: N_8  and  C_9
REMARK    7  A    between atoms: C_18  and  N_19
REMARK                            x       y       z     vdW  Elec       q    Type
REMARK                         _______ _______ _______ _____ _____    ______ ____
ROOT
ATOM      1  C   UNL     1       4.228   5.079  19.491  0.00  0.00    +0.000 C 
ATOM      2  C   UNL     1       3.075   4.095  19.614  0.00  0.00    +0.000 A 
ATOM      3  C   UNL     1       2.317   4.080  20.800  0.00  0.00    +0.000 A 
ATOM      4  C   UNL     1       1.234   3.214  20.948  0.00  0.00    +0.000 A 
ATOM      5  C   UNL     1       0.891   2.349  19.913  0.00  0.00    +0.000 A 
ATOM      6  C   UNL     1       1.634   2.349  18.733  0.00  0.00    +0.000 A 
ATOM      7  C   UNL     1       2.722   3.222  18.568  0.00  0.00    +0.000 A 
ATOM      8  C   UNL     1       3.524   3.138  17.297  0.00  0.00    +0.000 C 
ATOM      9  C   UNL     1       4.378   4.373  17.046  0.00  0.00    +0.000 C 
ATOM     10  C   UNL     1       5.176   4.752  18.305  0.00  0.00    +0.000 C 
ENDROOT
BRANCH  10  11
ATOM     11  N   UNL     1       6.159   5.800  18.055  0.00  0.00    +0.000 N 
ATOM     12  C   UNL     1       7.292   6.024  18.793  0.00  0.00    +0.000 A 
ATOM     13  C   UNL     1       7.924   7.073  18.167  0.00  0.00    +0.000 A 
ATOM     14  N   UNL     1       7.204   7.497  17.083  0.00  0.00    +0.000 NA
ATOM     15  C   UNL     1       6.144   6.724  17.046  0.00  0.00    +0.000 A 
ENDBRANCH  10  11
BRANCH   1  18
ATOM     16  C   UNL     1       2.615   6.741  18.603  0.00  0.00    +0.000 C 
ATOM     17  O   UNL     1       2.025   5.921  17.908  0.00  0.00    +0.000 OA
ATOM     18  N   UNL     1       3.685   6.432  19.418  0.00  0.00    +0.000 N 
ATOM     19  H   UNL     1       4.208   7.203  19.818  0.00  0.00    +0.000 HD
BRANCH  16  20
ATOM     20  C   UNL     1       2.244   8.225  18.625  0.00  0.00    +0.000 C 
BRANCH  20  21
ATOM     21  O   UNL     1       1.658   8.638  19.857  0.00  0.00    +0.000 OA
BRANCH  21  22
ATOM     22  C   UNL     1       0.668   9.653  19.658  0.00  0.00    +0.000 C 
BRANCH  22  24
ATOM     23  C   UNL     1      -1.070  10.200  17.927  0.00  0.00    +0.000 C 
ATOM     24  C   UNL     1       0.359   9.745  18.170  0.00  0.00    +0.000 C 
ENDBRANCH  22  24
ENDBRANCH  21  22
ENDBRANCH  20  21
ENDBRANCH  16  20
ENDBRANCH   1  18
TORSDOF 6
ENDMDL
MODEL 7
REMARK VINA RESULT:      -6.4      3.281      4.494
REMARK  Name = 
REMARK  7 active torsions:
REMARK  status: ('A' for Active; 'I' for Inactive)
REMARK    1  A    between atoms: C_1  and  C_2
REMARK    2  A    between atoms: C_2  and  C_3
REMARK    3  A    between atoms: C_3  and  O_4
REMARK    4  A    between atoms: O_4  and  C_5
REMARK    5  A    between atoms: C_5  and  C_6
REMARK    6  A    between atoms: N_8  and  C_9
REMARK    7  A    between atoms: C_18  and  N_19
REMARK                            x       y       z     vdW  Elec       q    Type
REMARK                         _______ _______ _______ _____ _____    ______ ____
ROOT
ATOM      1  C   UNL     1       4.163   5.144  19.454  0.00  0.00    +0.000 C 
ATOM      2  C   UNL     1       2.961   4.212  19.504  0.00  0.00    +0.000 A 
ATOM      3  C   UNL     1       2.198   4.149  20.685  0.00  0.00    +0.000 A 
ATOM      4  C   UNL     1       1.072   3.330  20.768  0.00  0.00    +0.000 A 
ATOM      5  C   UNL     1       0.692   2.560  19.673  0.00  0.00    +0.000 A 
ATOM      6  C   UNL     1       1.440   2.609  18.498  0.00  0.00    +0.000 A 
ATOM      7  C   UNL     1       2.570   3.435  18.397  0.00  0.00    +0.000 A 
ATOM      8  C   UNL     1       3.374   3.404  17.125  0.00  0.00    +0.000 C 
ATOM      9  C   UNL     1       4.290   4.609  16.965  0.00  0.00    +0.000 C 
ATOM     10  C   UNL     1       5.099   4.856  18.249  0.00  0.00    +0.000 C 
ENDROOT
BRANCH  10  11
ATOM     11  N   UNL     1       6.134   5.869  18.077  0.00  0.00    +0.000 N 
ATOM     12  C   UNL     1       7.279   5.975  18.823  0.00  0.00    +0.000 A 
ATOM     13  C   UNL     1       7.963   7.037  18.278  0.00  0.00    +0.000 A 
ATOM     14  N   UNL     1       7.262   7.583  17.236  0.00  0.00    +0.000 NA
ATOM     15  C   UNL     1       6.164   6.870  17.145  0.00  0.00    +0.000 A 
ENDBRANCH  10  11
BRANCH   1  18
ATOM     16  C   UNL     1       2.602   6.931  18.729  0.00  0.00    +0.000 C 
ATOM     17  O   UNL     1       1.943   6.181  18.017  0.00  0.00    +0.000 OA
ATOM     18  N   UNL     1       3.687   6.523  19.478  0.00  0.00    +0.000 N 
ATOM     19  H   UNL     1       4.266   7.244  19.896  0.00  0.00    +0.000 HD
BRANCH  16  20
ATOM     20  C   UNL     1       2.309   8.427  18.847  0.00  0.00    +0.000 C 
BRANCH  20  21
ATOM     21  O   UNL     1       1.104   8.709  19.555  0.00  0.00    +0.000 OA
BRANCH  21  22
ATOM     22  C   UNL     1       1.216   8.375  20.942  0.00  0.00    +0.000 C 
BRANCH  22  24
ATOM     23  C   UNL     1      -0.023   9.478  22.830  0.00  0.00    +0.000 C 
ATOM     24  C   UNL     1      -0.138   8.588  21.604  0.00  0.00    +0.000 C 
ENDBRANCH  22  24
ENDBRANCH  21  22
ENDBRANCH  20  21
ENDBRANCH  16  20
ENDBRANCH   1  18
TORSDOF 6
ENDMDL
MODEL 8
REMARK VINA RESULT:      -6.3      3.202      4.423
REMARK  Name = 
REMARK  7 active torsions:
REMARK  status: ('A' for Active; 'I' for Inactive)
REMARK    1  A    between atoms: C_1  and  C_2
REMARK    2  A    between atoms: C_2  and  C_3
REMARK    3  A    between atoms: C_3  and  O_4
REMARK    4  A    between atoms: O_4  and  C_5
REMARK    5  A    between atoms: C_5  and  C_6
REMARK    6  A    between atoms: N_8  and  C_9
REMARK    7  A    between atoms: C_18  and  N_19
REMARK                            x       y       z     vdW  Elec       q    Type
REMARK                         _______ _______ _______ _____ _____    ______ ____
ROOT
ATOM      1  C   UNL     1       4.227   4.951  19.500  0.00  0.00    +0.000 C 
ATOM      2  C   UNL     1       3.051   3.986  19.540  0.00  0.00    +0.000 A 
ATOM      3  C   UNL     1       2.223   3.970  20.678  0.00  0.00    +0.000 A 
ATOM      4  C   UNL     1       1.118   3.122  20.749  0.00  0.00    +0.000 A 
ATOM      5  C   UNL     1       0.823   2.277  19.684  0.00  0.00    +0.000 A 
ATOM      6  C   UNL     1       1.635   2.279  18.551  0.00  0.00    +0.000 A 
ATOM      7  C   UNL     1       2.746   3.133  18.463  0.00  0.00    +0.000 A 
ATOM      8  C   UNL     1       3.622   3.051  17.242  0.00  0.00    +0.000 C 
ATOM      9  C   UNL     1       4.511   4.272  17.059  0.00  0.00    +0.000 C 
ATOM     10  C   UNL     1       5.238   4.620  18.369  0.00  0.00    +0.000 C 
ENDROOT
BRANCH  10  11
ATOM     11  N   UNL     1       6.253   5.653  18.193  0.00  0.00    +0.000 N 
ATOM     12  C   UNL     1       6.236   6.634  17.236  0.00  0.00    +0.000 A 
ATOM     13  C   UNL     1       7.357   7.392  17.481  0.00  0.00    +0.000 A 
ATOM     14  N   UNL     1       8.057   6.893  18.546  0.00  0.00    +0.000 NA
ATOM     15  C   UNL     1       7.378   5.844  18.947  0.00  0.00    +0.000 A 
ENDBRANCH  10  11
BRANCH   1  18
ATOM     16  C   UNL     1       2.683   6.648  18.558  0.00  0.00    +0.000 C 
ATOM     17  O   UNL     1       2.106   5.843  17.835  0.00  0.00    +0.000 OA
ATOM     18  N   UNL     1       3.713   6.313  19.414  0.00  0.00    +0.000 N 
ATOM     19  H   UNL     1       4.234   7.072  19.839  0.00  0.00    +0.000 HD
BRANCH  16  20
ATOM     20  C   UNL     1       2.339   8.138  18.574  0.00  0.00    +0.000 C 
BRANCH  20  21
ATOM     21  O   UNL     1       1.719   8.558  19.787  0.00  0.00    +0.000 OA
BRANCH  21  22
ATOM     22  C   UNL     1       1.000   9.784  19.616  0.00  0.00    +0.000 C 
BRANCH  22  24
ATOM     23  C   UNL     1      -0.179   8.727  21.568  0.00  0.00    +0.000 C 
ATOM     24  C   UNL     1      -0.297   9.702  20.409  0.00  0.00    +0.000 C 
ENDBRANCH  22  24
ENDBRANCH  21  22
ENDBRANCH  20  21
ENDBRANCH  16  20
ENDBRANCH   1  18
TORSDOF 6
ENDMDL
MODEL 9
REMARK VINA RESULT:      -6.2      2.990      4.370
REMARK  Name = 
REMARK  7 active torsions:
REMARK  status: ('A' for Active; 'I' for Inactive)
REMARK    1  A    between atoms: C_1  and  C_2
REMARK    2  A    between atoms: C_2  and  C_3
REMARK    3  A    between atoms: C_3  and  O_4
REMARK    4  A    between atoms: O_4  and  C_5
REMARK    5  A    between atoms: C_5  and  C_6
REMARK    6  A    between atoms: N_8  and  C_9
REMARK    7  A    between atoms: C_18  and  N_19
REMARK                            x       y       z     vdW  Elec       q    Type
REMARK                         _______ _______ _______ _____ _____    ______ ____
ROOT
ATOM      1  C   UNL     1       2.871   5.954  18.035  0.00  0.00    +0.000 C 
ATOM      2  C   UNL     1       3.036   4.465  18.298  0.00  0.00    +0.000 A 
ATOM      3  C   UNL     1       3.752   3.686  17.371  0.00  0.00    +0.000 A 
ATOM      4  C   UNL     1       3.953   2.322  17.583  0.00  0.00    +0.000 A 
ATOM      5  C   UNL     1       3.439   1.715  18.725  0.00  0.00    +0.000 A 
ATOM      6  C   UNL     1       2.724   2.472  19.651  0.00  0.00    +0.000 A 
ATOM      7  C   UNL     1       2.522   3.848  19.454  0.00  0.00    +0.000 A 
ATOM      8  C   UNL     1       1.692   4.604  20.457  0.00  0.00    +0.000 C 
ATOM      9  C   UNL     1       1.891   6.111  20.383  0.00  0.00    +0.000 C 
ATOM     10  C   UNL     1       1.784   6.607  18.932  0.00  0.00    +0.000 C 
ENDROOT
BRANCH  10  11
ATOM     11  N   UNL     1       1.764   8.063  18.833  0.00  0.00    +0.000 N 
ATOM     12  C   UNL     1       2.017   8.790  17.699  0.00  0.00    +0.000 A 
ATOM     13  C   UNL     1       1.841  10.102  18.070  0.00  0.00    +0.000 A 
ATOM     14  N   UNL     1       1.504  10.193  19.394  0.00  0.00    +0.000 NA
ATOM     15  C   UNL     1       1.476   8.955  19.829  0.00  0.00    +0.000 A 
ENDBRANCH  10  11
BRANCH   1  18
ATOM     16  C   UNL     1       4.906   6.991  17.067  0.00  0.00    +0.000 C 
ATOM     17  O   UNL     1       4.524   6.856  15.909  0.00  0.00    +0.000 OA
ATOM     18  N   UNL     1       4.172   6.601  18.169  0.00  0.00    +0.000 N 
ATOM     19  H   UNL     1       4.642   6.597  19.068  0.00  0.00    +0.000 HD
BRANCH  16  20
ATOM     20  C   UNL     1       6.268   7.588  17.423  0.00  0.00    +0.000 C 
BRANCH  20  21
ATOM     21  O   UNL     1       7.363   6.769  17.019  0.00  0.00    +0.000 OA
BRANCH  21  22
ATOM     22  C   UNL     1       7.645   5.751  17.984  0.00  0.00    +0.000 C 
BRANCH  22  24
ATOM     23  C   UNL     1       7.194   4.515  15.843  0.00  0.00    +0.000 C 
ATOM     24  C   UNL     1       7.406   4.392  17.342  0.00  0.00    +0.000 C 
ENDBRANCH  22  24
ENDBRANCH  21  22
ENDBRANCH  20  21
ENDBRANCH  16  20
ENDBRANCH   1  18
TORSDOF 6
ENDMDL
