MODEL 1
REMARK VINA RESULT:      -7.6      0.000      0.000
REMARK  Name = 
REMARK  6 active torsions:
REMARK  status: ('A' for Active; 'I' for Inactive)
REMARK    1  A    between atoms: C_1  and  C_2
REMARK    2  A    between atoms: C_2  and  C_3
REMARK    3  A    between atoms: C_3  and  S_4
REMARK    4  A    between atoms: S_4  and  C_5
REMARK    5  A    between atoms: N_12  and  C_13
REMARK    6  A    between atoms: C_18  and  C_19
REMARK                            x       y       z     vdW  Elec       q    Type
REMARK                         _______ _______ _______ _____ _____    ______ ____
ROOT
ATOM      1  C   UNL     1      -0.231  10.862  21.378  0.00  0.00    +0.000 A 
ATOM      2  N   UNL     1       0.129  10.590  22.614  0.00  0.00    +0.000 NA
ATOM      3  N   UNL     1       0.848   9.401  22.692  0.00  0.00    +0.000 NA
ATOM      4  C   UNL     1       1.040   8.862  21.508  0.00  0.00    +0.000 A 
ATOM      5  N   UNL     1       1.757   7.697  21.307  0.00  0.00    +0.000 N 
ATOM      6  C   UNL     1       2.302   7.343  20.089  0.00  0.00    +0.000 C 
ATOM      7  O   UNL     1       2.235   8.040  19.084  0.00  0.00    +0.000 OA
ATOM      8  N   UNL     1       2.933   6.104  20.120  0.00  0.00    +0.000 N 
ATOM      9  S   UNL     1       0.247   9.689  20.237  0.00  0.00    +0.000 S 
ATOM     10  H   UNL     1       2.142   7.299  22.149  0.00  0.00    +0.000 HD
ATOM     11  H   UNL     1       2.666   5.478  20.865  0.00  0.00    +0.000 HD
ENDROOT
BRANCH   8  12
ATOM     12  C   UNL     1       3.605   5.535  19.005  0.00  0.00    +0.000 A 
ATOM     13  C   UNL     1       2.967   4.705  18.084  0.00  0.00    +0.000 A 
ATOM     14  C   UNL     1       3.680   4.080  17.061  0.00  0.00    +0.000 A 
ATOM     15  C   UNL     1       5.048   4.298  16.915  0.00  0.00    +0.000 A 
ATOM     16 CL   UNL     1       5.823   3.433  15.640  0.00  0.00    +0.000 Cl
ATOM     17  C   UNL     1       5.713   5.173  17.780  0.00  0.00    +0.000 A 
ATOM     18  C   UNL     1       4.968   5.800  18.819  0.00  0.00    +0.000 A 
BRANCH  17  19
ATOM     19  C   UNL     1       7.181   5.494  17.683  0.00  0.00    +0.000 C 
ATOM     20  F   UNL     1       7.591   6.166  16.576  0.00  0.00    +0.000 F 
ATOM     21  F   UNL     1       7.602   6.244  18.742  0.00  0.00    +0.000 F 
ATOM     22  F   UNL     1       7.947   4.363  17.719  0.00  0.00    +0.000 F 
ENDBRANCH  17  19
ENDBRANCH   8  12
BRANCH   1  23
ATOM     23  S   UNL     1      -1.150  12.278  20.921  0.00  0.00    +0.000 S 
BRANCH  23  24
ATOM     24  C   UNL     1      -1.472  11.933  19.170  0.00  0.00    +0.000 C 
BRANCH  24  26
ATOM     25  C   UNL     1       0.014  13.964  19.156  0.00  0.00    +0.000 C 
ATOM     26  C   UNL     1      -0.697  12.924  18.302  0.00  0.00    +0.000 C 
ENDBRANCH  24  26
ENDBRANCH  23  24
ENDBRANCH   1  23
TORSDOF 5
ENDMDL
MODEL 2
REMARK VINA RESULT:      -7.6      0.745      1.406
REMARK  Name = 
REMARK  6 active torsions:
REMARK  status: ('A' for Active; 'I' for Inactive)
REMARK    1  A    between atoms: C_1  and  C_2
REMARK    2  A    between atoms: C_2  and  C_3
REMARK    3  A    between atoms: C_3  and  S_4
REMARK    4  A    between atoms: S_4  and  C_5
REMARK    5  A    between atoms: N_12  and  C_13
REMARK    6  A    between atoms: C_18  and  C_19
REMARK                            x       y       z     vdW  Elec       q    Type
REMARK                         _______ _______ _______ _____ _____    ______ ____
ROOT
ATOM      1  C   UNL     1      -0.251  10.928  21.329  0.00  0.00    +0.000 A 
ATOM      2  N   UNL     1       0.090  10.650  22.568  0.00  0.00    +0.000 NA
ATOM      3  N   UNL     1       0.803   9.458  22.653  0.00  0.00    +0.000 NA
ATOM      4  C   UNL     1       1.009   8.922  21.469  0.00  0.00    +0.000 A 
ATOM      5  N   UNL     1       1.724   7.755  21.274  0.00  0.00    +0.000 N 
ATOM      6  C   UNL     1       2.286   7.403  20.062  0.00  0.00    +0.000 C 
ATOM      7  O   UNL     1       2.235   8.104  19.060  0.00  0.00    +0.000 OA
ATOM      8  N   UNL     1       2.911   6.162  20.098  0.00  0.00    +0.000 N 
ATOM      9  S   UNL     1       0.238   9.757  20.190  0.00  0.00    +0.000 S 
ATOM     10  H   UNL     1       2.095   7.352  22.120  0.00  0.00    +0.000 HD
ATOM     11  H   UNL     1       2.631   5.534  20.837  0.00  0.00    +0.000 HD
ENDROOT
BRANCH   8  12
ATOM     12  C   UNL     1       3.597   5.594  18.991  0.00  0.00    +0.000 A 
ATOM     13  C   UNL     1       2.952   4.837  18.013  0.00  0.00    +0.000 A 
ATOM     14  C   UNL     1       3.671   4.209  16.997  0.00  0.00    +0.000 A 
ATOM     15  C   UNL     1       5.055   4.349  16.916  0.00  0.00    +0.000 A 
ATOM     16 CL   UNL     1       5.833   3.486  15.642  0.00  0.00    +0.000 Cl
ATOM     17  C   UNL     1       5.731   5.150  17.841  0.00  0.00    +0.000 A 
ATOM     18  C   UNL     1       4.979   5.783  18.872  0.00  0.00    +0.000 A 
BRANCH  17  19
ATOM     19  C   UNL     1       7.219   5.385  17.819  0.00  0.00    +0.000 C 
ATOM     20  F   UNL     1       8.013   4.283  17.788  0.00  0.00    +0.000 F 
ATOM     21  F   UNL     1       7.593   6.135  16.744  0.00  0.00    +0.000 F 
ATOM     22  F   UNL     1       7.633   6.093  18.912  0.00  0.00    +0.000 F 
ENDBRANCH  17  19
ENDBRANCH   8  12
BRANCH   1  23
ATOM     23  S   UNL     1      -1.158  12.349  20.864  0.00  0.00    +0.000 S 
BRANCH  23  24
ATOM     24  C   UNL     1      -1.960  11.768  19.344  0.00  0.00    +0.000 C 
BRANCH  24  26
ATOM     25  C   UNL     1      -4.168  11.600  18.150  0.00  0.00    +0.000 C 
ATOM     26  C   UNL     1      -3.436  12.160  19.361  0.00  0.00    +0.000 C 
ENDBRANCH  24  26
ENDBRANCH  23  24
ENDBRANCH   1  23
TORSDOF 5
ENDMDL
MODEL 3
REMARK VINA RESULT:      -7.5      0.606      1.059
REMARK  Name = 
REMARK  6 active torsions:
REMARK  status: ('A' for Active; 'I' for Inactive)
REMARK    1  A    between atoms: C_1  and  C_2
REMARK    2  A    between atoms: C_2  and  C_3
REMARK    3  A    between atoms: C_3  and  S_4
REMARK    4  A    between atoms: S_4  and  C_5
REMARK    5  A    between atoms: N_12  and  C_13
REMARK    6  A    between atoms: C_18  and  C_19
REMARK                            x       y       z     vdW  Elec       q    Type
REMARK                         _______ _______ _______ _____ _____    ______ ____
ROOT
ATOM      1  C   UNL     1      -0.191  10.861  21.397  0.00  0.00    +0.000 A 
ATOM      2  N   UNL     1       0.158  10.568  22.631  0.00  0.00    +0.000 NA
ATOM      3  N   UNL     1       0.867   9.372  22.698  0.00  0.00    +0.000 NA
ATOM      4  C   UNL     1       1.062   8.848  21.507  0.00  0.00    +0.000 A 
ATOM      5  N   UNL     1       1.772   7.680  21.294  0.00  0.00    +0.000 N 
ATOM      6  C   UNL     1       2.323   7.340  20.075  0.00  0.00    +0.000 C 
ATOM      7  O   UNL     1       2.269   8.051  19.081  0.00  0.00    +0.000 OA
ATOM      8  N   UNL     1       2.944   6.095  20.093  0.00  0.00    +0.000 N 
ATOM      9  S   UNL     1       0.286   9.700  20.242  0.00  0.00    +0.000 S 
ATOM     10  H   UNL     1       2.147   7.267  22.133  0.00  0.00    +0.000 HD
ATOM     11  H   UNL     1       2.667   5.461  20.827  0.00  0.00    +0.000 HD
ENDROOT
BRANCH   8  12
ATOM     12  C   UNL     1       3.620   5.537  18.975  0.00  0.00    +0.000 A 
ATOM     13  C   UNL     1       2.972   4.765  18.012  0.00  0.00    +0.000 A 
ATOM     14  C   UNL     1       3.684   4.146  16.984  0.00  0.00    +0.000 A 
ATOM     15  C   UNL     1       5.063   4.313  16.877  0.00  0.00    +0.000 A 
ATOM     16 CL   UNL     1       5.833   3.460  15.592  0.00  0.00    +0.000 Cl
ATOM     17  C   UNL     1       5.741   5.130  17.787  0.00  0.00    +0.000 A 
ATOM     18  C   UNL     1       4.996   5.752  18.830  0.00  0.00    +0.000 A 
BRANCH  17  19
ATOM     19  C   UNL     1       7.223   5.394  17.736  0.00  0.00    +0.000 C 
ATOM     20  F   UNL     1       8.036   4.308  17.671  0.00  0.00    +0.000 F 
ATOM     21  F   UNL     1       7.559   6.167  16.664  0.00  0.00    +0.000 F 
ATOM     22  F   UNL     1       7.647   6.094  18.829  0.00  0.00    +0.000 F 
ENDBRANCH  17  19
ENDBRANCH   8  12
BRANCH   1  23
ATOM     23  S   UNL     1      -1.095  12.290  20.954  0.00  0.00    +0.000 S 
BRANCH  23  24
ATOM     24  C   UNL     1       0.249  13.450  20.582  0.00  0.00    +0.000 C 
BRANCH  24  26
ATOM     25  C   UNL     1       1.576  12.963  18.501  0.00  0.00    +0.000 C 
ATOM     26  C   UNL     1       0.346  13.654  19.071  0.00  0.00    +0.000 C 
ENDBRANCH  24  26
ENDBRANCH  23  24
ENDBRANCH   1  23
TORSDOF 5
ENDMDL
MODEL 4
REMARK VINA RESULT:      -7.5      1.354      1.779
REMARK  Name = 
REMARK  6 active torsions:
REMARK  status: ('A' for Active; 'I' for Inactive)
REMARK    1  A    between atoms: C_1  and  C_2
REMARK    2  A    between atoms: C_2  and  C_3
REMARK    3  A    between atoms: C_3  and  S_4
REMARK    4  A    between atoms: S_4  and  C_5
REMARK    5  A    between atoms: N_12  and  C_13
REMARK    6  A    between atoms: C_18  and  C_19
REMARK                            x       y       z     vdW  Elec       q    Type
REMARK                         _______ _______ _______ _____ _____    ______ ____
ROOT
ATOM      1  C   UNL     1      -0.256  10.844  21.511  0.00  0.00    +0.000 A 
ATOM      2  N   UNL     1       0.092  10.533  22.740  0.00  0.00    +0.000 NA
ATOM      3  N   UNL     1       0.807   9.340  22.788  0.00  0.00    +0.000 NA
ATOM      4  C   UNL     1       1.006   8.836  21.590  0.00  0.00    +0.000 A 
ATOM      5  N   UNL     1       1.721   7.675  21.358  0.00  0.00    +0.000 N 
ATOM      6  C   UNL     1       2.275   7.357  20.135  0.00  0.00    +0.000 C 
ATOM      7  O   UNL     1       2.218   8.084  19.152  0.00  0.00    +0.000 OA
ATOM      8  N   UNL     1       2.901   6.115  20.133  0.00  0.00    +0.000 N 
ATOM      9  S   UNL     1       0.227   9.705  20.338  0.00  0.00    +0.000 S 
ATOM     10  H   UNL     1       2.097   7.250  22.191  0.00  0.00    +0.000 HD
ATOM     11  H   UNL     1       2.626   5.468  20.857  0.00  0.00    +0.000 HD
ENDROOT
BRANCH   8  12
ATOM     12  C   UNL     1       3.581   5.578  19.006  0.00  0.00    +0.000 A 
ATOM     13  C   UNL     1       2.936   4.821  18.028  0.00  0.00    +0.000 A 
ATOM     14  C   UNL     1       3.651   4.222  16.992  0.00  0.00    +0.000 A 
ATOM     15  C   UNL     1       5.030   4.394  16.891  0.00  0.00    +0.000 A 
ATOM     16 CL   UNL     1       5.805   3.566  15.592  0.00  0.00    +0.000 Cl
ATOM     17  C   UNL     1       5.704   5.197  17.816  0.00  0.00    +0.000 A 
ATOM     18  C   UNL     1       4.956   5.799  18.868  0.00  0.00    +0.000 A 
BRANCH  17  19
ATOM     19  C   UNL     1       7.186   5.464  17.773  0.00  0.00    +0.000 C 
ATOM     20  F   UNL     1       8.003   4.380  17.727  0.00  0.00    +0.000 F 
ATOM     21  F   UNL     1       7.528   6.225  16.694  0.00  0.00    +0.000 F 
ATOM     22  F   UNL     1       7.600   6.179  18.861  0.00  0.00    +0.000 F 
ENDBRANCH  17  19
ENDBRANCH   8  12
BRANCH   1  23
ATOM     23  S   UNL     1      -1.167  12.276  21.090  0.00  0.00    +0.000 S 
BRANCH  23  24
ATOM     24  C   UNL     1      -0.426  13.500  22.205  0.00  0.00    +0.000 C 
BRANCH  24  26
ATOM     25  C   UNL     1      -2.080  15.081  23.251  0.00  0.00    +0.000 C 
ATOM     26  C   UNL     1      -1.361  13.747  23.388  0.00  0.00    +0.000 C 
ENDBRANCH  24  26
ENDBRANCH  23  24
ENDBRANCH   1  23
TORSDOF 5
ENDMDL
MODEL 5
REMARK VINA RESULT:      -7.3      0.858      1.361
REMARK  Name = 
REMARK  6 active torsions:
REMARK  status: ('A' for Active; 'I' for Inactive)
REMARK    1  A    between atoms: C_1  and  C_2
REMARK    2  A    between atoms: C_2  and  C_3
REMARK    3  A    between atoms: C_3  and  S_4
REMARK    4  A    between atoms: S_4  and  C_5
REMARK    5  A    between atoms: N_12  and  C_13
REMARK    6  A    between atoms: C_18  and  C_19
REMARK                            x       y       z     vdW  Elec       q    Type
REMARK                         _______ _______ _______ _____ _____    ______ ____
ROOT
ATOM      1  C   UNL     1      -0.047  11.036  21.346  0.00  0.00    +0.000 A 
ATOM      2  N   UNL     1       0.175  10.659  22.586  0.00  0.00    +0.000 NA
ATOM      3  N   UNL     1       0.785   9.409  22.645  0.00  0.00    +0.000 NA
ATOM      4  C   UNL     1       1.039   8.928  21.447  0.00  0.00    +0.000 A 
ATOM      5  N   UNL     1       1.675   7.719  21.229  0.00  0.00    +0.000 N 
ATOM      6  C   UNL     1       2.299   7.394  20.041  0.00  0.00    +0.000 C 
ATOM      7  O   UNL     1       2.380   8.154  19.085  0.00  0.00    +0.000 OA
ATOM      8  N   UNL     1       2.821   6.105  20.042  0.00  0.00    +0.000 N 
ATOM      9  S   UNL     1       0.437   9.897  20.172  0.00  0.00    +0.000 S 
ATOM     10  H   UNL     1       1.947   7.239  22.072  0.00  0.00    +0.000 HD
ATOM     11  H   UNL     1       2.437   5.461  20.717  0.00  0.00    +0.000 HD
ENDROOT
BRANCH   8  12
ATOM     12  C   UNL     1       3.544   5.549  18.952  0.00  0.00    +0.000 A 
ATOM     13  C   UNL     1       2.938   4.774  17.964  0.00  0.00    +0.000 A 
ATOM     14  C   UNL     1       3.694   4.158  16.967  0.00  0.00    +0.000 A 
ATOM     15  C   UNL     1       5.075   4.329  16.916  0.00  0.00    +0.000 A 
ATOM     16 CL   UNL     1       5.900   3.478  15.664  0.00  0.00    +0.000 Cl
ATOM     17  C   UNL     1       5.713   5.149  17.853  0.00  0.00    +0.000 A 
ATOM     18  C   UNL     1       4.924   5.768  18.864  0.00  0.00    +0.000 A 
BRANCH  17  19
ATOM     19  C   UNL     1       7.195   5.417  17.862  0.00  0.00    +0.000 C 
ATOM     20  F   UNL     1       7.684   6.116  18.919  0.00  0.00    +0.000 F 
ATOM     21  F   UNL     1       7.915   4.259  17.826  0.00  0.00    +0.000 F 
ATOM     22  F   UNL     1       7.587   6.118  16.757  0.00  0.00    +0.000 F 
ENDBRANCH  17  19
ENDBRANCH   8  12
BRANCH   1  23
ATOM     23  S   UNL     1      -0.802  12.551  20.909  0.00  0.00    +0.000 S 
BRANCH  23  24
ATOM     24  C   UNL     1      -2.100  11.980  19.778  0.00  0.00    +0.000 C 
BRANCH  24  26
ATOM     25  C   UNL     1      -3.341  13.271  21.545  0.00  0.00    +0.000 C 
ATOM     26  C   UNL     1      -3.442  12.580  20.193  0.00  0.00    +0.000 C 
ENDBRANCH  24  26
ENDBRANCH  23  24
ENDBRANCH   1  23
TORSDOF 5
ENDMDL
MODEL 6
REMARK VINA RESULT:      -7.2      0.753      1.220
REMARK  Name = 
REMARK  6 active torsions:
REMARK  status: ('A' for Active; 'I' for Inactive)
REMARK    1  A    between atoms: C_1  and  C_2
REMARK    2  A    between atoms: C_2  and  C_3
REMARK    3  A    between atoms: C_3  and  S_4
REMARK    4  A    between atoms: S_4  and  C_5
REMARK    5  A    between atoms: N_12  and  C_13
REMARK    6  A    between atoms: C_18  and  C_19
REMARK                            x       y       z     vdW  Elec       q    Type
REMARK                         _______ _______ _______ _____ _____    ______ ____
ROOT
ATOM      1  C   UNL     1      -0.310  10.861  21.455  0.00  0.00    +0.000 A 
ATOM      2  N   UNL     1       0.061  10.582  22.686  0.00  0.00    +0.000 NA
ATOM      3  N   UNL     1       0.792   9.400  22.749  0.00  0.00    +0.000 NA
ATOM      4  C   UNL     1       0.981   8.873  21.558  0.00  0.00    +0.000 A 
ATOM      5  N   UNL     1       1.709   7.717  21.342  0.00  0.00    +0.000 N 
ATOM      6  C   UNL     1       2.249   7.379  20.117  0.00  0.00    +0.000 C 
ATOM      7  O   UNL     1       2.168   8.084  19.120  0.00  0.00    +0.000 OA
ATOM      8  N   UNL     1       2.893   6.146  20.133  0.00  0.00    +0.000 N 
ATOM      9  S   UNL     1       0.172   9.703  20.300  0.00  0.00    +0.000 S 
ATOM     10  H   UNL     1       2.103   7.315  22.178  0.00  0.00    +0.000 HD
ATOM     11  H   UNL     1       2.637   5.511  20.875  0.00  0.00    +0.000 HD
ENDROOT
BRANCH   8  12
ATOM     12  C   UNL     1       3.563   5.594  19.009  0.00  0.00    +0.000 A 
ATOM     13  C   UNL     1       2.914   4.808  18.056  0.00  0.00    +0.000 A 
ATOM     14  C   UNL     1       3.623   4.196  17.023  0.00  0.00    +0.000 A 
ATOM     15  C   UNL     1       4.998   4.383  16.898  0.00  0.00    +0.000 A 
ATOM     16 CL   UNL     1       5.765   3.537  15.606  0.00  0.00    +0.000 Cl
ATOM     17  C   UNL     1       5.674   5.214  17.796  0.00  0.00    +0.000 A 
ATOM     18  C   UNL     1       4.933   5.829  18.846  0.00  0.00    +0.000 A 
BRANCH  17  19
ATOM     19  C   UNL     1       7.151   5.500  17.726  0.00  0.00    +0.000 C 
ATOM     20  F   UNL     1       7.666   6.309  18.688  0.00  0.00    +0.000 F 
ATOM     21  F   UNL     1       7.888   4.353  17.781  0.00  0.00    +0.000 F 
ATOM     22  F   UNL     1       7.494   6.089  16.542  0.00  0.00    +0.000 F 
ENDBRANCH  17  19
ENDBRANCH   8  12
BRANCH   1  23
ATOM     23  S   UNL     1      -1.247  12.271  21.017  0.00  0.00    +0.000 S 
BRANCH  23  24
ATOM     24  C   UNL     1      -0.013  13.238  20.103  0.00  0.00    +0.000 C 
BRANCH  24  26
ATOM     25  C   UNL     1       2.217  14.327  20.509  0.00  0.00    +0.000 C 
ATOM     26  C   UNL     1       1.347  13.111  20.788  0.00  0.00    +0.000 C 
ENDBRANCH  24  26
ENDBRANCH  23  24
ENDBRANCH   1  23
TORSDOF 5
ENDMDL
MODEL 7
REMARK VINA RESULT:      -7.2      7.054      9.280
REMARK  Name = 
REMARK  6 active torsions:
REMARK  status: ('A' for Active; 'I' for Inactive)
REMARK    1  A    between atoms: C_1  and  C_2
REMARK    2  A    between atoms: C_2  and  C_3
REMARK    3  A    between atoms: C_3  and  S_4
REMARK    4  A    between atoms: S_4  and  C_5
REMARK    5  A    between atoms: N_12  and  C_13
REMARK    6  A    between atoms: C_18  and  C_19
REMARK                            x       y       z     vdW  Elec       q    Type
REMARK                         _______ _______ _______ _____ _____    ______ ____
ROOT
ATOM      1  C   UNL     1       6.227   4.955  17.508  0.00  0.00    +0.000 A 
ATOM      2  N   UNL     1       6.548   4.497  18.699  0.00  0.00    +0.000 NA
ATOM      3  N   UNL     1       7.435   5.345  19.356  0.00  0.00    +0.000 NA
ATOM      4  C   UNL     1       7.699   6.423  18.651  0.00  0.00    +0.000 A 
ATOM      5  N   UNL     1       8.522   7.442  19.095  0.00  0.00    +0.000 N 
ATOM      6  C   UNL     1       8.493   8.721  18.576  0.00  0.00    +0.000 C 
ATOM      7  O   UNL     1       7.715   9.084  17.704  0.00  0.00    +0.000 OA
ATOM      8  N   UNL     1       9.448   9.556  19.146  0.00  0.00    +0.000 N 
ATOM      9  S   UNL     1       6.996   6.419  17.091  0.00  0.00    +0.000 S 
ATOM     10  H   UNL     1       8.894   7.299  20.021  0.00  0.00    +0.000 HD
ATOM     11  H   UNL     1      10.231   9.107  19.598  0.00  0.00    +0.000 HD
ENDROOT
BRANCH   8  12
ATOM     12  C   UNL     1       9.594  10.929  18.810  0.00  0.00    +0.000 A 
ATOM     13  C   UNL     1      10.351  11.363  17.722  0.00  0.00    +0.000 A 
ATOM     14  C   UNL     1      10.558  12.721  17.483  0.00  0.00    +0.000 A 
ATOM     15  C   UNL     1       9.983  13.682  18.311  0.00  0.00    +0.000 A 
ATOM     16 CL   UNL     1      10.351  15.325  17.937  0.00  0.00    +0.000 Cl
ATOM     17  C   UNL     1       9.166  13.289  19.376  0.00  0.00    +0.000 A 
ATOM     18  C   UNL     1       8.968  11.898  19.604  0.00  0.00    +0.000 A 
BRANCH  17  19
ATOM     19  C   UNL     1       8.479  14.254  20.307  0.00  0.00    +0.000 C 
ATOM     20  F   UNL     1       9.272  15.131  20.975  0.00  0.00    +0.000 F 
ATOM     21  F   UNL     1       7.561  15.019  19.650  0.00  0.00    +0.000 F 
ATOM     22  F   UNL     1       7.773  13.600  21.277  0.00  0.00    +0.000 F 
ENDBRANCH  17  19
ENDBRANCH   8  12
BRANCH   1  23
ATOM     23  S   UNL     1       5.138   4.137  16.412  0.00  0.00    +0.000 S 
BRANCH  23  24
ATOM     24  C   UNL     1       4.064   3.257  17.580  0.00  0.00    +0.000 C 
BRANCH  24  26
ATOM     25  C   UNL     1       1.786   4.055  18.289  0.00  0.00    +0.000 C 
ATOM     26  C   UNL     1       2.604   3.433  17.166  0.00  0.00    +0.000 C 
ENDBRANCH  24  26
ENDBRANCH  23  24
ENDBRANCH   1  23
TORSDOF 5
ENDMDL
MODEL 8
REMARK VINA RESULT:      -7.2      7.572      9.699
REMARK  Name = 
REMARK  6 active torsions:
REMARK  status: ('A' for Active; 'I' for Inactive)
REMARK    1  A    between atoms: C_1  and  C_2
REMARK    2  A    between atoms: C_2  and  C_3
REMARK    3  A    between atoms: C_3  and  S_4
REMARK    4  A    between atoms: S_4  and  C_5
REMARK    5  A    between atoms: N_12  and  C_13
REMARK    6  A    between atoms: C_18  and  C_19
REMARK                            x       y       z     vdW  Elec       q    Type
REMARK                         _______ _______ _______ _____ _____    ______ ____
ROOT
ATOM      1  C   UNL     1       6.193   5.068  17.383  0.00  0.00    +0.000 A 
ATOM      2  N   UNL     1       6.556   4.512  18.519  0.00  0.00    +0.000 NA
ATOM      3  N   UNL     1       7.469   5.301  19.212  0.00  0.00    +0.000 NA
ATOM      4  C   UNL     1       7.711   6.435  18.591  0.00  0.00    +0.000 A 
ATOM      5  N   UNL     1       8.554   7.412  19.088  0.00  0.00    +0.000 N 
ATOM      6  C   UNL     1       8.510   8.730  18.680  0.00  0.00    +0.000 C 
ATOM      7  O   UNL     1       7.702   9.166  17.870  0.00  0.00    +0.000 OA
ATOM      8  N   UNL     1       9.488   9.514  19.283  0.00  0.00    +0.000 N 
ATOM      9  S   UNL     1       6.952   6.561  17.063  0.00  0.00    +0.000 S 
ATOM     10  H   UNL     1       8.958   7.191  19.984  0.00  0.00    +0.000 HD
ATOM     11  H   UNL     1      10.285   9.029  19.667  0.00  0.00    +0.000 HD
ENDROOT
BRANCH   8  12
ATOM     12  C   UNL     1       9.626  10.911  19.058  0.00  0.00    +0.000 A 
ATOM     13  C   UNL     1       9.943  11.445  17.810  0.00  0.00    +0.000 A 
ATOM     14  C   UNL     1      10.173  12.811  17.647  0.00  0.00    +0.000 A 
ATOM     15  C   UNL     1      10.059  13.683  18.728  0.00  0.00    +0.000 A 
ATOM     16 CL   UNL     1      10.412  15.339  18.408  0.00  0.00    +0.000 Cl
ATOM     17  C   UNL     1       9.682  13.194  19.983  0.00  0.00    +0.000 A 
ATOM     18  C   UNL     1       9.453  11.796  20.129  0.00  0.00    +0.000 A 
BRANCH  17  19
ATOM     19  C   UNL     1       9.505  14.060  21.203  0.00  0.00    +0.000 C 
ATOM     20  F   UNL     1       8.601  15.070  21.111  0.00  0.00    +0.000 F 
ATOM     21  F   UNL     1       9.126  13.327  22.289  0.00  0.00    +0.000 F 
ATOM     22  F   UNL     1      10.677  14.661  21.567  0.00  0.00    +0.000 F 
ENDBRANCH  17  19
ENDBRANCH   8  12
BRANCH   1  23
ATOM     23  S   UNL     1       5.062   4.345  16.263  0.00  0.00    +0.000 S 
BRANCH  23  24
ATOM     24  C   UNL     1       6.194   3.567  15.079  0.00  0.00    +0.000 C 
BRANCH  24  26
ATOM     25  C   UNL     1       6.070   3.447  12.569  0.00  0.00    +0.000 C 
ATOM     26  C   UNL     1       6.200   4.365  13.776  0.00  0.00    +0.000 C 
ENDBRANCH  24  26
ENDBRANCH  23  24
ENDBRANCH   1  23
TORSDOF 5
ENDMDL
MODEL 9
REMARK VINA RESULT:      -7.1      7.166      9.598
REMARK  Name = 
REMARK  6 active torsions:
REMARK  status: ('A' for Active; 'I' for Inactive)
REMARK    1  A    between atoms: C_1  and  C_2
REMARK    2  A    between atoms: C_2  and  C_3
REMARK    3  A    between atoms: C_3  and  S_4
REMARK    4  A    between atoms: S_4  and  C_5
REMARK    5  A    between atoms: N_12  and  C_13
REMARK    6  A    between atoms: C_18  and  C_19
REMARK                            x       y       z     vdW  Elec       q    Type
REMARK                         _______ _______ _______ _____ _____    ______ ____
ROOT
ATOM      1  C   UNL     1       6.375   4.852  17.415  0.00  0.00    +0.000 A 
ATOM      2  N   UNL     1       6.486   4.563  18.694  0.00  0.00    +0.000 NA
ATOM      3  N   UNL     1       7.273   5.493  19.366  0.00  0.00    +0.000 NA
ATOM      4  C   UNL     1       7.674   6.464  18.574  0.00  0.00    +0.000 A 
ATOM      5  N   UNL     1       8.438   7.534  19.005  0.00  0.00    +0.000 N 
ATOM      6  C   UNL     1       8.524   8.728  18.319  0.00  0.00    +0.000 C 
ATOM      7  O   UNL     1       7.907   8.968  17.289  0.00  0.00    +0.000 OA
ATOM      8  N   UNL     1       9.392   9.634  18.919  0.00  0.00    +0.000 N 
ATOM      9  S   UNL     1       7.236   6.243  16.935  0.00  0.00    +0.000 S 
ATOM     10  H   UNL     1       8.650   7.519  19.990  0.00  0.00    +0.000 HD
ATOM     11  H   UNL     1      10.080   9.251  19.552  0.00  0.00    +0.000 HD
ENDROOT
BRANCH   8  12
ATOM     12  C   UNL     1       9.623  10.947  18.428  0.00  0.00    +0.000 A 
ATOM     13  C   UNL     1      10.873  11.377  17.984  0.00  0.00    +0.000 A 
ATOM     14  C   UNL     1      11.088  12.702  17.607  0.00  0.00    +0.000 A 
ATOM     15  C   UNL     1      10.045  13.625  17.634  0.00  0.00    +0.000 A 
ATOM     16 CL   UNL     1      10.449  15.240  17.187  0.00  0.00    +0.000 Cl
ATOM     17  C   UNL     1       8.762  13.218  18.013  0.00  0.00    +0.000 A 
ATOM     18  C   UNL     1       8.563  11.861  18.397  0.00  0.00    +0.000 A 
BRANCH  17  19
ATOM     19  C   UNL     1       7.567  14.135  18.047  0.00  0.00    +0.000 C 
ATOM     20  F   UNL     1       7.108  14.499  19.273  0.00  0.00    +0.000 F 
ATOM     21  F   UNL     1       7.811  15.303  17.387  0.00  0.00    +0.000 F 
ATOM     22  F   UNL     1       6.491  13.582  17.412  0.00  0.00    +0.000 F 
ENDBRANCH  17  19
ENDBRANCH   8  12
BRANCH   1  23
ATOM     23  S   UNL     1       5.460   3.891  16.276  0.00  0.00    +0.000 S 
BRANCH  23  24
ATOM     24  C   UNL     1       6.387   4.190  14.746  0.00  0.00    +0.000 C 
BRANCH  24  26
ATOM     25  C   UNL     1       6.273   3.402  12.359  0.00  0.00    +0.000 C 
ATOM     26  C   UNL     1       5.481   3.941  13.541  0.00  0.00    +0.000 C 
ENDBRANCH  24  26
ENDBRANCH  23  24
ENDBRANCH   1  23
TORSDOF 5
ENDMDL
