MODEL 1
REMARK VINA RESULT:      -7.9      0.000      0.000
REMARK  Name = 
REMARK  3 active torsions:
REMARK  status: ('A' for Active; 'I' for Inactive)
REMARK    1  A    between atoms: C_4  and  C_5
REMARK    2  A    between atoms: C_12  and  C_13
REMARK    3  A    between atoms: C_16  and  C_17
REMARK                            x       y       z     vdW  Elec       q    Type
REMARK                         _______ _______ _______ _____ _____    ______ ____
ROOT
ATOM      1  O   UNL     1      -0.025  11.492  21.825  0.00  0.00    +0.000 OA
ATOM      2  C   UNL     1      -0.405  11.074  20.751  0.00  0.00    +0.000 C 
ATOM      3  O   UNL     1      -1.488  11.490  20.035  0.00  0.00    +0.000 OA
ATOM      4  C   UNL     1      -1.489  10.752  18.894  0.00  0.00    +0.000 C 
ATOM      5  N   UNL     1      -0.539   9.892  18.736  0.00  0.00    +0.000 NA
ATOM      6  C   UNL     1       0.200  10.033  19.882  0.00  0.00    +0.000 C 
ATOM      7  C   UNL     1       1.310   9.355  20.210  0.00  0.00    +0.000 C 
ENDROOT
BRANCH   4   8
ATOM      8  C   UNL     1      -2.548  10.980  17.952  0.00  0.00    +0.000 A 
ATOM      9  C   UNL     1      -2.524  10.703  16.595  0.00  0.00    +0.000 A 
ATOM     10  C   UNL     1      -3.745  11.040  15.944  0.00  0.00    +0.000 A 
ATOM     11  C   UNL     1      -4.659  11.574  16.824  0.00  0.00    +0.000 A 
ATOM     12  S   UNL     1      -4.045  11.663  18.417  0.00  0.00    +0.000 S 
ENDBRANCH   4   8
BRANCH   7  13
ATOM     13  C   UNL     1       1.911   8.436  19.301  0.00  0.00    +0.000 A 
ATOM     14  C   UNL     1       2.487   8.686  18.061  0.00  0.00    +0.000 A 
ATOM     15  C   UNL     1       2.934   7.464  17.526  0.00  0.00    +0.000 A 
ATOM     16  C   UNL     1       2.616   6.492  18.446  0.00  0.00    +0.000 A 
ATOM     17  O   UNL     1       2.042   7.082  19.544  0.00  0.00    +0.000 OA
BRANCH  16  18
ATOM     18  C   UNL     1       2.769   5.036  18.479  0.00  0.00    +0.000 A 
ATOM     19  C   UNL     1       1.677   4.225  18.118  0.00  0.00    +0.000 A 
ATOM     20  C   UNL     1       1.764   2.828  18.165  0.00  0.00    +0.000 A 
ATOM     21  C   UNL     1       2.943   2.216  18.568  0.00  0.00    +0.000 A 
ATOM     22  C   UNL     1       4.038   2.996  18.925  0.00  0.00    +0.000 A 
ATOM     23  C   UNL     1       3.958   4.395  18.879  0.00  0.00    +0.000 A 
ATOM     24 CL   UNL     1       5.408   5.244  19.305  0.00  0.00    +0.000 Cl
ENDBRANCH  16  18
ENDBRANCH   7  13
TORSDOF 3
ENDMDL
MODEL 2
REMARK VINA RESULT:      -7.8      3.634      8.058
REMARK  Name = 
REMARK  3 active torsions:
REMARK  status: ('A' for Active; 'I' for Inactive)
REMARK    1  A    between atoms: C_4  and  C_5
REMARK    2  A    between atoms: C_12  and  C_13
REMARK    3  A    between atoms: C_16  and  C_17
REMARK                            x       y       z     vdW  Elec       q    Type
REMARK                         _______ _______ _______ _____ _____    ______ ____
ROOT
ATOM      1  O   UNL     1       4.936   7.035  17.073  0.00  0.00    +0.000 OA
ATOM      2  C   UNL     1       4.012   6.671  17.770  0.00  0.00    +0.000 C 
ATOM      3  O   UNL     1       3.869   5.468  18.396  0.00  0.00    +0.000 OA
ATOM      4  C   UNL     1       2.696   5.536  19.076  0.00  0.00    +0.000 C 
ATOM      5  N   UNL     1       2.023   6.636  19.003  0.00  0.00    +0.000 NA
ATOM      6  C   UNL     1       2.796   7.417  18.183  0.00  0.00    +0.000 C 
ATOM      7  C   UNL     1       2.535   8.671  17.789  0.00  0.00    +0.000 C 
ENDROOT
BRANCH   4   8
ATOM      8  C   UNL     1       2.288   4.379  19.823  0.00  0.00    +0.000 A 
ATOM      9  C   UNL     1       2.262   4.249  21.202  0.00  0.00    +0.000 A 
ATOM     10  C   UNL     1       1.793   2.972  21.624  0.00  0.00    +0.000 A 
ATOM     11  C   UNL     1       1.488   2.163  20.553  0.00  0.00    +0.000 A 
ATOM     12  S   UNL     1       1.762   2.944  19.057  0.00  0.00    +0.000 S 
ENDBRANCH   4   8
BRANCH   7  13
ATOM     13  C   UNL     1       1.405   9.384  18.290  0.00  0.00    +0.000 A 
ATOM     14  C   UNL     1       1.227   9.968  19.538  0.00  0.00    +0.000 A 
ATOM     15  C   UNL     1      -0.055  10.546  19.577  0.00  0.00    +0.000 A 
ATOM     16  C   UNL     1      -0.636  10.296  18.355  0.00  0.00    +0.000 A 
ATOM     17  O   UNL     1       0.263   9.636  17.556  0.00  0.00    +0.000 OA
BRANCH  16  18
ATOM     18  C   UNL     1      -1.950  10.587  17.777  0.00  0.00    +0.000 A 
ATOM     19  C   UNL     1      -2.313   9.976  16.563  0.00  0.00    +0.000 A 
ATOM     20  C   UNL     1      -3.545  10.248  15.954  0.00  0.00    +0.000 A 
ATOM     21  C   UNL     1      -4.438  11.129  16.548  0.00  0.00    +0.000 A 
ATOM     22  C   UNL     1      -4.103  11.741  17.752  0.00  0.00    +0.000 A 
ATOM     23  C   UNL     1      -2.873  11.473  18.368  0.00  0.00    +0.000 A 
ATOM     24 CL   UNL     1      -2.603  12.266  19.886  0.00  0.00    +0.000 Cl
ENDBRANCH  16  18
ENDBRANCH   7  13
TORSDOF 3
ENDMDL
MODEL 3
REMARK VINA RESULT:      -7.7      1.647      2.286
REMARK  Name = 
REMARK  3 active torsions:
REMARK  status: ('A' for Active; 'I' for Inactive)
REMARK    1  A    between atoms: C_4  and  C_5
REMARK    2  A    between atoms: C_12  and  C_13
REMARK    3  A    between atoms: C_16  and  C_17
REMARK                            x       y       z     vdW  Elec       q    Type
REMARK                         _______ _______ _______ _____ _____    ______ ____
ROOT
ATOM      1  O   UNL     1       0.671  11.690  21.668  0.00  0.00    +0.000 OA
ATOM      2  C   UNL     1       0.190  11.048  20.757  0.00  0.00    +0.000 C 
ATOM      3  O   UNL     1      -0.788  11.440  19.892  0.00  0.00    +0.000 OA
ATOM      4  C   UNL     1      -0.971  10.401  19.036  0.00  0.00    +0.000 C 
ATOM      5  N   UNL     1      -0.236   9.352  19.202  0.00  0.00    +0.000 NA
ATOM      6  C   UNL     1       0.536   9.683  20.286  0.00  0.00    +0.000 C 
ATOM      7  C   UNL     1       1.475   8.922  20.865  0.00  0.00    +0.000 C 
ENDROOT
BRANCH   4   8
ATOM      8  C   UNL     1      -1.970  10.543  18.016  0.00  0.00    +0.000 A 
ATOM      9  C   UNL     1      -1.964   9.955  16.761  0.00  0.00    +0.000 A 
ATOM     10  C   UNL     1      -3.113  10.293  15.991  0.00  0.00    +0.000 A 
ATOM     11  C   UNL     1      -3.955  11.137  16.678  0.00  0.00    +0.000 A 
ATOM     12  S   UNL     1      -3.361  11.513  18.236  0.00  0.00    +0.000 S 
ENDBRANCH   4   8
BRANCH   7  13
ATOM     13  C   UNL     1       1.844   7.657  20.317  0.00  0.00    +0.000 A 
ATOM     14  C   UNL     1       1.501   6.384  20.756  0.00  0.00    +0.000 A 
ATOM     15  C   UNL     1       2.112   5.443  19.905  0.00  0.00    +0.000 A 
ATOM     16  C   UNL     1       2.821   6.162  18.970  0.00  0.00    +0.000 A 
ATOM     17  O   UNL     1       2.620   7.502  19.186  0.00  0.00    +0.000 OA
BRANCH  16  18
ATOM     18  C   UNL     1       3.691   5.792  17.852  0.00  0.00    +0.000 A 
ATOM     19  C   UNL     1       4.392   6.802  17.168  0.00  0.00    +0.000 A 
ATOM     20  C   UNL     1       5.211   6.502  16.072  0.00  0.00    +0.000 A 
ATOM     21  C   UNL     1       5.349   5.189  15.643  0.00  0.00    +0.000 A 
ATOM     22  C   UNL     1       4.670   4.172  16.307  0.00  0.00    +0.000 A 
ATOM     23  C   UNL     1       3.850   4.465  17.405  0.00  0.00    +0.000 A 
ATOM     24 CL   UNL     1       3.100   3.101  18.168  0.00  0.00    +0.000 Cl
ENDBRANCH  16  18
ENDBRANCH   7  13
TORSDOF 3
ENDMDL
MODEL 4
REMARK VINA RESULT:      -7.6      1.577      1.759
REMARK  Name = 
REMARK  3 active torsions:
REMARK  status: ('A' for Active; 'I' for Inactive)
REMARK    1  A    between atoms: C_4  and  C_5
REMARK    2  A    between atoms: C_12  and  C_13
REMARK    3  A    between atoms: C_16  and  C_17
REMARK                            x       y       z     vdW  Elec       q    Type
REMARK                         _______ _______ _______ _____ _____    ______ ____
ROOT
ATOM      1  O   UNL     1      -0.213  11.961  22.145  0.00  0.00    +0.000 OA
ATOM      2  C   UNL     1      -0.581  11.406  21.131  0.00  0.00    +0.000 C 
ATOM      3  O   UNL     1      -1.577  11.797  20.286  0.00  0.00    +0.000 OA
ATOM      4  C   UNL     1      -1.599  10.881  19.283  0.00  0.00    +0.000 C 
ATOM      5  N   UNL     1      -0.739   9.919  19.331  0.00  0.00    +0.000 NA
ATOM      6  C   UNL     1      -0.048  10.179  20.486  0.00  0.00    +0.000 C 
ATOM      7  C   UNL     1       0.966   9.463  20.993  0.00  0.00    +0.000 C 
ENDROOT
BRANCH   4   8
ATOM      8  C   UNL     1      -2.580  11.047  18.248  0.00  0.00    +0.000 A 
ATOM      9  C   UNL     1      -2.459  10.664  16.922  0.00  0.00    +0.000 A 
ATOM     10  C   UNL     1      -3.622  10.964  16.156  0.00  0.00    +0.000 A 
ATOM     11  C   UNL     1      -4.589  11.577  16.919  0.00  0.00    +0.000 A 
ATOM     12  S   UNL     1      -4.094  11.783  18.542  0.00  0.00    +0.000 S 
ENDBRANCH   4   8
BRANCH   7  13
ATOM     13  C   UNL     1       1.511   8.350  20.288  0.00  0.00    +0.000 A 
ATOM     14  C   UNL     1       2.218   8.337  19.092  0.00  0.00    +0.000 A 
ATOM     15  C   UNL     1       2.538   7.001  18.782  0.00  0.00    +0.000 A 
ATOM     16  C   UNL     1       2.013   6.227  19.790  0.00  0.00    +0.000 A 
ATOM     17  O   UNL     1       1.434   7.043  20.729  0.00  0.00    +0.000 OA
BRANCH  16  18
ATOM     18  C   UNL     1       1.962   4.786  20.042  0.00  0.00    +0.000 A 
ATOM     19  C   UNL     1       2.168   4.312  21.350  0.00  0.00    +0.000 A 
ATOM     20  C   UNL     1       2.161   2.940  21.635  0.00  0.00    +0.000 A 
ATOM     21  C   UNL     1       1.944   2.018  20.620  0.00  0.00    +0.000 A 
ATOM     22  C   UNL     1       1.732   2.463  19.319  0.00  0.00    +0.000 A 
ATOM     23  C   UNL     1       1.736   3.833  19.027  0.00  0.00    +0.000 A 
ATOM     24 CL   UNL     1       1.414   4.251  17.376  0.00  0.00    +0.000 Cl
ENDBRANCH  16  18
ENDBRANCH   7  13
TORSDOF 3
ENDMDL
MODEL 5
REMARK VINA RESULT:      -7.4      4.347      8.476
REMARK  Name = 
REMARK  3 active torsions:
REMARK  status: ('A' for Active; 'I' for Inactive)
REMARK    1  A    between atoms: C_4  and  C_5
REMARK    2  A    between atoms: C_12  and  C_13
REMARK    3  A    between atoms: C_16  and  C_17
REMARK                            x       y       z     vdW  Elec       q    Type
REMARK                         _______ _______ _______ _____ _____    ______ ____
ROOT
ATOM      1  O   UNL     1       3.794   2.565  20.264  0.00  0.00    +0.000 OA
ATOM      2  C   UNL     1       4.040   3.368  19.388  0.00  0.00    +0.000 C 
ATOM      3  O   UNL     1       4.805   3.174  18.277  0.00  0.00    +0.000 OA
ATOM      4  C   UNL     1       4.764   4.342  17.585  0.00  0.00    +0.000 C 
ATOM      5  N   UNL     1       4.061   5.306  18.079  0.00  0.00    +0.000 NA
ATOM      6  C   UNL     1       3.563   4.766  19.236  0.00  0.00    +0.000 C 
ATOM      7  C   UNL     1       2.762   5.370  20.125  0.00  0.00    +0.000 C 
ENDROOT
BRANCH   4   8
ATOM      8  C   UNL     1       5.509   4.420  16.361  0.00  0.00    +0.000 A 
ATOM      9  C   UNL     1       5.198   3.803  15.160  0.00  0.00    +0.000 A 
ATOM     10  C   UNL     1       6.141   4.093  14.133  0.00  0.00    +0.000 A 
ATOM     11  C   UNL     1       7.148   4.914  14.585  0.00  0.00    +0.000 A 
ATOM     12  S   UNL     1       6.952   5.328  16.232  0.00  0.00    +0.000 S 
ENDBRANCH   4   8
BRANCH   7  13
ATOM     13  C   UNL     1       2.249   6.679  19.887  0.00  0.00    +0.000 A 
ATOM     14  C   UNL     1       2.411   7.490  18.770  0.00  0.00    +0.000 A 
ATOM     15  C   UNL     1       1.732   8.701  18.999  0.00  0.00    +0.000 A 
ATOM     16  C   UNL     1       1.175   8.607  20.254  0.00  0.00    +0.000 A 
ATOM     17  O   UNL     1       1.443   7.366  20.774  0.00  0.00    +0.000 OA
BRANCH  16  18
ATOM     18  C   UNL     1       0.392   9.521  21.088  0.00  0.00    +0.000 A 
ATOM     19  C   UNL     1       0.210   9.219  22.450  0.00  0.00    +0.000 A 
ATOM     20  C   UNL     1      -0.557  10.046  23.280  0.00  0.00    +0.000 A 
ATOM     21  C   UNL     1      -1.152  11.191  22.768  0.00  0.00    +0.000 A 
ATOM     22  C   UNL     1      -0.982  11.514  21.426  0.00  0.00    +0.000 A 
ATOM     23  C   UNL     1      -0.214  10.692  20.589  0.00  0.00    +0.000 A 
ATOM     24 CL   UNL     1      -0.046  11.235  18.951  0.00  0.00    +0.000 Cl
ENDBRANCH  16  18
ENDBRANCH   7  13
TORSDOF 3
ENDMDL
MODEL 6
REMARK VINA RESULT:      -7.4      5.174      8.892
REMARK  Name = 
REMARK  3 active torsions:
REMARK  status: ('A' for Active; 'I' for Inactive)
REMARK    1  A    between atoms: C_4  and  C_5
REMARK    2  A    between atoms: C_12  and  C_13
REMARK    3  A    between atoms: C_16  and  C_17
REMARK                            x       y       z     vdW  Elec       q    Type
REMARK                         _______ _______ _______ _____ _____    ______ ____
ROOT
ATOM      1  O   UNL     1       8.338   4.451  18.590  0.00  0.00    +0.000 OA
ATOM      2  C   UNL     1       7.605   4.594  17.634  0.00  0.00    +0.000 C 
ATOM      3  O   UNL     1       7.874   4.295  16.331  0.00  0.00    +0.000 OA
ATOM      4  C   UNL     1       6.746   4.599  15.637  0.00  0.00    +0.000 C 
ATOM      5  N   UNL     1       5.739   5.059  16.301  0.00  0.00    +0.000 NA
ATOM      6  C   UNL     1       6.206   5.089  17.590  0.00  0.00    +0.000 C 
ATOM      7  C   UNL     1       5.535   5.494  18.678  0.00  0.00    +0.000 C 
ENDROOT
BRANCH   4   8
ATOM      8  C   UNL     1       6.760   4.391  14.216  0.00  0.00    +0.000 A 
ATOM      9  C   UNL     1       5.934   3.545  13.494  0.00  0.00    +0.000 A 
ATOM     10  C   UNL     1       6.200   3.580  12.095  0.00  0.00    +0.000 A 
ATOM     11  C   UNL     1       7.229   4.444  11.795  0.00  0.00    +0.000 A 
ATOM     12  S   UNL     1       7.861   5.203  13.191  0.00  0.00    +0.000 S 
ENDBRANCH   4   8
BRANCH   7  13
ATOM     13  C   UNL     1       4.161   5.867  18.602  0.00  0.00    +0.000 A 
ATOM     14  C   UNL     1       3.067   5.095  18.230  0.00  0.00    +0.000 A 
ATOM     15  C   UNL     1       1.914   5.900  18.295  0.00  0.00    +0.000 A 
ATOM     16  C   UNL     1       2.329   7.148  18.699  0.00  0.00    +0.000 A 
ATOM     17  O   UNL     1       3.681   7.119  18.934  0.00  0.00    +0.000 OA
BRANCH  16  18
ATOM     18  C   UNL     1       1.645   8.424  18.918  0.00  0.00    +0.000 A 
ATOM     19  C   UNL     1       1.494   9.314  17.839  0.00  0.00    +0.000 A 
ATOM     20  C   UNL     1       0.875  10.559  18.006  0.00  0.00    +0.000 A 
ATOM     21  C   UNL     1       0.391  10.936  19.252  0.00  0.00    +0.000 A 
ATOM     22  C   UNL     1       0.524  10.071  20.333  0.00  0.00    +0.000 A 
ATOM     23  C   UNL     1       1.140   8.823  20.172  0.00  0.00    +0.000 A 
ATOM     24 CL   UNL     1       1.198   7.825  21.589  0.00  0.00    +0.000 Cl
ENDBRANCH  16  18
ENDBRANCH   7  13
TORSDOF 3
ENDMDL
MODEL 7
REMARK VINA RESULT:      -7.4      3.483      7.894
REMARK  Name = 
REMARK  3 active torsions:
REMARK  status: ('A' for Active; 'I' for Inactive)
REMARK    1  A    between atoms: C_4  and  C_5
REMARK    2  A    between atoms: C_12  and  C_13
REMARK    3  A    between atoms: C_16  and  C_17
REMARK                            x       y       z     vdW  Elec       q    Type
REMARK                         _______ _______ _______ _____ _____    ______ ____
ROOT
ATOM      1  O   UNL     1       5.135   7.355  17.212  0.00  0.00    +0.000 OA
ATOM      2  C   UNL     1       4.128   6.858  17.673  0.00  0.00    +0.000 C 
ATOM      3  O   UNL     1       3.944   5.565  18.062  0.00  0.00    +0.000 OA
ATOM      4  C   UNL     1       2.672   5.492  18.534  0.00  0.00    +0.000 C 
ATOM      5  N   UNL     1       1.968   6.574  18.526  0.00  0.00    +0.000 NA
ATOM      6  C   UNL     1       2.825   7.498  17.988  0.00  0.00    +0.000 C 
ATOM      7  C   UNL     1       2.571   8.796  17.764  0.00  0.00    +0.000 C 
ENDROOT
BRANCH   4   8
ATOM      8  C   UNL     1       2.205   4.218  19.002  0.00  0.00    +0.000 A 
ATOM      9  C   UNL     1       1.370   3.987  20.084  0.00  0.00    +0.000 A 
ATOM     10  C   UNL     1       1.088   2.604  20.274  0.00  0.00    +0.000 A 
ATOM     11  C   UNL     1       1.725   1.822  19.339  0.00  0.00    +0.000 A 
ATOM     12  S   UNL     1       2.651   2.753  18.243  0.00  0.00    +0.000 S 
ENDBRANCH   4   8
BRANCH   7  13
ATOM     13  C   UNL     1       1.340   9.389  18.175  0.00  0.00    +0.000 A 
ATOM     14  C   UNL     1       0.159   9.530  17.458  0.00  0.00    +0.000 A 
ATOM     15  C   UNL     1      -0.778  10.193  18.274  0.00  0.00    +0.000 A 
ATOM     16  C   UNL     1      -0.145  10.448  19.469  0.00  0.00    +0.000 A 
ATOM     17  O   UNL     1       1.120   9.919  19.431  0.00  0.00    +0.000 OA
BRANCH  16  18
ATOM     18  C   UNL     1      -0.543  11.130  20.702  0.00  0.00    +0.000 A 
ATOM     19  C   UNL     1      -0.775  12.518  20.672  0.00  0.00    +0.000 A 
ATOM     20  C   UNL     1      -1.126  13.220  21.831  0.00  0.00    +0.000 A 
ATOM     21  C   UNL     1      -1.256  12.551  23.040  0.00  0.00    +0.000 A 
ATOM     22  C   UNL     1      -1.037  11.178  23.095  0.00  0.00    +0.000 A 
ATOM     23  C   UNL     1      -0.688  10.468  21.938  0.00  0.00    +0.000 A 
ATOM     24 CL   UNL     1      -0.489   8.757  22.136  0.00  0.00    +0.000 Cl
ENDBRANCH  16  18
ENDBRANCH   7  13
TORSDOF 3
ENDMDL
MODEL 8
REMARK VINA RESULT:      -7.3      5.071      8.771
REMARK  Name = 
REMARK  3 active torsions:
REMARK  status: ('A' for Active; 'I' for Inactive)
REMARK    1  A    between atoms: C_4  and  C_5
REMARK    2  A    between atoms: C_12  and  C_13
REMARK    3  A    between atoms: C_16  and  C_17
REMARK                            x       y       z     vdW  Elec       q    Type
REMARK                         _______ _______ _______ _____ _____    ______ ____
ROOT
ATOM      1  O   UNL     1       8.583   4.441  18.684  0.00  0.00    +0.000 OA
ATOM      2  C   UNL     1       7.779   4.567  17.783  0.00  0.00    +0.000 C 
ATOM      3  O   UNL     1       7.983   4.351  16.453  0.00  0.00    +0.000 OA
ATOM      4  C   UNL     1       6.791   4.593  15.847  0.00  0.00    +0.000 C 
ATOM      5  N   UNL     1       5.798   4.938  16.596  0.00  0.00    +0.000 NA
ATOM      6  C   UNL     1       6.345   4.947  17.852  0.00  0.00    +0.000 C 
ATOM      7  C   UNL     1       5.719   5.245  18.999  0.00  0.00    +0.000 C 
ENDROOT
BRANCH   4   8
ATOM      8  C   UNL     1       6.727   4.452  14.419  0.00  0.00    +0.000 A 
ATOM      9  C   UNL     1       7.625   4.961  13.495  0.00  0.00    +0.000 A 
ATOM     10  C   UNL     1       7.277   4.632  12.154  0.00  0.00    +0.000 A 
ATOM     11  C   UNL     1       6.118   3.892  12.096  0.00  0.00    +0.000 A 
ATOM     12  S   UNL     1       5.463   3.599  13.648  0.00  0.00    +0.000 S 
ENDBRANCH   4   8
BRANCH   7  13
ATOM     13  C   UNL     1       4.317   5.507  19.029  0.00  0.00    +0.000 A 
ATOM     14  C   UNL     1       3.275   4.734  18.532  0.00  0.00    +0.000 A 
ATOM     15  C   UNL     1       2.065   5.408  18.782  0.00  0.00    +0.000 A 
ATOM     16  C   UNL     1       2.394   6.582  19.420  0.00  0.00    +0.000 A 
ATOM     17  O   UNL     1       3.752   6.622  19.617  0.00  0.00    +0.000 OA
BRANCH  16  18
ATOM     18  C   UNL     1       1.619   7.725  19.907  0.00  0.00    +0.000 A 
ATOM     19  C   UNL     1       1.014   7.651  21.175  0.00  0.00    +0.000 A 
ATOM     20  C   UNL     1       0.236   8.705  21.670  0.00  0.00    +0.000 A 
ATOM     21  C   UNL     1       0.052   9.853  20.911  0.00  0.00    +0.000 A 
ATOM     22  C   UNL     1       0.644   9.951  19.656  0.00  0.00    +0.000 A 
ATOM     23  C   UNL     1       1.425   8.901  19.155  0.00  0.00    +0.000 A 
ATOM     24 CL   UNL     1       2.141   9.173  17.600  0.00  0.00    +0.000 Cl
ENDBRANCH  16  18
ENDBRANCH   7  13
TORSDOF 3
ENDMDL
MODEL 9
REMARK VINA RESULT:      -7.2      3.811      8.059
REMARK  Name = 
REMARK  3 active torsions:
REMARK  status: ('A' for Active; 'I' for Inactive)
REMARK    1  A    between atoms: C_4  and  C_5
REMARK    2  A    between atoms: C_12  and  C_13
REMARK    3  A    between atoms: C_16  and  C_17
REMARK                            x       y       z     vdW  Elec       q    Type
REMARK                         _______ _______ _______ _____ _____    ______ ____
ROOT
ATOM      1  O   UNL     1       5.114   7.088  17.216  0.00  0.00    +0.000 OA
ATOM      2  C   UNL     1       4.174   6.681  17.867  0.00  0.00    +0.000 C 
ATOM      3  O   UNL     1       4.072   5.489  18.520  0.00  0.00    +0.000 OA
ATOM      4  C   UNL     1       2.857   5.497  19.126  0.00  0.00    +0.000 C 
ATOM      5  N   UNL     1       2.120   6.546  18.978  0.00  0.00    +0.000 NA
ATOM      6  C   UNL     1       2.889   7.355  18.182  0.00  0.00    +0.000 C 
ATOM      7  C   UNL     1       2.571   8.578  17.733  0.00  0.00    +0.000 C 
ENDROOT
BRANCH   4   8
ATOM      8  C   UNL     1       2.480   4.336  19.883  0.00  0.00    +0.000 A 
ATOM      9  C   UNL     1       2.128   4.297  21.222  0.00  0.00    +0.000 A 
ATOM     10  C   UNL     1       1.796   2.985  21.665  0.00  0.00    +0.000 A 
ATOM     11  C   UNL     1       1.918   2.061  20.652  0.00  0.00    +0.000 A 
ATOM     12  S   UNL     1       2.424   2.777  19.184  0.00  0.00    +0.000 S 
ENDBRANCH   4   8
BRANCH   7  13
ATOM     13  C   UNL     1       1.369   9.226  18.144  0.00  0.00    +0.000 A 
ATOM     14  C   UNL     1       0.205   9.444  17.417  0.00  0.00    +0.000 A 
ATOM     15  C   UNL     1      -0.706  10.137  18.237  0.00  0.00    +0.000 A 
ATOM     16  C   UNL     1      -0.076  10.333  19.444  0.00  0.00    +0.000 A 
ATOM     17  O   UNL     1       1.161   9.740  19.409  0.00  0.00    +0.000 OA
BRANCH  16  18
ATOM     18  C   UNL     1      -0.453  11.009  20.687  0.00  0.00    +0.000 A 
ATOM     19  C   UNL     1      -0.605  10.247  21.861  0.00  0.00    +0.000 A 
ATOM     20  C   UNL     1      -0.996  10.843  23.067  0.00  0.00    +0.000 A 
ATOM     21  C   UNL     1      -1.236  12.209  23.125  0.00  0.00    +0.000 A 
ATOM     22  C   UNL     1      -1.086  12.984  21.979  0.00  0.00    +0.000 A 
ATOM     23  C   UNL     1      -0.695  12.395  20.769  0.00  0.00    +0.000 A 
ATOM     24 CL   UNL     1      -0.501  13.482  19.432  0.00  0.00    +0.000 Cl
ENDBRANCH  16  18
ENDBRANCH   7  13
TORSDOF 3
ENDMDL
