MODEL 1
REMARK VINA RESULT:      -8.5      0.000      0.000
REMARK  Name = 
REMARK  8 active torsions:
REMARK  status: ('A' for Active; 'I' for Inactive)
REMARK    1  A    between atoms: C_1  and  C_2
REMARK    2  A    between atoms: C_7  and  O_8
REMARK    3  A    between atoms: O_8  and  C_9
REMARK    4  A    between atoms: C_9  and  C_10
REMARK    5  A    between atoms: C_10  and  O_12
REMARK    6  A    between atoms: O_12  and  C_13
REMARK    7  A    between atoms: C_13  and  C_14
REMARK    8  A    between atoms: C_20  and  C_21
REMARK                            x       y       z     vdW  Elec       q    Type
REMARK                         _______ _______ _______ _____ _____    ______ ____
ROOT
ATOM      1  C   UNL     1       7.679   7.549  17.779  0.00  0.00    +0.000 A 
ATOM      2  C   UNL     1       8.130   6.945  18.894  0.00  0.00    +0.000 A 
ATOM      3  C   UNL     1       7.473   5.715  19.381  0.00  0.00    +0.000 A 
ATOM      4  O   UNL     1       7.867   5.195  20.419  0.00  0.00    +0.000 OA
ATOM      5  N   UNL     1       6.443   5.286  18.579  0.00  0.00    +0.000 N 
ATOM      6  N   UNL     1       5.715   4.160  18.879  0.00  0.00    +0.000 NA
ATOM      7  C   UNL     1       4.799   3.989  17.979  0.00  0.00    +0.000 A 
ATOM      8  S   UNL     1       4.736   5.182  16.695  0.00  0.00    +0.000 S 
ATOM      9  C   UNL     1       6.073   5.988  17.459  0.00  0.00    +0.000 A 
ATOM     10  N   UNL     1       6.619   7.077  17.027  0.00  0.00    +0.000 NA
ENDROOT
BRANCH   7  11
ATOM     11  C   UNL     1       3.793   2.854  17.985  0.00  0.00    +0.000 C 
ATOM     12  C   UNL     1       3.574   2.280  19.392  0.00  0.00    +0.000 C 
ATOM     13  C   UNL     1       2.647   3.117  20.271  0.00  0.00    +0.000 C 
ATOM     14  C   UNL     1       1.328   3.429  19.573  0.00  0.00    +0.000 C 
ATOM     15  C   UNL     1       1.553   4.093  18.221  0.00  0.00    +0.000 C 
ATOM     16  C   UNL     1       2.471   3.266  17.321  0.00  0.00    +0.000 C 
ENDBRANCH   7  11
BRANCH   1  17
ATOM     17  C   UNL     1       8.389   8.818  17.317  0.00  0.00    +0.000 C 
BRANCH  17  18
ATOM     18  O   UNL     1       7.970   9.980  18.039  0.00  0.00    +0.000 OA
BRANCH  18  19
ATOM     19  C   UNL     1       8.972  10.837  18.378  0.00  0.00    +0.000 C 
ATOM     20  O   UNL     1       9.382  11.754  17.677  0.00  0.00    +0.000 OA
BRANCH  19  21
ATOM     21  C   UNL     1       9.487  10.517  19.769  0.00  0.00    +0.000 C 
BRANCH  21  22
ATOM     22  O   UNL     1      10.556  11.349  20.168  0.00  0.00    +0.000 OA
BRANCH  22  29
ATOM     23  C   UNL     1      11.866  14.184  19.571  0.00  0.00    +0.000 C 
ATOM     24  C   UNL     1      10.828  13.818  20.595  0.00  0.00    +0.000 A 
ATOM     25  C   UNL     1      10.371  14.882  21.405  0.00  0.00    +0.000 A 
ATOM     26  C   UNL     1       9.417  14.694  22.402  0.00  0.00    +0.000 A 
ATOM     27  C   UNL     1       8.894  13.429  22.614  0.00  0.00    +0.000 A 
ATOM     28  C   UNL     1       9.329  12.363  21.825  0.00  0.00    +0.000 A 
ATOM     29  C   UNL     1      10.292  12.533  20.810  0.00  0.00    +0.000 A 
ENDBRANCH  22  29
ENDBRANCH  21  22
ENDBRANCH  19  21
ENDBRANCH  18  19
ENDBRANCH  17  18
ENDBRANCH   1  17
TORSDOF 7
ENDMDL
MODEL 2
REMARK VINA RESULT:      -8.4      0.508      1.395
REMARK  Name = 
REMARK  8 active torsions:
REMARK  status: ('A' for Active; 'I' for Inactive)
REMARK    1  A    between atoms: C_1  and  C_2
REMARK    2  A    between atoms: C_7  and  O_8
REMARK    3  A    between atoms: O_8  and  C_9
REMARK    4  A    between atoms: C_9  and  C_10
REMARK    5  A    between atoms: C_10  and  O_12
REMARK    6  A    between atoms: O_12  and  C_13
REMARK    7  A    between atoms: C_13  and  C_14
REMARK    8  A    between atoms: C_20  and  C_21
REMARK                            x       y       z     vdW  Elec       q    Type
REMARK                         _______ _______ _______ _____ _____    ______ ____
ROOT
ATOM      1  C   UNL     1       7.632   7.624  17.844  0.00  0.00    +0.000 A 
ATOM      2  C   UNL     1       8.146   6.982  18.910  0.00  0.00    +0.000 A 
ATOM      3  C   UNL     1       7.526   5.726  19.380  0.00  0.00    +0.000 A 
ATOM      4  O   UNL     1       7.977   5.170  20.376  0.00  0.00    +0.000 OA
ATOM      5  N   UNL     1       6.460   5.318  18.616  0.00  0.00    +0.000 N 
ATOM      6  N   UNL     1       5.758   4.173  18.907  0.00  0.00    +0.000 NA
ATOM      7  C   UNL     1       4.798   4.028  18.050  0.00  0.00    +0.000 A 
ATOM      8  S   UNL     1       4.658   5.270  16.819  0.00  0.00    +0.000 S 
ATOM      9  C   UNL     1       6.026   6.059  17.545  0.00  0.00    +0.000 A 
ATOM     10  N   UNL     1       6.539   7.171  17.129  0.00  0.00    +0.000 NA
ENDROOT
BRANCH   7  11
ATOM     11  C   UNL     1       3.804   2.883  18.062  0.00  0.00    +0.000 C 
ATOM     12  C   UNL     1       3.527   2.369  19.482  0.00  0.00    +0.000 C 
ATOM     13  C   UNL     1       2.553   3.234  20.280  0.00  0.00    +0.000 C 
ATOM     14  C   UNL     1       1.264   3.499  19.510  0.00  0.00    +0.000 C 
ATOM     15  C   UNL     1       1.544   4.105  18.141  0.00  0.00    +0.000 C 
ATOM     16  C   UNL     1       2.510   3.249  17.321  0.00  0.00    +0.000 C 
ENDBRANCH   7  11
BRANCH   1  17
ATOM     17  C   UNL     1       8.306   8.918  17.397  0.00  0.00    +0.000 C 
BRANCH  17  18
ATOM     18  O   UNL     1       7.970  10.032  18.230  0.00  0.00    +0.000 OA
BRANCH  18  19
ATOM     19  C   UNL     1       8.803  11.103  18.118  0.00  0.00    +0.000 C 
ATOM     20  O   UNL     1       8.532  12.150  17.541  0.00  0.00    +0.000 OA
BRANCH  19  21
ATOM     21  C   UNL     1      10.108  10.831  18.843  0.00  0.00    +0.000 C 
BRANCH  21  22
ATOM     22  O   UNL     1       9.998  10.957  20.246  0.00  0.00    +0.000 OA
BRANCH  22  29
ATOM     23  C   UNL     1       8.106  11.898  22.621  0.00  0.00    +0.000 C 
ATOM     24  C   UNL     1       9.138  12.687  21.864  0.00  0.00    +0.000 A 
ATOM     25  C   UNL     1       9.288  14.034  22.265  0.00  0.00    +0.000 A 
ATOM     26  C   UNL     1      10.199  14.890  21.651  0.00  0.00    +0.000 A 
ATOM     27  C   UNL     1      10.987  14.415  20.615  0.00  0.00    +0.000 A 
ATOM     28  C   UNL     1      10.858  13.088  20.204  0.00  0.00    +0.000 A 
ATOM     29  C   UNL     1       9.943  12.206  20.813  0.00  0.00    +0.000 A 
ENDBRANCH  22  29
ENDBRANCH  21  22
ENDBRANCH  19  21
ENDBRANCH  18  19
ENDBRANCH  17  18
ENDBRANCH   1  17
TORSDOF 7
ENDMDL
MODEL 3
REMARK VINA RESULT:      -8.2      1.059      1.965
REMARK  Name = 
REMARK  8 active torsions:
REMARK  status: ('A' for Active; 'I' for Inactive)
REMARK    1  A    between atoms: C_1  and  C_2
REMARK    2  A    between atoms: C_7  and  O_8
REMARK    3  A    between atoms: O_8  and  C_9
REMARK    4  A    between atoms: C_9  and  C_10
REMARK    5  A    between atoms: C_10  and  O_12
REMARK    6  A    between atoms: O_12  and  C_13
REMARK    7  A    between atoms: C_13  and  C_14
REMARK    8  A    between atoms: C_20  and  C_21
REMARK                            x       y       z     vdW  Elec       q    Type
REMARK                         _______ _______ _______ _____ _____    ______ ____
ROOT
ATOM      1  C   UNL     1       7.671   7.787  17.892  0.00  0.00    +0.000 A 
ATOM      2  C   UNL     1       8.187   7.090  18.923  0.00  0.00    +0.000 A 
ATOM      3  C   UNL     1       7.586   5.798  19.310  0.00  0.00    +0.000 A 
ATOM      4  O   UNL     1       8.039   5.190  20.274  0.00  0.00    +0.000 OA
ATOM      5  N   UNL     1       6.536   5.417  18.510  0.00  0.00    +0.000 N 
ATOM      6  N   UNL     1       5.854   4.243  18.725  0.00  0.00    +0.000 NA
ATOM      7  C   UNL     1       4.904   4.133  17.850  0.00  0.00    +0.000 A 
ATOM      8  S   UNL     1       4.753   5.445  16.695  0.00  0.00    +0.000 S 
ATOM      9  C   UNL     1       6.098   6.213  17.482  0.00  0.00    +0.000 A 
ATOM     10  N   UNL     1       6.594   7.358  17.139  0.00  0.00    +0.000 NA
ENDROOT
BRANCH   7  11
ATOM     11  C   UNL     1       3.932   2.971  17.782  0.00  0.00    +0.000 C 
ATOM     12  C   UNL     1       3.765   2.274  19.140  0.00  0.00    +0.000 C 
ATOM     13  C   UNL     1       2.836   3.006  20.107  0.00  0.00    +0.000 C 
ATOM     14  C   UNL     1       1.492   3.334  19.467  0.00  0.00    +0.000 C 
ATOM     15  C   UNL     1       1.664   4.116  18.171  0.00  0.00    +0.000 C 
ATOM     16  C   UNL     1       2.583   3.396  17.184  0.00  0.00    +0.000 C 
ENDBRANCH   7  11
BRANCH   1  17
ATOM     17  C   UNL     1       8.325   9.118  17.531  0.00  0.00    +0.000 C 
BRANCH  17  18
ATOM     18  O   UNL     1       8.501   9.972  18.666  0.00  0.00    +0.000 OA
BRANCH  18  19
ATOM     19  C   UNL     1       9.458  10.929  18.520  0.00  0.00    +0.000 C 
ATOM     20  O   UNL     1      10.627  10.815  18.870  0.00  0.00    +0.000 OA
BRANCH  19  21
ATOM     21  C   UNL     1       8.880  12.148  17.826  0.00  0.00    +0.000 C 
BRANCH  21  22
ATOM     22  O   UNL     1       8.655  13.230  18.705  0.00  0.00    +0.000 OA
BRANCH  22  29
ATOM     23  C   UNL     1       9.884  13.816  21.579  0.00  0.00    +0.000 C 
ATOM     24  C   UNL     1      10.280  14.388  20.246  0.00  0.00    +0.000 A 
ATOM     25  C   UNL     1      11.346  15.316  20.275  0.00  0.00    +0.000 A 
ATOM     26  C   UNL     1      11.818  15.935  19.119  0.00  0.00    +0.000 A 
ATOM     27  C   UNL     1      11.229  15.639  17.900  0.00  0.00    +0.000 A 
ATOM     28  C   UNL     1      10.176  14.725  17.848  0.00  0.00    +0.000 A 
ATOM     29  C   UNL     1       9.686  14.087  19.004  0.00  0.00    +0.000 A 
ENDBRANCH  22  29
ENDBRANCH  21  22
ENDBRANCH  19  21
ENDBRANCH  18  19
ENDBRANCH  17  18
ENDBRANCH   1  17
TORSDOF 7
ENDMDL
MODEL 4
REMARK VINA RESULT:      -8.1      1.467      1.716
REMARK  Name = 
REMARK  8 active torsions:
REMARK  status: ('A' for Active; 'I' for Inactive)
REMARK    1  A    between atoms: C_1  and  C_2
REMARK    2  A    between atoms: C_7  and  O_8
REMARK    3  A    between atoms: O_8  and  C_9
REMARK    4  A    between atoms: C_9  and  C_10
REMARK    5  A    between atoms: C_10  and  O_12
REMARK    6  A    between atoms: O_12  and  C_13
REMARK    7  A    between atoms: C_13  and  C_14
REMARK    8  A    between atoms: C_20  and  C_21
REMARK                            x       y       z     vdW  Elec       q    Type
REMARK                         _______ _______ _______ _____ _____    ______ ____
ROOT
ATOM      1  C   UNL     1       7.674   7.718  17.861  0.00  0.00    +0.000 A 
ATOM      2  C   UNL     1       8.160   7.046  18.921  0.00  0.00    +0.000 A 
ATOM      3  C   UNL     1       7.538   5.770  19.330  0.00  0.00    +0.000 A 
ATOM      4  O   UNL     1       7.964   5.185  20.320  0.00  0.00    +0.000 OA
ATOM      5  N   UNL     1       6.502   5.377  18.518  0.00  0.00    +0.000 N 
ATOM      6  N   UNL     1       5.803   4.216  18.749  0.00  0.00    +0.000 NA
ATOM      7  C   UNL     1       4.872   4.091  17.857  0.00  0.00    +0.000 A 
ATOM      8  S   UNL     1       4.759   5.372  16.663  0.00  0.00    +0.000 S 
ATOM      9  C   UNL     1       6.095   6.149  17.459  0.00  0.00    +0.000 A 
ATOM     10  N   UNL     1       6.610   7.279  17.096  0.00  0.00    +0.000 NA
ENDROOT
BRANCH   7  11
ATOM     11  C   UNL     1       3.890   2.937  17.799  0.00  0.00    +0.000 C 
ATOM     12  C   UNL     1       3.718   2.253  19.162  0.00  0.00    +0.000 C 
ATOM     13  C   UNL     1       2.796   3.001  20.124  0.00  0.00    +0.000 C 
ATOM     14  C   UNL     1       1.454   3.334  19.483  0.00  0.00    +0.000 C 
ATOM     15  C   UNL     1       1.632   4.104  18.180  0.00  0.00    +0.000 C 
ATOM     16  C   UNL     1       2.544   3.368  17.199  0.00  0.00    +0.000 C 
ENDBRANCH   7  11
BRANCH   1  17
ATOM     17  C   UNL     1       8.349   9.033  17.479  0.00  0.00    +0.000 C 
BRANCH  17  18
ATOM     18  O   UNL     1       8.397   9.965  18.564  0.00  0.00    +0.000 OA
BRANCH  18  19
ATOM     19  C   UNL     1       9.430  10.850  18.513  0.00  0.00    +0.000 C 
ATOM     20  O   UNL     1      10.223  10.956  17.585  0.00  0.00    +0.000 OA
BRANCH  19  21
ATOM     21  C   UNL     1       9.440  11.716  19.760  0.00  0.00    +0.000 C 
BRANCH  21  22
ATOM     22  O   UNL     1      10.301  12.830  19.652  0.00  0.00    +0.000 OA
BRANCH  22  29
ATOM     23  C   UNL     1      11.274  14.287  16.999  0.00  0.00    +0.000 C 
ATOM     24  C   UNL     1      10.203  14.703  17.968  0.00  0.00    +0.000 A 
ATOM     25  C   UNL     1       9.536  15.910  17.656  0.00  0.00    +0.000 A 
ATOM     26  C   UNL     1       8.527  16.426  18.465  0.00  0.00    +0.000 A 
ATOM     27  C   UNL     1       8.159  15.743  19.613  0.00  0.00    +0.000 A 
ATOM     28  C   UNL     1       8.802  14.548  19.940  0.00  0.00    +0.000 A 
ATOM     29  C   UNL     1       9.824  14.009  19.134  0.00  0.00    +0.000 A 
ENDBRANCH  22  29
ENDBRANCH  21  22
ENDBRANCH  19  21
ENDBRANCH  18  19
ENDBRANCH  17  18
ENDBRANCH   1  17
TORSDOF 7
ENDMDL
MODEL 5
REMARK VINA RESULT:      -8.1      5.491      8.743
REMARK  Name = 
REMARK  8 active torsions:
REMARK  status: ('A' for Active; 'I' for Inactive)
REMARK    1  A    between atoms: C_1  and  C_2
REMARK    2  A    between atoms: C_7  and  O_8
REMARK    3  A    between atoms: O_8  and  C_9
REMARK    4  A    between atoms: C_9  and  C_10
REMARK    5  A    between atoms: C_10  and  O_12
REMARK    6  A    between atoms: O_12  and  C_13
REMARK    7  A    between atoms: C_13  and  C_14
REMARK    8  A    between atoms: C_20  and  C_21
REMARK                            x       y       z     vdW  Elec       q    Type
REMARK                         _______ _______ _______ _____ _____    ______ ____
ROOT
ATOM      1  C   UNL     1       2.407   6.267  19.776  0.00  0.00    +0.000 A 
ATOM      2  C   UNL     1       2.600   6.832  18.569  0.00  0.00    +0.000 A 
ATOM      3  C   UNL     1       2.150   8.218  18.326  0.00  0.00    +0.000 A 
ATOM      4  O   UNL     1       2.296   8.710  17.212  0.00  0.00    +0.000 OA
ATOM      5  N   UNL     1       1.586   8.815  19.427  0.00  0.00    +0.000 N 
ATOM      6  N   UNL     1       1.107  10.102  19.384  0.00  0.00    +0.000 NA
ATOM      7  C   UNL     1       0.612  10.415  20.541  0.00  0.00    +0.000 A 
ATOM      8  S   UNL     1       0.680   9.173  21.778  0.00  0.00    +0.000 S 
ATOM      9  C   UNL     1       1.443   8.136  20.611  0.00  0.00    +0.000 A 
ATOM     10  N   UNL     1       1.809   6.917  20.840  0.00  0.00    +0.000 NA
ENDROOT
BRANCH   7  11
ATOM     11  C   UNL     1      -0.020  11.753  20.869  0.00  0.00    +0.000 C 
ATOM     12  C   UNL     1       0.893  12.932  20.505  0.00  0.00    +0.000 C 
ATOM     13  C   UNL     1       0.893  13.287  19.019  0.00  0.00    +0.000 C 
ATOM     14  C   UNL     1      -0.520  13.475  18.479  0.00  0.00    +0.000 C 
ATOM     15  C   UNL     1      -1.392  12.257  18.755  0.00  0.00    +0.000 C 
ATOM     16  C   UNL     1      -1.414  11.891  20.238  0.00  0.00    +0.000 C 
ENDBRANCH   7  11
BRANCH   1  17
ATOM     17  C   UNL     1       2.888   4.833  19.978  0.00  0.00    +0.000 C 
BRANCH  17  18
ATOM     18  O   UNL     1       2.099   3.880  19.258  0.00  0.00    +0.000 OA
BRANCH  18  19
ATOM     19  C   UNL     1       2.628   3.479  18.070  0.00  0.00    +0.000 C 
ATOM     20  O   UNL     1       1.989   3.290  17.041  0.00  0.00    +0.000 OA
BRANCH  19  21
ATOM     21  C   UNL     1       4.134   3.333  18.189  0.00  0.00    +0.000 C 
BRANCH  21  22
ATOM     22  O   UNL     1       4.835   3.943  17.125  0.00  0.00    +0.000 OA
BRANCH  22  29
ATOM     23  C   UNL     1       5.122   6.684  15.538  0.00  0.00    +0.000 C 
ATOM     24  C   UNL     1       5.893   6.197  16.734  0.00  0.00    +0.000 A 
ATOM     25  C   UNL     1       6.883   7.081  17.220  0.00  0.00    +0.000 A 
ATOM     26  C   UNL     1       7.683   6.764  18.316  0.00  0.00    +0.000 A 
ATOM     27  C   UNL     1       7.509   5.547  18.955  0.00  0.00    +0.000 A 
ATOM     28  C   UNL     1       6.536   4.659  18.494  0.00  0.00    +0.000 A 
ATOM     29  C   UNL     1       5.717   4.962  17.389  0.00  0.00    +0.000 A 
ENDBRANCH  22  29
ENDBRANCH  21  22
ENDBRANCH  19  21
ENDBRANCH  18  19
ENDBRANCH  17  18
ENDBRANCH   1  17
TORSDOF 7
ENDMDL
MODEL 6
REMARK VINA RESULT:      -8.0      1.985      2.260
REMARK  Name = 
REMARK  8 active torsions:
REMARK  status: ('A' for Active; 'I' for Inactive)
REMARK    1  A    between atoms: C_1  and  C_2
REMARK    2  A    between atoms: C_7  and  O_8
REMARK    3  A    between atoms: O_8  and  C_9
REMARK    4  A    between atoms: C_9  and  C_10
REMARK    5  A    between atoms: C_10  and  O_12
REMARK    6  A    between atoms: O_12  and  C_13
REMARK    7  A    between atoms: C_13  and  C_14
REMARK    8  A    between atoms: C_20  and  C_21
REMARK                            x       y       z     vdW  Elec       q    Type
REMARK                         _______ _______ _______ _____ _____    ______ ____
ROOT
ATOM      1  C   UNL     1       7.726   7.873  17.999  0.00  0.00    +0.000 A 
ATOM      2  C   UNL     1       8.236   7.127  18.996  0.00  0.00    +0.000 A 
ATOM      3  C   UNL     1       7.633   5.817  19.317  0.00  0.00    +0.000 A 
ATOM      4  O   UNL     1       8.081   5.163  20.252  0.00  0.00    +0.000 OA
ATOM      5  N   UNL     1       6.585   5.477  18.496  0.00  0.00    +0.000 N 
ATOM      6  N   UNL     1       5.901   4.295  18.650  0.00  0.00    +0.000 NA
ATOM      7  C   UNL     1       4.955   4.229  17.767  0.00  0.00    +0.000 A 
ATOM      8  S   UNL     1       4.810   5.596  16.676  0.00  0.00    +0.000 S 
ATOM      9  C   UNL     1       6.153   6.323  17.506  0.00  0.00    +0.000 A 
ATOM     10  N   UNL     1       6.651   7.482  17.221  0.00  0.00    +0.000 NA
ENDROOT
BRANCH   7  11
ATOM     11  C   UNL     1       3.982   3.073  17.639  0.00  0.00    +0.000 C 
ATOM     12  C   UNL     1       3.803   2.315  18.961  0.00  0.00    +0.000 C 
ATOM     13  C   UNL     1       2.868   3.003  19.954  0.00  0.00    +0.000 C 
ATOM     14  C   UNL     1       1.530   3.362  19.320  0.00  0.00    +0.000 C 
ATOM     15  C   UNL     1       1.713   4.203  18.063  0.00  0.00    +0.000 C 
ATOM     16  C   UNL     1       2.638   3.527  17.051  0.00  0.00    +0.000 C 
ENDBRANCH   7  11
BRANCH   1  17
ATOM     17  C   UNL     1       8.382   9.220  17.706  0.00  0.00    +0.000 C 
BRANCH  17  18
ATOM     18  O   UNL     1       9.007   9.792  18.859  0.00  0.00    +0.000 OA
BRANCH  18  19
ATOM     19  C   UNL     1       9.670  10.958  18.632  0.00  0.00    +0.000 C 
ATOM     20  O   UNL     1      10.808  11.208  19.013  0.00  0.00    +0.000 OA
BRANCH  19  21
ATOM     21  C   UNL     1       8.811  11.898  17.806  0.00  0.00    +0.000 C 
BRANCH  21  22
ATOM     22  O   UNL     1       9.401  13.168  17.622  0.00  0.00    +0.000 OA
BRANCH  22  29
ATOM     23  C   UNL     1      10.597  15.959  18.566  0.00  0.00    +0.000 C 
ATOM     24  C   UNL     1       9.159  15.561  18.375  0.00  0.00    +0.000 A 
ATOM     25  C   UNL     1       8.208  16.568  18.656  0.00  0.00    +0.000 A 
ATOM     26  C   UNL     1       6.839  16.345  18.533  0.00  0.00    +0.000 A 
ATOM     27  C   UNL     1       6.386  15.101  18.124  0.00  0.00    +0.000 A 
ATOM     28  C   UNL     1       7.307  14.092  17.840  0.00  0.00    +0.000 A 
ATOM     29  C   UNL     1       8.696  14.298  17.957  0.00  0.00    +0.000 A 
ENDBRANCH  22  29
ENDBRANCH  21  22
ENDBRANCH  19  21
ENDBRANCH  18  19
ENDBRANCH  17  18
ENDBRANCH   1  17
TORSDOF 7
ENDMDL
MODEL 7
REMARK VINA RESULT:      -8.0      1.675      2.189
REMARK  Name = 
REMARK  8 active torsions:
REMARK  status: ('A' for Active; 'I' for Inactive)
REMARK    1  A    between atoms: C_1  and  C_2
REMARK    2  A    between atoms: C_7  and  O_8
REMARK    3  A    between atoms: O_8  and  C_9
REMARK    4  A    between atoms: C_9  and  C_10
REMARK    5  A    between atoms: C_10  and  O_12
REMARK    6  A    between atoms: O_12  and  C_13
REMARK    7  A    between atoms: C_13  and  C_14
REMARK    8  A    between atoms: C_20  and  C_21
REMARK                            x       y       z     vdW  Elec       q    Type
REMARK                         _______ _______ _______ _____ _____    ______ ____
ROOT
ATOM      1  C   UNL     1       7.691   7.785  17.966  0.00  0.00    +0.000 A 
ATOM      2  C   UNL     1       8.189   7.080  19.000  0.00  0.00    +0.000 A 
ATOM      3  C   UNL     1       7.580   5.787  19.368  0.00  0.00    +0.000 A 
ATOM      4  O   UNL     1       8.016   5.171  20.336  0.00  0.00    +0.000 OA
ATOM      5  N   UNL     1       6.541   5.413  18.550  0.00  0.00    +0.000 N 
ATOM      6  N   UNL     1       5.854   4.240  18.746  0.00  0.00    +0.000 NA
ATOM      7  C   UNL     1       4.917   4.138  17.856  0.00  0.00    +0.000 A 
ATOM      8  S   UNL     1       4.787   5.457  16.707  0.00  0.00    +0.000 S 
ATOM      9  C   UNL     1       6.121   6.218  17.521  0.00  0.00    +0.000 A 
ATOM     10  N   UNL     1       6.625   7.363  17.194  0.00  0.00    +0.000 NA
ENDROOT
BRANCH   7  11
ATOM     11  C   UNL     1       3.944   2.978  17.765  0.00  0.00    +0.000 C 
ATOM     12  C   UNL     1       3.755   2.272  19.115  0.00  0.00    +0.000 C 
ATOM     13  C   UNL     1       2.813   2.999  20.074  0.00  0.00    +0.000 C 
ATOM     14  C   UNL     1       1.480   3.334  19.416  0.00  0.00    +0.000 C 
ATOM     15  C   UNL     1       1.673   4.125  18.128  0.00  0.00    +0.000 C 
ATOM     16  C   UNL     1       2.605   3.410  17.150  0.00  0.00    +0.000 C 
ENDBRANCH   7  11
BRANCH   1  17
ATOM     17  C   UNL     1       8.353   9.117  17.625  0.00  0.00    +0.000 C 
BRANCH  17  18
ATOM     18  O   UNL     1       8.808   9.821  18.784  0.00  0.00    +0.000 OA
BRANCH  18  19
ATOM     19  C   UNL     1       9.606  10.893  18.527  0.00  0.00    +0.000 C 
ATOM     20  O   UNL     1      10.822  10.919  18.675  0.00  0.00    +0.000 OA
BRANCH  19  21
ATOM     21  C   UNL     1       8.777  12.048  17.995  0.00  0.00    +0.000 C 
BRANCH  21  22
ATOM     22  O   UNL     1       9.556  13.044  17.366  0.00  0.00    +0.000 OA
BRANCH  22  29
ATOM     23  C   UNL     1       7.373  15.323  17.757  0.00  0.00    +0.000 C 
ATOM     24  C   UNL     1       8.812  15.306  18.194  0.00  0.00    +0.000 A 
ATOM     25  C   UNL     1       9.255  16.464  18.872  0.00  0.00    +0.000 A 
ATOM     26  C   UNL     1      10.564  16.597  19.329  0.00  0.00    +0.000 A 
ATOM     27  C   UNL     1      11.466  15.567  19.116  0.00  0.00    +0.000 A 
ATOM     28  C   UNL     1      11.050  14.413  18.451  0.00  0.00    +0.000 A 
ATOM     29  C   UNL     1       9.731  14.259  17.982  0.00  0.00    +0.000 A 
ENDBRANCH  22  29
ENDBRANCH  21  22
ENDBRANCH  19  21
ENDBRANCH  18  19
ENDBRANCH  17  18
ENDBRANCH   1  17
TORSDOF 7
ENDMDL
MODEL 8
REMARK VINA RESULT:      -8.0      1.331      2.351
REMARK  Name = 
REMARK  8 active torsions:
REMARK  status: ('A' for Active; 'I' for Inactive)
REMARK    1  A    between atoms: C_1  and  C_2
REMARK    2  A    between atoms: C_7  and  O_8
REMARK    3  A    between atoms: O_8  and  C_9
REMARK    4  A    between atoms: C_9  and  C_10
REMARK    5  A    between atoms: C_10  and  O_12
REMARK    6  A    between atoms: O_12  and  C_13
REMARK    7  A    between atoms: C_13  and  C_14
REMARK    8  A    between atoms: C_20  and  C_21
REMARK                            x       y       z     vdW  Elec       q    Type
REMARK                         _______ _______ _______ _____ _____    ______ ____
ROOT
ATOM      1  C   UNL     1       7.237   7.672  17.786  0.00  0.00    +0.000 A 
ATOM      2  C   UNL     1       7.972   6.558  17.965  0.00  0.00    +0.000 A 
ATOM      3  C   UNL     1       7.316   5.234  17.946  0.00  0.00    +0.000 A 
ATOM      4  O   UNL     1       7.988   4.229  18.150  0.00  0.00    +0.000 OA
ATOM      5  N   UNL     1       5.966   5.292  17.702  0.00  0.00    +0.000 N 
ATOM      6  N   UNL     1       5.192   4.157  17.652  0.00  0.00    +0.000 NA
ATOM      7  C   UNL     1       3.959   4.488  17.427  0.00  0.00    +0.000 A 
ATOM      8  S   UNL     1       3.631   6.203  17.262  0.00  0.00    +0.000 S 
ATOM      9  C   UNL     1       5.323   6.492  17.532  0.00  0.00    +0.000 A 
ATOM     10  N   UNL     1       5.873   7.663  17.566  0.00  0.00    +0.000 NA
ENDROOT
BRANCH   7  11
ATOM     11  C   UNL     1       2.813   3.501  17.318  0.00  0.00    +0.000 C 
ATOM     12  C   UNL     1       3.143   2.154  17.976  0.00  0.00    +0.000 C 
ATOM     13  C   UNL     1       3.012   2.152  19.498  0.00  0.00    +0.000 C 
ATOM     14  C   UNL     1       1.660   2.690  19.953  0.00  0.00    +0.000 C 
ATOM     15  C   UNL     1       1.386   4.074  19.377  0.00  0.00    +0.000 C 
ATOM     16  C   UNL     1       1.502   4.095  17.854  0.00  0.00    +0.000 C 
ENDBRANCH   7  11
BRANCH   1  17
ATOM     17  C   UNL     1       7.960   9.016  17.815  0.00  0.00    +0.000 C 
BRANCH  17  18
ATOM     18  O   UNL     1       8.981   9.072  18.816  0.00  0.00    +0.000 OA
BRANCH  18  19
ATOM     19  C   UNL     1       9.254  10.320  19.286  0.00  0.00    +0.000 C 
ATOM     20  O   UNL     1       9.119  10.680  20.450  0.00  0.00    +0.000 OA
BRANCH  19  21
ATOM     21  C   UNL     1       9.786  11.198  18.168  0.00  0.00    +0.000 C 
BRANCH  21  22
ATOM     22  O   UNL     1       9.380  12.545  18.282  0.00  0.00    +0.000 OA
BRANCH  22  29
ATOM     23  C   UNL     1      10.265  13.848  21.044  0.00  0.00    +0.000 C 
ATOM     24  C   UNL     1      10.766  14.139  19.657  0.00  0.00    +0.000 A 
ATOM     25  C   UNL     1      11.770  15.131  19.569  0.00  0.00    +0.000 A 
ATOM     26  C   UNL     1      12.324  15.514  18.350  0.00  0.00    +0.000 A 
ATOM     27  C   UNL     1      11.885  14.910  17.183  0.00  0.00    +0.000 A 
ATOM     28  C   UNL     1      10.896  13.927  17.246  0.00  0.00    +0.000 A 
ATOM     29  C   UNL     1      10.324  13.525  18.469  0.00  0.00    +0.000 A 
ENDBRANCH  22  29
ENDBRANCH  21  22
ENDBRANCH  19  21
ENDBRANCH  18  19
ENDBRANCH  17  18
ENDBRANCH   1  17
TORSDOF 7
ENDMDL
MODEL 9
REMARK VINA RESULT:      -8.0      0.929      1.236
REMARK  Name = 
REMARK  8 active torsions:
REMARK  status: ('A' for Active; 'I' for Inactive)
REMARK    1  A    between atoms: C_1  and  C_2
REMARK    2  A    between atoms: C_7  and  O_8
REMARK    3  A    between atoms: O_8  and  C_9
REMARK    4  A    between atoms: C_9  and  C_10
REMARK    5  A    between atoms: C_10  and  O_12
REMARK    6  A    between atoms: O_12  and  C_13
REMARK    7  A    between atoms: C_13  and  C_14
REMARK    8  A    between atoms: C_20  and  C_21
REMARK                            x       y       z     vdW  Elec       q    Type
REMARK                         _______ _______ _______ _____ _____    ______ ____
ROOT
ATOM      1  C   UNL     1       7.657   7.558  17.787  0.00  0.00    +0.000 A 
ATOM      2  C   UNL     1       8.109   6.951  18.901  0.00  0.00    +0.000 A 
ATOM      3  C   UNL     1       7.459   5.715  19.380  0.00  0.00    +0.000 A 
ATOM      4  O   UNL     1       7.854   5.191  20.417  0.00  0.00    +0.000 OA
ATOM      5  N   UNL     1       6.434   5.282  18.573  0.00  0.00    +0.000 N 
ATOM      6  N   UNL     1       5.713   4.150  18.866  0.00  0.00    +0.000 NA
ATOM      7  C   UNL     1       4.799   3.978  17.963  0.00  0.00    +0.000 A 
ATOM      8  S   UNL     1       4.732   5.177  16.684  0.00  0.00    +0.000 S 
ATOM      9  C   UNL     1       6.062   5.987  17.456  0.00  0.00    +0.000 A 
ATOM     10  N   UNL     1       6.602   7.083  17.030  0.00  0.00    +0.000 NA
ENDROOT
BRANCH   7  11
ATOM     11  C   UNL     1       3.801   2.837  17.961  0.00  0.00    +0.000 C 
ATOM     12  C   UNL     1       3.574   2.261  19.366  0.00  0.00    +0.000 C 
ATOM     13  C   UNL     1       2.634   3.093  20.237  0.00  0.00    +0.000 C 
ATOM     14  C   UNL     1       1.320   3.395  19.528  0.00  0.00    +0.000 C 
ATOM     15  C   UNL     1       1.552   4.061  18.178  0.00  0.00    +0.000 C 
ATOM     16  C   UNL     1       2.482   3.240  17.286  0.00  0.00    +0.000 C 
ENDBRANCH   7  11
BRANCH   1  17
ATOM     17  C   UNL     1       8.360   8.834  17.333  0.00  0.00    +0.000 C 
BRANCH  17  18
ATOM     18  O   UNL     1       8.058   9.957  18.166  0.00  0.00    +0.000 OA
BRANCH  18  19
ATOM     19  C   UNL     1       9.043  10.893  18.246  0.00  0.00    +0.000 C 
ATOM     20  O   UNL     1      10.175  10.690  18.672  0.00  0.00    +0.000 OA
BRANCH  19  21
ATOM     21  C   UNL     1       8.553  12.220  17.697  0.00  0.00    +0.000 C 
BRANCH  21  22
ATOM     22  O   UNL     1       9.475  13.272  17.887  0.00  0.00    +0.000 OA
BRANCH  22  29
ATOM     23  C   UNL     1      12.111  13.577  19.640  0.00  0.00    +0.000 C 
ATOM     24  C   UNL     1      10.713  14.039  19.945  0.00  0.00    +0.000 A 
ATOM     25  C   UNL     1      10.548  14.700  21.183  0.00  0.00    +0.000 A 
ATOM     26  C   UNL     1       9.310  15.177  21.606  0.00  0.00    +0.000 A 
ATOM     27  C   UNL     1       8.200  15.002  20.795  0.00  0.00    +0.000 A 
ATOM     28  C   UNL     1       8.339  14.354  19.567  0.00  0.00    +0.000 A 
ATOM     29  C   UNL     1       9.583  13.866  19.121  0.00  0.00    +0.000 A 
ENDBRANCH  22  29
ENDBRANCH  21  22
ENDBRANCH  19  21
ENDBRANCH  18  19
ENDBRANCH  17  18
ENDBRANCH   1  17
TORSDOF 7
ENDMDL
