MODEL 1
REMARK VINA RESULT:      -8.8      0.000      0.000
REMARK  Name = 
REMARK  4 active torsions:
REMARK  status: ('A' for Active; 'I' for Inactive)
REMARK    1  A    between atoms: C_1  and  C_2
REMARK    2  A    between atoms: C_2  and  C_3
REMARK    3  A    between atoms: C_7  and  C_8
REMARK    4  A    between atoms: C_12  and  C_13
REMARK                            x       y       z     vdW  Elec       q    Type
REMARK                         _______ _______ _______ _____ _____    ______ ____
ROOT
ATOM      1  C   UNL     1       6.808   5.454  15.823  0.00  0.00    +0.000 A 
ATOM      2  N   UNL     1       7.508   5.537  14.663  0.00  0.00    +0.000 NA
ATOM      3  N   UNL     1       6.791   4.798  13.841  0.00  0.00    +0.000 N 
ATOM      4  C   UNL     1       5.671   4.242  14.352  0.00  0.00    +0.000 A 
ATOM      5  C   UNL     1       5.568   4.712  15.646  0.00  0.00    +0.000 A 
ATOM      6  C   UNL     1       5.033   3.378  13.338  0.00  0.00    +0.000 C 
ATOM      7  C   UNL     1       6.176   3.193  12.302  0.00  0.00    +0.000 C 
ATOM      8  C   UNL     1       7.107   4.398  12.480  0.00  0.00    +0.000 C 
ENDROOT
BRANCH   5   9
ATOM      9  C   UNL     1       4.435   4.416  16.540  0.00  0.00    +0.000 A 
ATOM     10  C   UNL     1       4.038   3.084  16.666  0.00  0.00    +0.000 A 
ATOM     11  C   UNL     1       2.923   2.781  17.417  0.00  0.00    +0.000 A 
ATOM     12  N   UNL     1       2.174   3.697  18.049  0.00  0.00    +0.000 NA
ATOM     13  C   UNL     1       2.546   4.980  17.957  0.00  0.00    +0.000 A 
ATOM     14  C   UNL     1       1.739   5.913  18.605  0.00  0.00    +0.000 A 
ATOM     15  C   UNL     1       2.030   7.275  18.612  0.00  0.00    +0.000 A 
ATOM     16  C   UNL     1       3.162   7.726  17.959  0.00  0.00    +0.000 A 
ATOM     17  C   UNL     1       3.943   6.816  17.248  0.00  0.00    +0.000 A 
ATOM     18  C   UNL     1       3.679   5.417  17.238  0.00  0.00    +0.000 A 
ENDBRANCH   5   9
BRANCH   1  23
ATOM     19  C   UNL     1       8.143   7.988  18.068  0.00  0.00    +0.000 A 
ATOM     20  C   UNL     1       8.448   7.288  19.232  0.00  0.00    +0.000 A 
ATOM     21  C   UNL     1       8.203   5.920  19.273  0.00  0.00    +0.000 A 
ATOM     22  C   UNL     1       7.650   5.293  18.162  0.00  0.00    +0.000 A 
ATOM     23  C   UNL     1       7.336   6.069  17.050  0.00  0.00    +0.000 A 
ATOM     24  N   UNL     1       7.567   7.401  16.997  0.00  0.00    +0.000 NA
BRANCH  19  26
ATOM     25  C   UNL     1       9.172   9.964  19.180  0.00  0.00    +0.000 C 
ATOM     26  C   UNL     1       8.452   9.454  17.944  0.00  0.00    +0.000 C 
ENDBRANCH  19  26
ENDBRANCH   1  23
TORSDOF 3
ENDMDL
MODEL 2
REMARK VINA RESULT:      -8.5      2.007      6.251
REMARK  Name = 
REMARK  4 active torsions:
REMARK  status: ('A' for Active; 'I' for Inactive)
REMARK    1  A    between atoms: C_1  and  C_2
REMARK    2  A    between atoms: C_2  and  C_3
REMARK    3  A    between atoms: C_7  and  C_8
REMARK    4  A    between atoms: C_12  and  C_13
REMARK                            x       y       z     vdW  Elec       q    Type
REMARK                         _______ _______ _______ _____ _____    ______ ____
ROOT
ATOM      1  C   UNL     1       2.615   5.421  19.149  0.00  0.00    +0.000 A 
ATOM      2  N   UNL     1       1.618   4.650  19.652  0.00  0.00    +0.000 NA
ATOM      3  N   UNL     1       2.114   3.434  19.549  0.00  0.00    +0.000 N 
ATOM      4  C   UNL     1       3.360   3.333  19.033  0.00  0.00    +0.000 A 
ATOM      5  C   UNL     1       3.793   4.628  18.830  0.00  0.00    +0.000 A 
ATOM      6  C   UNL     1       3.734   1.911  18.902  0.00  0.00    +0.000 C 
ATOM      7  C   UNL     1       2.359   1.199  19.033  0.00  0.00    +0.000 C 
ATOM      8  C   UNL     1       1.454   2.166  19.806  0.00  0.00    +0.000 C 
ENDROOT
BRANCH   5   9
ATOM      9  C   UNL     1       5.144   4.976  18.354  0.00  0.00    +0.000 A 
ATOM     10  C   UNL     1       6.029   5.545  19.270  0.00  0.00    +0.000 A 
ATOM     11  C   UNL     1       7.266   5.971  18.837  0.00  0.00    +0.000 A 
ATOM     12  N   UNL     1       7.688   5.877  17.567  0.00  0.00    +0.000 NA
ATOM     13  C   UNL     1       6.863   5.318  16.673  0.00  0.00    +0.000 A 
ATOM     14  C   UNL     1       7.317   5.251  15.358  0.00  0.00    +0.000 A 
ATOM     15  C   UNL     1       6.569   4.668  14.338  0.00  0.00    +0.000 A 
ATOM     16  C   UNL     1       5.331   4.129  14.634  0.00  0.00    +0.000 A 
ATOM     17  C   UNL     1       4.831   4.248  15.930  0.00  0.00    +0.000 A 
ATOM     18  C   UNL     1       5.581   4.822  16.994  0.00  0.00    +0.000 A 
ENDBRANCH   5   9
BRANCH   1  23
ATOM     19  C   UNL     1       1.563   8.827  19.884  0.00  0.00    +0.000 A 
ATOM     20  C   UNL     1       1.880   9.539  18.731  0.00  0.00    +0.000 A 
ATOM     21  C   UNL     1       2.464   8.862  17.666  0.00  0.00    +0.000 A 
ATOM     22  C   UNL     1       2.727   7.502  17.785  0.00  0.00    +0.000 A 
ATOM     23  C   UNL     1       2.418   6.869  18.985  0.00  0.00    +0.000 A 
ATOM     24  N   UNL     1       1.852   7.516  20.031  0.00  0.00    +0.000 NA
BRANCH  19  26
ATOM     25  C   UNL     1      -0.213   8.595  21.614  0.00  0.00    +0.000 C 
ATOM     26  C   UNL     1       0.868   9.493  21.038  0.00  0.00    +0.000 C 
ENDBRANCH  19  26
ENDBRANCH   1  23
TORSDOF 3
ENDMDL
MODEL 3
REMARK VINA RESULT:      -7.9      6.226     10.372
REMARK  Name = 
REMARK  4 active torsions:
REMARK  status: ('A' for Active; 'I' for Inactive)
REMARK    1  A    between atoms: C_1  and  C_2
REMARK    2  A    between atoms: C_2  and  C_3
REMARK    3  A    between atoms: C_7  and  C_8
REMARK    4  A    between atoms: C_12  and  C_13
REMARK                            x       y       z     vdW  Elec       q    Type
REMARK                         _______ _______ _______ _____ _____    ______ ____
ROOT
ATOM      1  C   UNL     1      -0.694  12.241  18.606  0.00  0.00    +0.000 A 
ATOM      2  N   UNL     1      -0.443  13.509  18.192  0.00  0.00    +0.000 NA
ATOM      3  N   UNL     1       0.634  13.830  18.879  0.00  0.00    +0.000 N 
ATOM      4  C   UNL     1       1.127  12.880  19.704  0.00  0.00    +0.000 A 
ATOM      5  C   UNL     1       0.346  11.759  19.505  0.00  0.00    +0.000 A 
ATOM      6  C   UNL     1       2.272  13.421  20.464  0.00  0.00    +0.000 C 
ATOM      7  C   UNL     1       2.107  14.952  20.255  0.00  0.00    +0.000 C 
ATOM      8  C   UNL     1       1.301  15.118  18.961  0.00  0.00    +0.000 C 
ENDROOT
BRANCH   5   9
ATOM      9  C   UNL     1       0.595  10.458  20.151  0.00  0.00    +0.000 A 
ATOM     10  C   UNL     1       0.200  10.307  21.480  0.00  0.00    +0.000 A 
ATOM     11  C   UNL     1       0.503   9.140  22.146  0.00  0.00    +0.000 A 
ATOM     12  N   UNL     1       1.169   8.114  21.593  0.00  0.00    +0.000 NA
ATOM     13  C   UNL     1       1.543   8.229  20.312  0.00  0.00    +0.000 A 
ATOM     14  C   UNL     1       2.250   7.159  19.769  0.00  0.00    +0.000 A 
ATOM     15  C   UNL     1       2.672   7.139  18.442  0.00  0.00    +0.000 A 
ATOM     16  C   UNL     1       2.377   8.215  17.625  0.00  0.00    +0.000 A 
ATOM     17  C   UNL     1       1.730   9.323  18.170  0.00  0.00    +0.000 A 
ATOM     18  C   UNL     1       1.273   9.363  19.517  0.00  0.00    +0.000 A 
ENDBRANCH   5   9
BRANCH   1  23
ATOM     19  C   UNL     1      -4.206  11.352  18.271  0.00  0.00    +0.000 A 
ATOM     20  C   UNL     1      -4.197  10.219  17.463  0.00  0.00    +0.000 A 
ATOM     21  C   UNL     1      -2.977   9.729  17.013  0.00  0.00    +0.000 A 
ATOM     22  C   UNL     1      -1.804  10.388  17.368  0.00  0.00    +0.000 A 
ATOM     23  C   UNL     1      -1.899  11.538  18.146  0.00  0.00    +0.000 A 
ATOM     24  N   UNL     1      -3.081  12.027  18.590  0.00  0.00    +0.000 NA
BRANCH  19  26
ATOM     25  C   UNL     1      -6.647  10.943  18.550  0.00  0.00    +0.000 C 
ATOM     26  C   UNL     1      -5.491  11.884  18.843  0.00  0.00    +0.000 C 
ENDBRANCH  19  26
ENDBRANCH   1  23
TORSDOF 3
ENDMDL
MODEL 4
REMARK VINA RESULT:      -7.8      0.876      2.199
REMARK  Name = 
REMARK  4 active torsions:
REMARK  status: ('A' for Active; 'I' for Inactive)
REMARK    1  A    between atoms: C_1  and  C_2
REMARK    2  A    between atoms: C_2  and  C_3
REMARK    3  A    between atoms: C_7  and  C_8
REMARK    4  A    between atoms: C_12  and  C_13
REMARK                            x       y       z     vdW  Elec       q    Type
REMARK                         _______ _______ _______ _____ _____    ______ ____
ROOT
ATOM      1  C   UNL     1       6.797   5.798  16.112  0.00  0.00    +0.000 A 
ATOM      2  N   UNL     1       7.538   5.608  14.991  0.00  0.00    +0.000 NA
ATOM      3  N   UNL     1       6.718   4.928  14.216  0.00  0.00    +0.000 N 
ATOM      4  C   UNL     1       5.493   4.661  14.721  0.00  0.00    +0.000 A 
ATOM      5  C   UNL     1       5.441   5.292  15.948  0.00  0.00    +0.000 A 
ATOM      6  C   UNL     1       4.733   3.821  13.774  0.00  0.00    +0.000 C 
ATOM      7  C   UNL     1       5.851   3.299  12.831  0.00  0.00    +0.000 C 
ATOM      8  C   UNL     1       6.995   4.316  12.928  0.00  0.00    +0.000 C 
ENDROOT
BRANCH   5   9
ATOM      9  C   UNL     1       4.242   5.326  16.804  0.00  0.00    +0.000 A 
ATOM     10  C   UNL     1       3.672   6.571  17.074  0.00  0.00    +0.000 A 
ATOM     11  C   UNL     1       2.609   6.650  17.947  0.00  0.00    +0.000 A 
ATOM     12  N   UNL     1       2.072   5.591  18.572  0.00  0.00    +0.000 NA
ATOM     13  C   UNL     1       2.591   4.383  18.314  0.00  0.00    +0.000 A 
ATOM     14  C   UNL     1       2.029   3.304  18.991  0.00  0.00    +0.000 A 
ATOM     15  C   UNL     1       2.457   1.993  18.792  0.00  0.00    +0.000 A 
ATOM     16  C   UNL     1       3.472   1.745  17.888  0.00  0.00    +0.000 A 
ATOM     17  C   UNL     1       4.092   2.820  17.252  0.00  0.00    +0.000 A 
ATOM     18  C   UNL     1       3.664   4.167  17.424  0.00  0.00    +0.000 A 
ENDBRANCH   5   9
BRANCH   1  23
ATOM     19  C   UNL     1       8.293   8.374  18.203  0.00  0.00    +0.000 A 
ATOM     20  C   UNL     1       8.630   7.708  19.377  0.00  0.00    +0.000 A 
ATOM     21  C   UNL     1       8.352   6.350  19.480  0.00  0.00    +0.000 A 
ATOM     22  C   UNL     1       7.735   5.698  18.417  0.00  0.00    +0.000 A 
ATOM     23  C   UNL     1       7.393   6.442  17.292  0.00  0.00    +0.000 A 
ATOM     24  N   UNL     1       7.655   7.765  17.180  0.00  0.00    +0.000 NA
BRANCH  19  26
ATOM     25  C   UNL     1       9.349  10.381  19.230  0.00  0.00    +0.000 C 
ATOM     26  C   UNL     1       8.634   9.825  18.011  0.00  0.00    +0.000 C 
ENDBRANCH  19  26
ENDBRANCH   1  23
TORSDOF 3
ENDMDL
MODEL 5
REMARK VINA RESULT:      -7.7      6.107     10.244
REMARK  Name = 
REMARK  4 active torsions:
REMARK  status: ('A' for Active; 'I' for Inactive)
REMARK    1  A    between atoms: C_1  and  C_2
REMARK    2  A    between atoms: C_2  and  C_3
REMARK    3  A    between atoms: C_7  and  C_8
REMARK    4  A    between atoms: C_12  and  C_13
REMARK                            x       y       z     vdW  Elec       q    Type
REMARK                         _______ _______ _______ _____ _____    ______ ____
ROOT
ATOM      1  C   UNL     1      -0.651  12.457  18.705  0.00  0.00    +0.000 A 
ATOM      2  N   UNL     1      -0.347  13.717  18.303  0.00  0.00    +0.000 NA
ATOM      3  N   UNL     1       0.745  13.984  18.989  0.00  0.00    +0.000 N 
ATOM      4  C   UNL     1       1.199  13.006  19.804  0.00  0.00    +0.000 A 
ATOM      5  C   UNL     1       0.370  11.922  19.595  0.00  0.00    +0.000 A 
ATOM      6  C   UNL     1       2.368  13.490  20.564  0.00  0.00    +0.000 C 
ATOM      7  C   UNL     1       2.269  15.028  20.371  0.00  0.00    +0.000 C 
ATOM      8  C   UNL     1       1.467  15.241  19.082  0.00  0.00    +0.000 C 
ENDROOT
BRANCH   5   9
ATOM      9  C   UNL     1       0.565  10.605  20.228  0.00  0.00    +0.000 A 
ATOM     10  C   UNL     1       0.131  10.447  21.545  0.00  0.00    +0.000 A 
ATOM     11  C   UNL     1       0.383   9.261  22.199  0.00  0.00    +0.000 A 
ATOM     12  N   UNL     1       1.033   8.225  21.649  0.00  0.00    +0.000 NA
ATOM     13  C   UNL     1       1.443   8.346  20.379  0.00  0.00    +0.000 A 
ATOM     14  C   UNL     1       2.132   7.264  19.839  0.00  0.00    +0.000 A 
ATOM     15  C   UNL     1       2.588   7.252  18.522  0.00  0.00    +0.000 A 
ATOM     16  C   UNL     1       2.345   8.347  17.714  0.00  0.00    +0.000 A 
ATOM     17  C   UNL     1       1.716   9.466  18.259  0.00  0.00    +0.000 A 
ATOM     18  C   UNL     1       1.227   9.500  19.595  0.00  0.00    +0.000 A 
ENDBRANCH   5   9
BRANCH   1  23
ATOM     19  C   UNL     1      -2.912  10.524  16.609  0.00  0.00    +0.000 A 
ATOM     20  C   UNL     1      -4.155  10.677  17.215  0.00  0.00    +0.000 A 
ATOM     21  C   UNL     1      -4.248  11.454  18.364  0.00  0.00    +0.000 A 
ATOM     22  C   UNL     1      -3.100  12.044  18.883  0.00  0.00    +0.000 A 
ATOM     23  C   UNL     1      -1.887  11.811  18.242  0.00  0.00    +0.000 A 
ATOM     24  N   UNL     1      -1.782  11.054  17.124  0.00  0.00    +0.000 NA
BRANCH  19  26
ATOM     25  C   UNL     1      -3.842  10.147  14.330  0.00  0.00    +0.000 C 
ATOM     26  C   UNL     1      -2.766   9.752  15.327  0.00  0.00    +0.000 C 
ENDBRANCH  19  26
ENDBRANCH   1  23
TORSDOF 3
ENDMDL
MODEL 6
REMARK VINA RESULT:      -7.5      2.488      5.510
REMARK  Name = 
REMARK  4 active torsions:
REMARK  status: ('A' for Active; 'I' for Inactive)
REMARK    1  A    between atoms: C_1  and  C_2
REMARK    2  A    between atoms: C_2  and  C_3
REMARK    3  A    between atoms: C_7  and  C_8
REMARK    4  A    between atoms: C_12  and  C_13
REMARK                            x       y       z     vdW  Elec       q    Type
REMARK                         _______ _______ _______ _____ _____    ______ ____
ROOT
ATOM      1  C   UNL     1       4.206   4.614  19.017  0.00  0.00    +0.000 A 
ATOM      2  N   UNL     1       4.104   3.325  19.430  0.00  0.00    +0.000 NA
ATOM      3  N   UNL     1       2.897   3.286  19.956  0.00  0.00    +0.000 N 
ATOM      4  C   UNL     1       2.185   4.434  19.918  0.00  0.00    +0.000 A 
ATOM      5  C   UNL     1       2.960   5.340  19.221  0.00  0.00    +0.000 A 
ATOM      6  C   UNL     1       0.900   4.251  20.623  0.00  0.00    +0.000 C 
ATOM      7  C   UNL     1       1.155   2.949  21.431  0.00  0.00    +0.000 C 
ATOM      8  C   UNL     1       2.267   2.200  20.687  0.00  0.00    +0.000 C 
ENDROOT
BRANCH   5   9
ATOM      9  C   UNL     1       2.520   6.703  18.875  0.00  0.00    +0.000 A 
ATOM     10  C   UNL     1       2.822   7.179  17.599  0.00  0.00    +0.000 A 
ATOM     11  C   UNL     1       2.511   8.481  17.274  0.00  0.00    +0.000 A 
ATOM     12  N   UNL     1       1.925   9.344  18.118  0.00  0.00    +0.000 NA
ATOM     13  C   UNL     1       1.609   8.904  19.343  0.00  0.00    +0.000 A 
ATOM     14  C   UNL     1       1.021   9.827  20.205  0.00  0.00    +0.000 A 
ATOM     15  C   UNL     1       0.618   9.490  21.496  0.00  0.00    +0.000 A 
ATOM     16  C   UNL     1       0.800   8.194  21.942  0.00  0.00    +0.000 A 
ATOM     17  C   UNL     1       1.448   7.277  21.117  0.00  0.00    +0.000 A 
ATOM     18  C   UNL     1       1.855   7.588  19.789  0.00  0.00    +0.000 A 
ENDBRANCH   5   9
BRANCH   1  23
ATOM     19  C   UNL     1       6.829   5.281  16.584  0.00  0.00    +0.000 A 
ATOM     20  C   UNL     1       7.843   5.875  17.329  0.00  0.00    +0.000 A 
ATOM     21  C   UNL     1       7.651   6.060  18.693  0.00  0.00    +0.000 A 
ATOM     22  C   UNL     1       6.451   5.661  19.273  0.00  0.00    +0.000 A 
ATOM     23  C   UNL     1       5.469   5.112  18.454  0.00  0.00    +0.000 A 
ATOM     24  N   UNL     1       5.642   4.928  17.124  0.00  0.00    +0.000 NA
BRANCH  19  26
ATOM     25  C   UNL     1       5.784   4.308  14.544  0.00  0.00    +0.000 C 
ATOM     26  C   UNL     1       7.011   4.994  15.120  0.00  0.00    +0.000 C 
ENDBRANCH  19  26
ENDBRANCH   1  23
TORSDOF 3
ENDMDL
MODEL 7
REMARK VINA RESULT:      -7.3      2.565      6.566
REMARK  Name = 
REMARK  4 active torsions:
REMARK  status: ('A' for Active; 'I' for Inactive)
REMARK    1  A    between atoms: C_1  and  C_2
REMARK    2  A    between atoms: C_2  and  C_3
REMARK    3  A    between atoms: C_7  and  C_8
REMARK    4  A    between atoms: C_12  and  C_13
REMARK                            x       y       z     vdW  Elec       q    Type
REMARK                         _______ _______ _______ _____ _____    ______ ____
ROOT
ATOM      1  C   UNL     1       2.305   5.864  19.843  0.00  0.00    +0.000 A 
ATOM      2  N   UNL     1       1.641   5.460  20.956  0.00  0.00    +0.000 NA
ATOM      3  N   UNL     1       1.958   4.184  21.033  0.00  0.00    +0.000 N 
ATOM      4  C   UNL     1       2.784   3.709  20.074  0.00  0.00    +0.000 A 
ATOM      5  C   UNL     1       3.131   4.796  19.298  0.00  0.00    +0.000 A 
ATOM      6  C   UNL     1       2.968   2.254  20.247  0.00  0.00    +0.000 C 
ATOM      7  C   UNL     1       1.797   1.888  21.201  0.00  0.00    +0.000 C 
ATOM      8  C   UNL     1       1.440   3.180  21.947  0.00  0.00    +0.000 C 
ENDROOT
BRANCH   5   9
ATOM      9  C   UNL     1       4.092   4.736  18.183  0.00  0.00    +0.000 A 
ATOM     10  C   UNL     1       3.612   4.345  16.932  0.00  0.00    +0.000 A 
ATOM     11  C   UNL     1       4.499   4.184  15.890  0.00  0.00    +0.000 A 
ATOM     12  N   UNL     1       5.822   4.380  15.995  0.00  0.00    +0.000 NA
ATOM     13  C   UNL     1       6.304   4.774  17.181  0.00  0.00    +0.000 A 
ATOM     14  C   UNL     1       7.683   4.950  17.268  0.00  0.00    +0.000 A 
ATOM     15  C   UNL     1       8.308   5.383  18.436  0.00  0.00    +0.000 A 
ATOM     16  C   UNL     1       7.538   5.657  19.551  0.00  0.00    +0.000 A 
ATOM     17  C   UNL     1       6.164   5.421  19.502  0.00  0.00    +0.000 A 
ATOM     18  C   UNL     1       5.498   4.994  18.319  0.00  0.00    +0.000 A 
ENDBRANCH   5   9
BRANCH   1  23
ATOM     19  C   UNL     1       1.223   9.335  19.690  0.00  0.00    +0.000 A 
ATOM     20  C   UNL     1       1.633   9.766  18.432  0.00  0.00    +0.000 A 
ATOM     21  C   UNL     1       2.293   8.869  17.600  0.00  0.00    +0.000 A 
ATOM     22  C   UNL     1       2.537   7.576  18.049  0.00  0.00    +0.000 A 
ATOM     23  C   UNL     1       2.131   7.233  19.336  0.00  0.00    +0.000 A 
ATOM     24  N   UNL     1       1.490   8.096  20.157  0.00  0.00    +0.000 NA
BRANCH  19  26
ATOM     25  C   UNL     1      -0.135   9.467  21.774  0.00  0.00    +0.000 C 
ATOM     26  C   UNL     1       0.444  10.241  20.603  0.00  0.00    +0.000 C 
ENDBRANCH  19  26
ENDBRANCH   1  23
TORSDOF 3
ENDMDL
MODEL 8
REMARK VINA RESULT:      -7.3      2.701      6.740
REMARK  Name = 
REMARK  4 active torsions:
REMARK  status: ('A' for Active; 'I' for Inactive)
REMARK    1  A    between atoms: C_1  and  C_2
REMARK    2  A    between atoms: C_2  and  C_3
REMARK    3  A    between atoms: C_7  and  C_8
REMARK    4  A    between atoms: C_12  and  C_13
REMARK                            x       y       z     vdW  Elec       q    Type
REMARK                         _______ _______ _______ _____ _____    ______ ____
ROOT
ATOM      1  C   UNL     1       1.976   6.085  19.927  0.00  0.00    +0.000 A 
ATOM      2  N   UNL     1       1.294   5.128  20.607  0.00  0.00    +0.000 NA
ATOM      3  N   UNL     1       1.772   4.014  20.092  0.00  0.00    +0.000 N 
ATOM      4  C   UNL     1       2.719   4.148  19.138  0.00  0.00    +0.000 A 
ATOM      5  C   UNL     1       2.973   5.502  19.042  0.00  0.00    +0.000 A 
ATOM      6  C   UNL     1       3.082   2.821  18.602  0.00  0.00    +0.000 C 
ATOM      7  C   UNL     1       1.906   1.936  19.098  0.00  0.00    +0.000 C 
ATOM      8  C   UNL     1       1.329   2.650  20.326  0.00  0.00    +0.000 C 
ENDROOT
BRANCH   5   9
ATOM      9  C   UNL     1       4.010   6.083  18.171  0.00  0.00    +0.000 A 
ATOM     10  C   UNL     1       3.596   6.700  16.990  0.00  0.00    +0.000 A 
ATOM     11  C   UNL     1       4.543   7.169  16.106  0.00  0.00    +0.000 A 
ATOM     12  N   UNL     1       5.867   7.070  16.304  0.00  0.00    +0.000 NA
ATOM     13  C   UNL     1       6.288   6.497  17.439  0.00  0.00    +0.000 A 
ATOM     14  C   UNL     1       7.666   6.389  17.610  0.00  0.00    +0.000 A 
ATOM     15  C   UNL     1       8.235   5.840  18.758  0.00  0.00    +0.000 A 
ATOM     16  C   UNL     1       7.409   5.389  19.770  0.00  0.00    +0.000 A 
ATOM     17  C   UNL     1       6.027   5.428  19.587  0.00  0.00    +0.000 A 
ATOM     18  C   UNL     1       5.420   5.998  18.433  0.00  0.00    +0.000 A 
ENDBRANCH   5   9
BRANCH   1  23
ATOM     19  C   UNL     1       0.900   9.133  21.599  0.00  0.00    +0.000 A 
ATOM     20  C   UNL     1       0.913  10.097  20.595  0.00  0.00    +0.000 A 
ATOM     21  C   UNL     1       1.291   9.721  19.311  0.00  0.00    +0.000 A 
ATOM     22  C   UNL     1       1.658   8.401  19.068  0.00  0.00    +0.000 A 
ATOM     23  C   UNL     1       1.658   7.506  20.134  0.00  0.00    +0.000 A 
ATOM     24  N   UNL     1       1.294   7.859  21.389  0.00  0.00    +0.000 NA
BRANCH  19  26
ATOM     25  C   UNL     1      -0.799  10.358  22.947  0.00  0.00    +0.000 C 
ATOM     26  C   UNL     1       0.432   9.469  22.988  0.00  0.00    +0.000 C 
ENDBRANCH  19  26
ENDBRANCH   1  23
TORSDOF 3
ENDMDL
MODEL 9
REMARK VINA RESULT:      -7.3      6.865     10.506
REMARK  Name = 
REMARK  4 active torsions:
REMARK  status: ('A' for Active; 'I' for Inactive)
REMARK    1  A    between atoms: C_1  and  C_2
REMARK    2  A    between atoms: C_2  and  C_3
REMARK    3  A    between atoms: C_7  and  C_8
REMARK    4  A    between atoms: C_12  and  C_13
REMARK                            x       y       z     vdW  Elec       q    Type
REMARK                         _______ _______ _______ _____ _____    ______ ____
ROOT
ATOM      1  C   UNL     1       0.445  12.348  20.842  0.00  0.00    +0.000 A 
ATOM      2  N   UNL     1       1.528  13.124  21.101  0.00  0.00    +0.000 NA
ATOM      3  N   UNL     1       1.188  14.280  20.570  0.00  0.00    +0.000 N 
ATOM      4  C   UNL     1      -0.031  14.342  19.990  0.00  0.00    +0.000 A 
ATOM      5  C   UNL     1      -0.622  13.115  20.216  0.00  0.00    +0.000 A 
ATOM      6  C   UNL     1      -0.223  15.667  19.367  0.00  0.00    +0.000 C 
ATOM      7  C   UNL     1       1.230  16.217  19.317  0.00  0.00    +0.000 C 
ATOM      8  C   UNL     1       2.001  15.474  20.414  0.00  0.00    +0.000 C 
ENDROOT
BRANCH   5   9
ATOM      9  C   UNL     1      -2.003  12.784  19.820  0.00  0.00    +0.000 A 
ATOM     10  C   UNL     1      -3.043  13.434  20.485  0.00  0.00    +0.000 A 
ATOM     11  C   UNL     1      -4.345  13.079  20.209  0.00  0.00    +0.000 A 
ATOM     12  N   UNL     1      -4.693  12.131  19.326  0.00  0.00    +0.000 NA
ATOM     13  C   UNL     1      -3.712  11.506  18.661  0.00  0.00    +0.000 A 
ATOM     14  C   UNL     1      -4.098  10.512  17.766  0.00  0.00    +0.000 A 
ATOM     15  C   UNL     1      -3.180   9.807  16.991  0.00  0.00    +0.000 A 
ATOM     16  C   UNL     1      -1.835  10.102  17.105  0.00  0.00    +0.000 A 
ATOM     17  C   UNL     1      -1.424  11.046  18.046  0.00  0.00    +0.000 A 
ATOM     18  C   UNL     1      -2.341  11.793  18.837  0.00  0.00    +0.000 A 
ENDBRANCH   5   9
BRANCH   1  23
ATOM     19  C   UNL     1       1.137   8.784  20.592  0.00  0.00    +0.000 A 
ATOM     20  C   UNL     1       0.439   8.225  21.658  0.00  0.00    +0.000 A 
ATOM     21  C   UNL     1      -0.293   9.062  22.491  0.00  0.00    +0.000 A 
ATOM     22  C   UNL     1      -0.297  10.431  22.248  0.00  0.00    +0.000 A 
ATOM     23  C   UNL     1       0.459  10.919  21.187  0.00  0.00    +0.000 A 
ATOM     24  N   UNL     1       1.178  10.115  20.369  0.00  0.00    +0.000 NA
BRANCH  19  26
ATOM     25  C   UNL     1       1.961   8.574  18.251  0.00  0.00    +0.000 C 
ATOM     26  C   UNL     1       1.888   7.918  19.619  0.00  0.00    +0.000 C 
ENDBRANCH  19  26
ENDBRANCH   1  23
TORSDOF 3
ENDMDL
