MODEL 1
REMARK VINA RESULT:      -6.3      0.000      0.000
REMARK  Name = 
REMARK  9 active torsions:
REMARK  status: ('A' for Active; 'I' for Inactive)
REMARK    1  A    between atoms: C_1  and  O_2
REMARK    2  A    between atoms: O_2  and  C_3
REMARK    3  A    between atoms: C_5  and  C_6
REMARK    4  A    between atoms: N_7  and  C_8
REMARK    5  A    between atoms: C_8  and  C_9
REMARK    6  A    between atoms: C_16  and  O_17
REMARK    7  A    between atoms: O_17  and  C_18
REMARK    8  A    between atoms: C_19  and  O_20
REMARK    9  A    between atoms: O_20  and  C_21
REMARK                            x       y       z     vdW  Elec       q    Type
REMARK                         _______ _______ _______ _____ _____    ______ ____
ROOT
ATOM      1  C   UNL     1       4.351   6.145  17.905  0.00  0.00    +0.000 A 
ATOM      2  C   UNL     1       3.631   7.303  17.582  0.00  0.00    +0.000 A 
ATOM      3  C   UNL     1       2.593   7.735  18.401  0.00  0.00    +0.000 A 
ATOM      4  C   UNL     1       2.170   6.949  19.455  0.00  0.00    +0.000 A 
ATOM      5  C   UNL     1       2.807   5.726  19.722  0.00  0.00    +0.000 A 
ATOM      6  C   UNL     1       3.914   5.306  18.952  0.00  0.00    +0.000 A 
ENDROOT
BRANCH   1   8
ATOM      7  C   UNL     1       5.326   5.847  15.769  0.00  0.00    +0.000 C 
ATOM      8  O   UNL     1       5.491   5.845  17.195  0.00  0.00    +0.000 OA
ENDBRANCH   1   8
BRANCH   3   9
ATOM      9  C   UNL     1       2.007   9.077  18.193  0.00  0.00    +0.000 C 
ATOM     10  N   UNL     1       1.018   9.472  18.907  0.00  0.00    +0.000 NA
BRANCH  10  11
ATOM     11  C   UNL     1       0.500  10.810  18.626  0.00  0.00    +0.000 C 
BRANCH  11  12
ATOM     12  C   UNL     1      -0.967  10.752  18.305  0.00  0.00    +0.000 A 
ATOM     13  C   UNL     1      -1.483   9.856  17.368  0.00  0.00    +0.000 A 
ATOM     14  C   UNL     1      -2.848   9.853  17.100  0.00  0.00    +0.000 A 
ATOM     15  C   UNL     1      -3.656  10.748  17.785  0.00  0.00    +0.000 A 
ATOM     16  N   UNL     1      -3.197  11.627  18.698  0.00  0.00    +0.000 NA
ATOM     17  C   UNL     1      -1.864  11.612  18.933  0.00  0.00    +0.000 A 
ENDBRANCH  11  12
ENDBRANCH  10  11
ENDBRANCH   3   9
BRANCH   5  18
ATOM     18  O   UNL     1       2.228   5.106  20.809  0.00  0.00    +0.000 OA
ATOM     19  C   UNL     1       1.176   4.174  20.611  0.00  0.00    +0.000 C 
ENDBRANCH   5  18
BRANCH   6  20
ATOM     20  O   UNL     1       4.461   4.110  19.317  0.00  0.00    +0.000 OA
ATOM     21  C   UNL     1       4.101   2.893  18.689  0.00  0.00    +0.000 C 
ENDBRANCH   6  20
TORSDOF 6
ENDMDL
MODEL 2
REMARK VINA RESULT:      -6.2      2.388      2.658
REMARK  Name = 
REMARK  9 active torsions:
REMARK  status: ('A' for Active; 'I' for Inactive)
REMARK    1  A    between atoms: C_1  and  O_2
REMARK    2  A    between atoms: O_2  and  C_3
REMARK    3  A    between atoms: C_5  and  C_6
REMARK    4  A    between atoms: N_7  and  C_8
REMARK    5  A    between atoms: C_8  and  C_9
REMARK    6  A    between atoms: C_16  and  O_17
REMARK    7  A    between atoms: O_17  and  C_18
REMARK    8  A    between atoms: C_19  and  O_20
REMARK    9  A    between atoms: O_20  and  C_21
REMARK                            x       y       z     vdW  Elec       q    Type
REMARK                         _______ _______ _______ _____ _____    ______ ____
ROOT
ATOM      1  C   UNL     1       5.091   4.709  18.448  0.00  0.00    +0.000 A 
ATOM      2  C   UNL     1       4.753   6.012  18.058  0.00  0.00    +0.000 A 
ATOM      3  C   UNL     1       3.434   6.447  18.131  0.00  0.00    +0.000 A 
ATOM      4  C   UNL     1       2.428   5.555  18.448  0.00  0.00    +0.000 A 
ATOM      5  C   UNL     1       2.737   4.214  18.728  0.00  0.00    +0.000 A 
ATOM      6  C   UNL     1       4.078   3.771  18.737  0.00  0.00    +0.000 A 
ENDROOT
BRANCH   1   8
ATOM      7  C   UNL     1       7.182   4.551  17.353  0.00  0.00    +0.000 C 
ATOM      8  O   UNL     1       6.419   4.364  18.553  0.00  0.00    +0.000 OA
ENDBRANCH   1   8
BRANCH   3   9
ATOM      9  C   UNL     1       3.126   7.883  17.955  0.00  0.00    +0.000 C 
ATOM     10  N   UNL     1       1.912   8.294  17.971  0.00  0.00    +0.000 NA
BRANCH  10  11
ATOM     11  C   UNL     1       1.703   9.729  17.783  0.00  0.00    +0.000 C 
BRANCH  11  12
ATOM     12  C   UNL     1       1.140  10.349  19.030  0.00  0.00    +0.000 A 
ATOM     13  C   UNL     1       0.470   9.594  19.992  0.00  0.00    +0.000 A 
ATOM     14  C   UNL     1      -0.043  10.222  21.123  0.00  0.00    +0.000 A 
ATOM     15  C   UNL     1       0.137  11.590  21.257  0.00  0.00    +0.000 A 
ATOM     16  N   UNL     1       0.780  12.354  20.351  0.00  0.00    +0.000 NA
ATOM     17  C   UNL     1       1.261  11.718  19.258  0.00  0.00    +0.000 A 
ENDBRANCH  11  12
ENDBRANCH  10  11
ENDBRANCH   3   9
BRANCH   5  18
ATOM     18  O   UNL     1       1.591   3.504  19.015  0.00  0.00    +0.000 OA
ATOM     19  C   UNL     1       1.043   3.548  20.323  0.00  0.00    +0.000 C 
ENDBRANCH   5  18
BRANCH   6  20
ATOM     20  O   UNL     1       4.255   2.451  19.041  0.00  0.00    +0.000 OA
ATOM     21  C   UNL     1       4.601   2.018  20.343  0.00  0.00    +0.000 C 
ENDBRANCH   6  20
TORSDOF 6
ENDMDL
MODEL 3
REMARK VINA RESULT:      -6.2      1.659      3.227
REMARK  Name = 
REMARK  9 active torsions:
REMARK  status: ('A' for Active; 'I' for Inactive)
REMARK    1  A    between atoms: C_1  and  O_2
REMARK    2  A    between atoms: O_2  and  C_3
REMARK    3  A    between atoms: C_5  and  C_6
REMARK    4  A    between atoms: N_7  and  C_8
REMARK    5  A    between atoms: C_8  and  C_9
REMARK    6  A    between atoms: C_16  and  O_17
REMARK    7  A    between atoms: O_17  and  C_18
REMARK    8  A    between atoms: C_19  and  O_20
REMARK    9  A    between atoms: O_20  and  C_21
REMARK                            x       y       z     vdW  Elec       q    Type
REMARK                         _______ _______ _______ _____ _____    ______ ____
ROOT
ATOM      1  C   UNL     1       2.207   4.241  17.886  0.00  0.00    +0.000 A 
ATOM      2  C   UNL     1       2.107   5.624  18.090  0.00  0.00    +0.000 A 
ATOM      3  C   UNL     1       3.204   6.448  17.863  0.00  0.00    +0.000 A 
ATOM      4  C   UNL     1       4.438   5.895  17.579  0.00  0.00    +0.000 A 
ATOM      5  C   UNL     1       4.581   4.500  17.486  0.00  0.00    +0.000 A 
ATOM      6  C   UNL     1       3.463   3.650  17.635  0.00  0.00    +0.000 A 
ENDROOT
BRANCH   1   8
ATOM      7  C   UNL     1       0.690   3.028  19.239  0.00  0.00    +0.000 C 
ATOM      8  O   UNL     1       1.066   3.474  17.927  0.00  0.00    +0.000 OA
ENDBRANCH   1   8
BRANCH   3   9
ATOM      9  C   UNL     1       3.025   7.916  17.840  0.00  0.00    +0.000 C 
ATOM     10  N   UNL     1       1.911   8.440  18.195  0.00  0.00    +0.000 NA
BRANCH  10  11
ATOM     11  C   UNL     1       1.824   9.898  18.133  0.00  0.00    +0.000 C 
BRANCH  11  12
ATOM     12  C   UNL     1       0.414  10.355  18.374  0.00  0.00    +0.000 A 
ATOM     13  C   UNL     1      -0.672   9.778  17.714  0.00  0.00    +0.000 A 
ATOM     14  C   UNL     1      -1.958  10.247  17.966  0.00  0.00    +0.000 A 
ATOM     15  C   UNL     1      -2.116  11.279  18.878  0.00  0.00    +0.000 A 
ATOM     16  N   UNL     1      -1.093  11.862  19.537  0.00  0.00    +0.000 NA
ATOM     17  C   UNL     1       0.146  11.390  19.266  0.00  0.00    +0.000 A 
ENDBRANCH  11  12
ENDBRANCH  10  11
ENDBRANCH   3   9
BRANCH   5  18
ATOM     18  O   UNL     1       5.887   4.166  17.199  0.00  0.00    +0.000 OA
ATOM     19  C   UNL     1       6.355   4.237  15.861  0.00  0.00    +0.000 C 
ENDBRANCH   5  18
BRANCH   6  20
ATOM     20  O   UNL     1       3.722   2.316  17.506  0.00  0.00    +0.000 OA
ATOM     21  C   UNL     1       3.819   1.455  18.625  0.00  0.00    +0.000 C 
ENDBRANCH   6  20
TORSDOF 6
ENDMDL
MODEL 4
REMARK VINA RESULT:      -6.2      2.070      2.521
REMARK  Name = 
REMARK  9 active torsions:
REMARK  status: ('A' for Active; 'I' for Inactive)
REMARK    1  A    between atoms: C_1  and  O_2
REMARK    2  A    between atoms: O_2  and  C_3
REMARK    3  A    between atoms: C_5  and  C_6
REMARK    4  A    between atoms: N_7  and  C_8
REMARK    5  A    between atoms: C_8  and  C_9
REMARK    6  A    between atoms: C_16  and  O_17
REMARK    7  A    between atoms: O_17  and  C_18
REMARK    8  A    between atoms: C_19  and  O_20
REMARK    9  A    between atoms: O_20  and  C_21
REMARK                            x       y       z     vdW  Elec       q    Type
REMARK                         _______ _______ _______ _____ _____    ______ ____
ROOT
ATOM      1  C   UNL     1       5.054   4.720  18.446  0.00  0.00    +0.000 A 
ATOM      2  C   UNL     1       4.722   6.023  18.049  0.00  0.00    +0.000 A 
ATOM      3  C   UNL     1       3.392   6.430  18.019  0.00  0.00    +0.000 A 
ATOM      4  C   UNL     1       2.382   5.513  18.238  0.00  0.00    +0.000 A 
ATOM      5  C   UNL     1       2.697   4.174  18.523  0.00  0.00    +0.000 A 
ATOM      6  C   UNL     1       4.041   3.757  18.636  0.00  0.00    +0.000 A 
ENDROOT
BRANCH   1   8
ATOM      7  C   UNL     1       7.281   5.511  18.572  0.00  0.00    +0.000 C 
ATOM      8  O   UNL     1       6.376   4.400  18.655  0.00  0.00    +0.000 OA
ENDBRANCH   1   8
BRANCH   3   9
ATOM      9  C   UNL     1       3.069   7.862  17.840  0.00  0.00    +0.000 C 
ATOM     10  N   UNL     1       1.889   8.298  18.086  0.00  0.00    +0.000 NA
BRANCH  10  11
ATOM     11  C   UNL     1       1.660   9.726  17.875  0.00  0.00    +0.000 C 
BRANCH  11  12
ATOM     12  C   UNL     1       0.772  10.285  18.950  0.00  0.00    +0.000 A 
ATOM     13  C   UNL     1      -0.075  11.369  18.719  0.00  0.00    +0.000 A 
ATOM     14  C   UNL     1      -0.868  11.854  19.754  0.00  0.00    +0.000 A 
ATOM     15  C   UNL     1      -0.790  11.233  20.990  0.00  0.00    +0.000 A 
ATOM     16  N   UNL     1       0.013  10.182  21.253  0.00  0.00    +0.000 NA
ATOM     17  C   UNL     1       0.778   9.737  20.230  0.00  0.00    +0.000 A 
ENDBRANCH  11  12
ENDBRANCH  10  11
ENDBRANCH   3   9
BRANCH   5  18
ATOM     18  O   UNL     1       1.546   3.436  18.703  0.00  0.00    +0.000 OA
ATOM     19  C   UNL     1       0.938   3.380  19.984  0.00  0.00    +0.000 C 
ENDBRANCH   5  18
BRANCH   6  20
ATOM     20  O   UNL     1       4.221   2.437  18.934  0.00  0.00    +0.000 OA
ATOM     21  C   UNL     1       4.473   1.989  20.252  0.00  0.00    +0.000 C 
ENDBRANCH   6  20
TORSDOF 6
ENDMDL
MODEL 5
REMARK VINA RESULT:      -6.2      1.609      3.324
REMARK  Name = 
REMARK  9 active torsions:
REMARK  status: ('A' for Active; 'I' for Inactive)
REMARK    1  A    between atoms: C_1  and  O_2
REMARK    2  A    between atoms: O_2  and  C_3
REMARK    3  A    between atoms: C_5  and  C_6
REMARK    4  A    between atoms: N_7  and  C_8
REMARK    5  A    between atoms: C_8  and  C_9
REMARK    6  A    between atoms: C_16  and  O_17
REMARK    7  A    between atoms: O_17  and  C_18
REMARK    8  A    between atoms: C_19  and  O_20
REMARK    9  A    between atoms: O_20  and  C_21
REMARK                            x       y       z     vdW  Elec       q    Type
REMARK                         _______ _______ _______ _____ _____    ______ ____
ROOT
ATOM      1  C   UNL     1       2.539   4.067  19.143  0.00  0.00    +0.000 A 
ATOM      2  C   UNL     1       2.284   5.418  18.873  0.00  0.00    +0.000 A 
ATOM      3  C   UNL     1       3.298   6.242  18.396  0.00  0.00    +0.000 A 
ATOM      4  C   UNL     1       4.595   5.773  18.324  0.00  0.00    +0.000 A 
ATOM      5  C   UNL     1       4.888   4.453  18.702  0.00  0.00    +0.000 A 
ATOM      6  C   UNL     1       3.861   3.575  19.115  0.00  0.00    +0.000 A 
ENDROOT
BRANCH   1   8
ATOM      7  C   UNL     1       1.178   3.103  20.822  0.00  0.00    +0.000 C 
ATOM      8  O   UNL     1       1.485   3.230  19.426  0.00  0.00    +0.000 OA
ENDBRANCH   1   8
BRANCH   3   9
ATOM      9  C   UNL     1       2.966   7.590  17.883  0.00  0.00    +0.000 C 
ATOM     10  N   UNL     1       2.151   8.345  18.522  0.00  0.00    +0.000 NA
BRANCH  10  11
ATOM     11  C   UNL     1       1.877   9.656  17.936  0.00  0.00    +0.000 C 
BRANCH  11  12
ATOM     12  C   UNL     1       0.640  10.257  18.539  0.00  0.00    +0.000 A 
ATOM     13  C   UNL     1      -0.610  10.143  17.928  0.00  0.00    +0.000 A 
ATOM     14  C   UNL     1      -1.722  10.729  18.524  0.00  0.00    +0.000 A 
ATOM     15  C   UNL     1      -1.548  11.409  19.719  0.00  0.00    +0.000 A 
ATOM     16  N   UNL     1      -0.359  11.540  20.342  0.00  0.00    +0.000 NA
ATOM     17  C   UNL     1       0.706  10.966  19.735  0.00  0.00    +0.000 A 
ENDBRANCH  11  12
ENDBRANCH  10  11
ENDBRANCH   3   9
BRANCH   5  18
ATOM     18  O   UNL     1       6.235   4.196  18.556  0.00  0.00    +0.000 OA
ATOM     19  C   UNL     1       6.882   4.501  17.330  0.00  0.00    +0.000 C 
ENDBRANCH   5  18
BRANCH   6  20
ATOM     20  O   UNL     1       4.266   2.313  19.440  0.00  0.00    +0.000 OA
ATOM     21  C   UNL     1       3.925   1.186  18.655  0.00  0.00    +0.000 C 
ENDBRANCH   6  20
TORSDOF 6
ENDMDL
MODEL 6
REMARK VINA RESULT:      -6.2      2.222      3.897
REMARK  Name = 
REMARK  9 active torsions:
REMARK  status: ('A' for Active; 'I' for Inactive)
REMARK    1  A    between atoms: C_1  and  O_2
REMARK    2  A    between atoms: O_2  and  C_3
REMARK    3  A    between atoms: C_5  and  C_6
REMARK    4  A    between atoms: N_7  and  C_8
REMARK    5  A    between atoms: C_8  and  C_9
REMARK    6  A    between atoms: C_16  and  O_17
REMARK    7  A    between atoms: O_17  and  C_18
REMARK    8  A    between atoms: C_19  and  O_20
REMARK    9  A    between atoms: O_20  and  C_21
REMARK                            x       y       z     vdW  Elec       q    Type
REMARK                         _______ _______ _______ _____ _____    ______ ____
ROOT
ATOM      1  C   UNL     1       2.954   4.417  20.127  0.00  0.00    +0.000 A 
ATOM      2  C   UNL     1       2.483   5.737  20.096  0.00  0.00    +0.000 A 
ATOM      3  C   UNL     1       2.617   6.502  18.942  0.00  0.00    +0.000 A 
ATOM      4  C   UNL     1       3.343   6.019  17.871  0.00  0.00    +0.000 A 
ATOM      5  C   UNL     1       3.921   4.740  17.931  0.00  0.00    +0.000 A 
ATOM      6  C   UNL     1       3.731   3.916  19.062  0.00  0.00    +0.000 A 
ENDROOT
BRANCH   1   8
ATOM      7  C   UNL     1       1.305   3.093  21.189  0.00  0.00    +0.000 C 
ATOM      8  O   UNL     1       2.640   3.619  21.203  0.00  0.00    +0.000 OA
ENDBRANCH   1   8
BRANCH   3   9
ATOM      9  C   UNL     1       1.905   7.795  18.835  0.00  0.00    +0.000 C 
ATOM     10  N   UNL     1       1.747   8.537  19.867  0.00  0.00    +0.000 NA
BRANCH  10  11
ATOM     11  C   UNL     1       1.025   9.793  19.667  0.00  0.00    +0.000 C 
BRANCH  11  12
ATOM     12  C   UNL     1       0.247  10.158  20.899  0.00  0.00    +0.000 A 
ATOM     13  C   UNL     1       0.284   9.377  22.054  0.00  0.00    +0.000 A 
ATOM     14  C   UNL     1      -0.465   9.755  23.164  0.00  0.00    +0.000 A 
ATOM     15  C   UNL     1      -1.226  10.911  23.082  0.00  0.00    +0.000 A 
ATOM     16  N   UNL     1      -1.286  11.694  21.986  0.00  0.00    +0.000 NA
ATOM     17  C   UNL     1      -0.554  11.297  20.920  0.00  0.00    +0.000 A 
ENDBRANCH  11  12
ENDBRANCH  10  11
ENDBRANCH   3   9
BRANCH   5  18
ATOM     18  O   UNL     1       4.598   4.461  16.764  0.00  0.00    +0.000 OA
ATOM     19  C   UNL     1       5.156   5.520  16.000  0.00  0.00    +0.000 C 
ENDBRANCH   5  18
BRANCH   6  20
ATOM     20  O   UNL     1       4.327   2.689  18.998  0.00  0.00    +0.000 OA
ATOM     21  C   UNL     1       3.664   1.556  18.468  0.00  0.00    +0.000 C 
ENDBRANCH   6  20
TORSDOF 6
ENDMDL
MODEL 7
REMARK VINA RESULT:      -6.2      2.532      3.785
REMARK  Name = 
REMARK  9 active torsions:
REMARK  status: ('A' for Active; 'I' for Inactive)
REMARK    1  A    between atoms: C_1  and  O_2
REMARK    2  A    between atoms: O_2  and  C_3
REMARK    3  A    between atoms: C_5  and  C_6
REMARK    4  A    between atoms: N_7  and  C_8
REMARK    5  A    between atoms: C_8  and  C_9
REMARK    6  A    between atoms: C_16  and  O_17
REMARK    7  A    between atoms: O_17  and  C_18
REMARK    8  A    between atoms: C_19  and  O_20
REMARK    9  A    between atoms: O_20  and  C_21
REMARK                            x       y       z     vdW  Elec       q    Type
REMARK                         _______ _______ _______ _____ _____    ______ ____
ROOT
ATOM      1  C   UNL     1       2.247   4.162  17.889  0.00  0.00    +0.000 A 
ATOM      2  C   UNL     1       2.132   5.542  18.108  0.00  0.00    +0.000 A 
ATOM      3  C   UNL     1       3.224   6.379  17.903  0.00  0.00    +0.000 A 
ATOM      4  C   UNL     1       4.466   5.840  17.625  0.00  0.00    +0.000 A 
ATOM      5  C   UNL     1       4.622   4.448  17.517  0.00  0.00    +0.000 A 
ATOM      6  C   UNL     1       3.511   3.586  17.644  0.00  0.00    +0.000 A 
ENDROOT
BRANCH   1   8
ATOM      7  C   UNL     1       0.698   2.963  19.216  0.00  0.00    +0.000 C 
ATOM      8  O   UNL     1       1.112   3.385  17.909  0.00  0.00    +0.000 OA
ENDBRANCH   1   8
BRANCH   3   9
ATOM      9  C   UNL     1       3.032   7.845  17.895  0.00  0.00    +0.000 C 
ATOM     10  N   UNL     1       1.861   8.348  18.029  0.00  0.00    +0.000 NA
BRANCH  10  11
ATOM     11  C   UNL     1       1.767   9.806  18.002  0.00  0.00    +0.000 C 
BRANCH  11  12
ATOM     12  C   UNL     1       1.120  10.318  19.258  0.00  0.00    +0.000 A 
ATOM     13  C   UNL     1       0.503   9.464  20.172  0.00  0.00    +0.000 A 
ATOM     14  C   UNL     1      -0.092   9.992  21.313  0.00  0.00    +0.000 A 
ATOM     15  C   UNL     1      -0.045  11.364  21.506  0.00  0.00    +0.000 A 
ATOM     16  N   UNL     1       0.543  12.223  20.648  0.00  0.00    +0.000 NA
ATOM     17  C   UNL     1       1.106  11.681  19.543  0.00  0.00    +0.000 A 
ENDBRANCH  11  12
ENDBRANCH  10  11
ENDBRANCH   3   9
BRANCH   5  18
ATOM     18  O   UNL     1       5.934   4.129  17.240  0.00  0.00    +0.000 OA
ATOM     19  C   UNL     1       6.531   4.582  16.034  0.00  0.00    +0.000 C 
ENDBRANCH   5  18
BRANCH   6  20
ATOM     20  O   UNL     1       3.783   2.256  17.502  0.00  0.00    +0.000 OA
ATOM     21  C   UNL     1       3.834   1.374  18.609  0.00  0.00    +0.000 C 
ENDBRANCH   6  20
TORSDOF 6
ENDMDL
MODEL 8
REMARK VINA RESULT:      -6.2      1.236      1.268
REMARK  Name = 
REMARK  9 active torsions:
REMARK  status: ('A' for Active; 'I' for Inactive)
REMARK    1  A    between atoms: C_1  and  O_2
REMARK    2  A    between atoms: O_2  and  C_3
REMARK    3  A    between atoms: C_5  and  C_6
REMARK    4  A    between atoms: N_7  and  C_8
REMARK    5  A    between atoms: C_8  and  C_9
REMARK    6  A    between atoms: C_16  and  O_17
REMARK    7  A    between atoms: O_17  and  C_18
REMARK    8  A    between atoms: C_19  and  O_20
REMARK    9  A    between atoms: O_20  and  C_21
REMARK                            x       y       z     vdW  Elec       q    Type
REMARK                         _______ _______ _______ _____ _____    ______ ____
ROOT
ATOM      1  C   UNL     1       4.680   5.251  17.758  0.00  0.00    +0.000 A 
ATOM      2  C   UNL     1       4.272   6.574  17.536  0.00  0.00    +0.000 A 
ATOM      3  C   UNL     1       3.002   6.990  17.921  0.00  0.00    +0.000 A 
ATOM      4  C   UNL     1       2.084   6.070  18.389  0.00  0.00    +0.000 A 
ATOM      5  C   UNL     1       2.441   4.716  18.507  0.00  0.00    +0.000 A 
ATOM      6  C   UNL     1       3.749   4.286  18.197  0.00  0.00    +0.000 A 
ENDROOT
BRANCH   1   8
ATOM      7  C   UNL     1       6.878   6.030  17.359  0.00  0.00    +0.000 C 
ATOM      8  O   UNL     1       5.997   4.913  17.550  0.00  0.00    +0.000 OA
ENDBRANCH   1   8
BRANCH   3   9
ATOM      9  C   UNL     1       2.669   8.431  17.911  0.00  0.00    +0.000 C 
ATOM     10  N   UNL     1       1.649   8.868  18.553  0.00  0.00    +0.000 NA
BRANCH  10  11
ATOM     11  C   UNL     1       1.395  10.305  18.481  0.00  0.00    +0.000 C 
BRANCH  11  12
ATOM     12  C   UNL     1      -0.081  10.579  18.424  0.00  0.00    +0.000 A 
ATOM     13  C   UNL     1      -0.938   9.844  17.604  0.00  0.00    +0.000 A 
ATOM     14  C   UNL     1      -2.295  10.147  17.582  0.00  0.00    +0.000 A 
ATOM     15  C   UNL     1      -2.754  11.178  18.387  0.00  0.00    +0.000 A 
ATOM     16  N   UNL     1      -1.959  11.910  19.195  0.00  0.00    +0.000 NA
ATOM     17  C   UNL     1      -0.643  11.597  19.190  0.00  0.00    +0.000 A 
ENDBRANCH  11  12
ENDBRANCH  10  11
ENDBRANCH   3   9
BRANCH   5  18
ATOM     18  O   UNL     1       1.381   3.977  18.988  0.00  0.00    +0.000 OA
ATOM     19  C   UNL     1       1.053   4.030  20.368  0.00  0.00    +0.000 C 
ENDBRANCH   5  18
BRANCH   6  20
ATOM     20  O   UNL     1       3.983   2.952  18.368  0.00  0.00    +0.000 OA
ATOM     21  C   UNL     1       4.385   2.410  19.612  0.00  0.00    +0.000 C 
ENDBRANCH   6  20
TORSDOF 6
ENDMDL
MODEL 9
REMARK VINA RESULT:      -6.2      0.792      2.804
REMARK  Name = 
REMARK  9 active torsions:
REMARK  status: ('A' for Active; 'I' for Inactive)
REMARK    1  A    between atoms: C_1  and  O_2
REMARK    2  A    between atoms: O_2  and  C_3
REMARK    3  A    between atoms: C_5  and  C_6
REMARK    4  A    between atoms: N_7  and  C_8
REMARK    5  A    between atoms: C_8  and  C_9
REMARK    6  A    between atoms: C_16  and  O_17
REMARK    7  A    between atoms: O_17  and  C_18
REMARK    8  A    between atoms: C_19  and  O_20
REMARK    9  A    between atoms: O_20  and  C_21
REMARK                            x       y       z     vdW  Elec       q    Type
REMARK                         _______ _______ _______ _____ _____    ______ ____
ROOT
ATOM      1  C   UNL     1       2.507   5.502  19.897  0.00  0.00    +0.000 A 
ATOM      2  C   UNL     1       1.973   6.767  20.179  0.00  0.00    +0.000 A 
ATOM      3  C   UNL     1       2.129   7.812  19.275  0.00  0.00    +0.000 A 
ATOM      4  C   UNL     1       2.934   7.652  18.164  0.00  0.00    +0.000 A 
ATOM      5  C   UNL     1       3.572   6.423  17.927  0.00  0.00    +0.000 A 
ATOM      6  C   UNL     1       3.364   5.325  18.790  0.00  0.00    +0.000 A 
ENDROOT
BRANCH   1   8
ATOM      7  C   UNL     1       0.955   3.775  20.353  0.00  0.00    +0.000 C 
ATOM      8  O   UNL     1       2.176   4.440  20.706  0.00  0.00    +0.000 OA
ENDBRANCH   1   8
BRANCH   3   9
ATOM      9  C   UNL     1       1.361   9.062  19.461  0.00  0.00    +0.000 C 
ATOM     10  N   UNL     1       1.031   9.779  18.451  0.00  0.00    +0.000 NA
BRANCH  10  11
ATOM     11  C   UNL     1       0.278  11.000  18.732  0.00  0.00    +0.000 C 
BRANCH  11  12
ATOM     12  C   UNL     1      -1.154  10.849  18.306  0.00  0.00    +0.000 A 
ATOM     13  C   UNL     1      -1.550   9.890  17.373  0.00  0.00    +0.000 A 
ATOM     14  C   UNL     1      -2.889   9.801  17.005  0.00  0.00    +0.000 A 
ATOM     15  C   UNL     1      -3.792  10.675  17.589  0.00  0.00    +0.000 A 
ATOM     16  N   UNL     1      -3.451  11.613  18.495  0.00  0.00    +0.000 NA
ATOM     17  C   UNL     1      -2.141  11.681  18.828  0.00  0.00    +0.000 A 
ENDBRANCH  11  12
ENDBRANCH  10  11
ENDBRANCH   3   9
BRANCH   5  18
ATOM     18  O   UNL     1       4.323   6.482  16.773  0.00  0.00    +0.000 OA
ATOM     19  C   UNL     1       5.706   6.794  16.847  0.00  0.00    +0.000 C 
ENDBRANCH   5  18
BRANCH   6  20
ATOM     20  O   UNL     1       4.022   4.178  18.448  0.00  0.00    +0.000 OA
ATOM     21  C   UNL     1       3.451   3.208  17.591  0.00  0.00    +0.000 C 
ENDBRANCH   6  20
TORSDOF 6
ENDMDL
