MODEL 1
REMARK VINA RESULT:      -7.1      0.000      0.000
REMARK  Name = 
REMARK  5 active torsions:
REMARK  status: ('A' for Active; 'I' for Inactive)
REMARK    1  A    between atoms: C_1  and  O_2
REMARK    2  A    between atoms: O_2  and  C_3
REMARK    3  A    between atoms: C_5  and  C_6
REMARK    4  A    between atoms: C_6  and  N_7
REMARK    5  A    between atoms: C_8  and  C_10
REMARK                            x       y       z     vdW  Elec       q    Type
REMARK                         _______ _______ _______ _____ _____    ______ ____
ROOT
ATOM      1  C   UNL     1       2.596   7.525  18.316  0.00  0.00    +0.000 A 
ATOM      2  N   UNL     1       3.792   7.741  17.774  0.00  0.00    +0.000 NA
ATOM      3  C   UNL     1       4.567   6.665  17.730  0.00  0.00    +0.000 A 
ATOM      4  N   UNL     1       4.195   5.454  18.144  0.00  0.00    +0.000 NA
ATOM      5  C   UNL     1       2.970   5.332  18.652  0.00  0.00    +0.000 A 
ATOM      6  N   UNL     1       2.565   4.092  19.068  0.00  0.00    +0.000 N 
ATOM      7  C   UNL     1       1.200   3.840  19.528  0.00  0.00    +0.000 C 
ATOM      8  C   UNL     1       1.209   3.353  20.985  0.00  0.00    +0.000 C 
ATOM      9  O   UNL     1       2.096   2.236  21.165  0.00  0.00    +0.000 OA
ATOM     10  C   UNL     1       3.439   2.607  20.815  0.00  0.00    +0.000 C 
ATOM     11  C   UNL     1       3.539   3.038  19.343  0.00  0.00    +0.000 C 
ATOM     12  N   UNL     1       2.135   6.357  18.749  0.00  0.00    +0.000 NA
ENDROOT
BRANCH   1  14
ATOM     13  C   UNL     1       1.361   8.799  19.838  0.00  0.00    +0.000 C 
ATOM     14  O   UNL     1       1.718   8.576  18.479  0.00  0.00    +0.000 OA
ENDBRANCH   1  14
BRANCH   3  15
ATOM     15  C   UNL     1       5.932   6.786  17.096  0.00  0.00    +0.000 C 
BRANCH  15  16
ATOM     16  N   UNL     1       5.985   6.208  15.765  0.00  0.00    +0.000 N 
ATOM     17  C   UNL     1       6.826   5.153  15.498  0.00  0.00    +0.000 C 
ATOM     18  O   UNL     1       7.565   4.676  16.353  0.00  0.00    +0.000 OA
ATOM     19  H   UNL     1       5.289   6.495  15.097  0.00  0.00    +0.000 HD
BRANCH  17  20
ATOM     20  C   UNL     1       6.778   4.641  14.125  0.00  0.00    +0.000 A 
ATOM     21  C   UNL     1       7.605   5.000  13.004  0.00  0.00    +0.000 A 
ATOM     22  C   UNL     1       7.290   4.305  11.857  0.00  0.00    +0.000 A 
ATOM     23  S   UNL     1       6.002   3.214  12.103  0.00  0.00    +0.000 S 
ATOM     24  C   UNL     1       5.865   3.668  13.746  0.00  0.00    +0.000 A 
ENDBRANCH  17  20
ENDBRANCH  15  16
ENDBRANCH   3  15
TORSDOF 4
ENDMDL
MODEL 2
REMARK VINA RESULT:      -7.1      3.750      7.332
REMARK  Name = 
REMARK  5 active torsions:
REMARK  status: ('A' for Active; 'I' for Inactive)
REMARK    1  A    between atoms: C_1  and  O_2
REMARK    2  A    between atoms: O_2  and  C_3
REMARK    3  A    between atoms: C_5  and  C_6
REMARK    4  A    between atoms: C_6  and  N_7
REMARK    5  A    between atoms: C_8  and  C_10
REMARK                            x       y       z     vdW  Elec       q    Type
REMARK                         _______ _______ _______ _____ _____    ______ ____
ROOT
ATOM      1  C   UNL     1       4.819   6.577  17.122  0.00  0.00    +0.000 A 
ATOM      2  N   UNL     1       4.070   7.677  17.124  0.00  0.00    +0.000 NA
ATOM      3  C   UNL     1       2.928   7.551  17.789  0.00  0.00    +0.000 A 
ATOM      4  N   UNL     1       2.556   6.450  18.441  0.00  0.00    +0.000 NA
ATOM      5  C   UNL     1       3.383   5.407  18.399  0.00  0.00    +0.000 A 
ATOM      6  N   UNL     1       3.024   4.272  19.076  0.00  0.00    +0.000 N 
ATOM      7  C   UNL     1       3.921   3.122  19.185  0.00  0.00    +0.000 C 
ATOM      8  C   UNL     1       3.278   1.882  18.547  0.00  0.00    +0.000 C 
ATOM      9  O   UNL     1       1.959   1.639  19.069  0.00  0.00    +0.000 OA
ATOM     10  C   UNL     1       1.107   2.765  18.805  0.00  0.00    +0.000 C 
ATOM     11  C   UNL     1       1.637   4.043  19.475  0.00  0.00    +0.000 C 
ATOM     12  N   UNL     1       4.536   5.439  17.746  0.00  0.00    +0.000 NA
ENDROOT
BRANCH   1  14
ATOM     13  C   UNL     1       6.763   5.375  16.633  0.00  0.00    +0.000 C 
ATOM     14  O   UNL     1       6.001   6.556  16.413  0.00  0.00    +0.000 OA
ENDBRANCH   1  14
BRANCH   3  15
ATOM     15  C   UNL     1       2.018   8.752  17.891  0.00  0.00    +0.000 C 
BRANCH  15  16
ATOM     16  N   UNL     1       1.502   8.950  19.234  0.00  0.00    +0.000 N 
ATOM     17  C   UNL     1       0.584   9.943  19.487  0.00  0.00    +0.000 C 
ATOM     18  O   UNL     1       0.184  10.700  18.608  0.00  0.00    +0.000 OA
ATOM     19  H   UNL     1       1.713   8.254  19.929  0.00  0.00    +0.000 HD
BRANCH  17  20
ATOM     20  C   UNL     1       0.121  10.034  20.875  0.00  0.00    +0.000 A 
ATOM     21  C   UNL     1       0.399   9.148  21.973  0.00  0.00    +0.000 A 
ATOM     22  C   UNL     1      -0.193   9.547  23.151  0.00  0.00    +0.000 A 
ATOM     23  S   UNL     1      -1.089  10.986  22.962  0.00  0.00    +0.000 S 
ATOM     24  C   UNL     1      -0.684  11.078  21.303  0.00  0.00    +0.000 A 
ENDBRANCH  17  20
ENDBRANCH  15  16
ENDBRANCH   3  15
TORSDOF 4
ENDMDL
MODEL 3
REMARK VINA RESULT:      -7.1      3.521      7.582
REMARK  Name = 
REMARK  5 active torsions:
REMARK  status: ('A' for Active; 'I' for Inactive)
REMARK    1  A    between atoms: C_1  and  O_2
REMARK    2  A    between atoms: O_2  and  C_3
REMARK    3  A    between atoms: C_5  and  C_6
REMARK    4  A    between atoms: C_6  and  N_7
REMARK    5  A    between atoms: C_8  and  C_10
REMARK                            x       y       z     vdW  Elec       q    Type
REMARK                         _______ _______ _______ _____ _____    ______ ____
ROOT
ATOM      1  C   UNL     1       2.319   4.010  18.023  0.00  0.00    +0.000 A 
ATOM      2  N   UNL     1       1.879   4.714  19.062  0.00  0.00    +0.000 NA
ATOM      3  C   UNL     1       2.553   5.836  19.279  0.00  0.00    +0.000 A 
ATOM      4  N   UNL     1       3.558   6.267  18.517  0.00  0.00    +0.000 NA
ATOM      5  C   UNL     1       3.914   5.503  17.485  0.00  0.00    +0.000 A 
ATOM      6  N   UNL     1       4.934   5.938  16.682  0.00  0.00    +0.000 N 
ATOM      7  C   UNL     1       5.312   5.227  15.462  0.00  0.00    +0.000 C 
ATOM      8  C   UNL     1       6.769   4.748  15.553  0.00  0.00    +0.000 C 
ATOM      9  O   UNL     1       7.660   5.825  15.896  0.00  0.00    +0.000 OA
ATOM     10  C   UNL     1       7.297   6.382  17.170  0.00  0.00    +0.000 C 
ATOM     11  C   UNL     1       5.872   6.957  17.147  0.00  0.00    +0.000 C 
ATOM     12  N   UNL     1       3.305   4.360  17.205  0.00  0.00    +0.000 NA
ENDROOT
BRANCH   1  14
ATOM     13  C   UNL     1       0.888   2.315  18.760  0.00  0.00    +0.000 C 
ATOM     14  O   UNL     1       1.745   2.791  17.729  0.00  0.00    +0.000 OA
ENDBRANCH   1  14
BRANCH   3  15
ATOM     15  C   UNL     1       2.112   6.736  20.409  0.00  0.00    +0.000 C 
BRANCH  15  16
ATOM     16  N   UNL     1       1.574   8.000  19.940  0.00  0.00    +0.000 N 
ATOM     17  C   UNL     1       1.128   8.942  20.838  0.00  0.00    +0.000 C 
ATOM     18  O   UNL     1       1.150   8.749  22.049  0.00  0.00    +0.000 OA
ATOM     19  H   UNL     1       1.679   8.226  18.965  0.00  0.00    +0.000 HD
BRANCH  17  20
ATOM     20  C   UNL     1       0.626  10.187  20.248  0.00  0.00    +0.000 A 
ATOM     21  C   UNL     1      -0.009  10.383  18.972  0.00  0.00    +0.000 A 
ATOM     22  C   UNL     1      -0.369  11.693  18.745  0.00  0.00    +0.000 A 
ATOM     23  S   UNL     1       0.045  12.707  20.052  0.00  0.00    +0.000 S 
ATOM     24  C   UNL     1       0.705  11.393  20.927  0.00  0.00    +0.000 A 
ENDBRANCH  17  20
ENDBRANCH  15  16
ENDBRANCH   3  15
TORSDOF 4
ENDMDL
MODEL 4
REMARK VINA RESULT:      -6.9      3.986      7.042
REMARK  Name = 
REMARK  5 active torsions:
REMARK  status: ('A' for Active; 'I' for Inactive)
REMARK    1  A    between atoms: C_1  and  O_2
REMARK    2  A    between atoms: O_2  and  C_3
REMARK    3  A    between atoms: C_5  and  C_6
REMARK    4  A    between atoms: C_6  and  N_7
REMARK    5  A    between atoms: C_8  and  C_10
REMARK                            x       y       z     vdW  Elec       q    Type
REMARK                         _______ _______ _______ _____ _____    ______ ____
ROOT
ATOM      1  C   UNL     1       3.815   7.162  17.141  0.00  0.00    +0.000 A 
ATOM      2  N   UNL     1       3.162   8.305  17.338  0.00  0.00    +0.000 NA
ATOM      3  C   UNL     1       2.351   8.289  18.388  0.00  0.00    +0.000 A 
ATOM      4  N   UNL     1       2.212   7.253  19.214  0.00  0.00    +0.000 NA
ATOM      5  C   UNL     1       2.924   6.159  18.947  0.00  0.00    +0.000 A 
ATOM      6  N   UNL     1       2.806   5.090  19.795  0.00  0.00    +0.000 N 
ATOM      7  C   UNL     1       3.636   3.895  19.649  0.00  0.00    +0.000 C 
ATOM      8  C   UNL     1       2.756   2.662  19.394  0.00  0.00    +0.000 C 
ATOM      9  O   UNL     1       1.723   2.533  20.388  0.00  0.00    +0.000 OA
ATOM     10  C   UNL     1       0.875   3.692  20.375  0.00  0.00    +0.000 C 
ATOM     11  C   UNL     1       1.664   4.971  20.698  0.00  0.00    +0.000 C 
ATOM     12  N   UNL     1       3.747   6.082  17.911  0.00  0.00    +0.000 NA
ENDROOT
BRANCH   1  14
ATOM     13  C   UNL     1       5.565   5.953  16.173  0.00  0.00    +0.000 C 
ATOM     14  O   UNL     1       4.641   7.026  16.046  0.00  0.00    +0.000 OA
ENDBRANCH   1  14
BRANCH   3  15
ATOM     15  C   UNL     1       1.590   9.548  18.730  0.00  0.00    +0.000 C 
BRANCH  15  16
ATOM     16  N   UNL     1       0.406   9.728  17.909  0.00  0.00    +0.000 N 
ATOM     17  C   UNL     1      -0.754  10.221  18.460  0.00  0.00    +0.000 C 
ATOM     18  O   UNL     1      -0.839  10.508  19.650  0.00  0.00    +0.000 OA
ATOM     19  H   UNL     1       0.503   9.629  16.913  0.00  0.00    +0.000 HD
BRANCH  17  20
ATOM     20  C   UNL     1      -1.876  10.377  17.530  0.00  0.00    +0.000 A 
ATOM     21  C   UNL     1      -2.111   9.696  16.285  0.00  0.00    +0.000 A 
ATOM     22  C   UNL     1      -3.282  10.082  15.672  0.00  0.00    +0.000 A 
ATOM     23  S   UNL     1      -4.119  11.262  16.575  0.00  0.00    +0.000 S 
ATOM     24  C   UNL     1      -2.915  11.257  17.790  0.00  0.00    +0.000 A 
ENDBRANCH  17  20
ENDBRANCH  15  16
ENDBRANCH   3  15
TORSDOF 4
ENDMDL
MODEL 5
REMARK VINA RESULT:      -6.9      4.033      7.591
REMARK  Name = 
REMARK  5 active torsions:
REMARK  status: ('A' for Active; 'I' for Inactive)
REMARK    1  A    between atoms: C_1  and  O_2
REMARK    2  A    between atoms: O_2  and  C_3
REMARK    3  A    between atoms: C_5  and  C_6
REMARK    4  A    between atoms: C_6  and  N_7
REMARK    5  A    between atoms: C_8  and  C_10
REMARK                            x       y       z     vdW  Elec       q    Type
REMARK                         _______ _______ _______ _____ _____    ______ ____
ROOT
ATOM      1  C   UNL     1       2.296   6.542  19.677  0.00  0.00    +0.000 A 
ATOM      2  N   UNL     1       1.888   7.782  19.417  0.00  0.00    +0.000 NA
ATOM      3  C   UNL     1       2.504   8.349  18.388  0.00  0.00    +0.000 A 
ATOM      4  N   UNL     1       3.423   7.744  17.636  0.00  0.00    +0.000 NA
ATOM      5  C   UNL     1       3.752   6.494  17.961  0.00  0.00    +0.000 A 
ATOM      6  N   UNL     1       4.683   5.851  17.191  0.00  0.00    +0.000 N 
ATOM      7  C   UNL     1       5.017   4.442  17.399  0.00  0.00    +0.000 C 
ATOM      8  C   UNL     1       6.504   4.294  17.755  0.00  0.00    +0.000 C 
ATOM      9  O   UNL     1       7.348   4.953  16.795  0.00  0.00    +0.000 OA
ATOM     10  C   UNL     1       7.042   6.356  16.747  0.00  0.00    +0.000 C 
ATOM     11  C   UNL     1       5.586   6.602  16.322  0.00  0.00    +0.000 C 
ATOM     12  N   UNL     1       3.197   5.856  18.983  0.00  0.00    +0.000 NA
ENDROOT
BRANCH   1  14
ATOM     13  C   UNL     1       2.255   4.528  20.861  0.00  0.00    +0.000 C 
ATOM     14  O   UNL     1       1.780   5.865  20.761  0.00  0.00    +0.000 OA
ENDBRANCH   1  14
BRANCH   3  15
ATOM     15  C   UNL     1       2.089   9.742  17.978  0.00  0.00    +0.000 C 
BRANCH  15  16
ATOM     16  N   UNL     1       0.660   9.856  17.752  0.00  0.00    +0.000 N 
ATOM     17  C   UNL     1      -0.111  10.654  18.566  0.00  0.00    +0.000 C 
ATOM     18  O   UNL     1       0.366  11.277  19.508  0.00  0.00    +0.000 OA
ATOM     19  H   UNL     1       0.282   9.465  16.905  0.00  0.00    +0.000 HD
BRANCH  17  20
ATOM     20  C   UNL     1      -1.537  10.706  18.228  0.00  0.00    +0.000 A 
ATOM     21  C   UNL     1      -2.270   9.888  17.299  0.00  0.00    +0.000 A 
ATOM     22  C   UNL     1      -3.609  10.205  17.242  0.00  0.00    +0.000 A 
ATOM     23  S   UNL     1      -4.011  11.483  18.298  0.00  0.00    +0.000 S 
ATOM     24  C   UNL     1      -2.392  11.614  18.835  0.00  0.00    +0.000 A 
ENDBRANCH  17  20
ENDBRANCH  15  16
ENDBRANCH   3  15
TORSDOF 4
ENDMDL
MODEL 6
REMARK VINA RESULT:      -6.9      3.453      7.486
REMARK  Name = 
REMARK  5 active torsions:
REMARK  status: ('A' for Active; 'I' for Inactive)
REMARK    1  A    between atoms: C_1  and  O_2
REMARK    2  A    between atoms: O_2  and  C_3
REMARK    3  A    between atoms: C_5  and  C_6
REMARK    4  A    between atoms: C_6  and  N_7
REMARK    5  A    between atoms: C_8  and  C_10
REMARK                            x       y       z     vdW  Elec       q    Type
REMARK                         _______ _______ _______ _____ _____    ______ ____
ROOT
ATOM      1  C   UNL     1       2.833   3.396  19.016  0.00  0.00    +0.000 A 
ATOM      2  N   UNL     1       2.208   4.157  19.910  0.00  0.00    +0.000 NA
ATOM      3  C   UNL     1       2.522   5.444  19.837  0.00  0.00    +0.000 A 
ATOM      4  N   UNL     1       3.354   5.965  18.935  0.00  0.00    +0.000 NA
ATOM      5  C   UNL     1       3.916   5.125  18.067  0.00  0.00    +0.000 A 
ATOM      6  N   UNL     1       4.762   5.644  17.123  0.00  0.00    +0.000 N 
ATOM      7  C   UNL     1       5.329   4.817  16.058  0.00  0.00    +0.000 C 
ATOM      8  C   UNL     1       6.863   4.810  16.150  0.00  0.00    +0.000 C 
ATOM      9  O   UNL     1       7.398   6.144  16.196  0.00  0.00    +0.000 OA
ATOM     10  C   UNL     1       6.890   6.843  17.344  0.00  0.00    +0.000 C 
ATOM     11  C   UNL     1       5.359   6.966  17.296  0.00  0.00    +0.000 C 
ATOM     12  N   UNL     1       3.671   3.822  18.077  0.00  0.00    +0.000 NA
ENDROOT
BRANCH   1  14
ATOM     13  C   UNL     1       3.641   1.321  18.305  0.00  0.00    +0.000 C 
ATOM     14  O   UNL     1       2.643   2.030  19.027  0.00  0.00    +0.000 OA
ENDBRANCH   1  14
BRANCH   3  15
ATOM     15  C   UNL     1       1.838   6.407  20.778  0.00  0.00    +0.000 C 
BRANCH  15  16
ATOM     16  N   UNL     1       1.857   7.775  20.290  0.00  0.00    +0.000 N 
ATOM     17  C   UNL     1       0.895   8.671  20.695  0.00  0.00    +0.000 C 
ATOM     18  O   UNL     1      -0.011   8.353  21.459  0.00  0.00    +0.000 OA
ATOM     19  H   UNL     1       2.667   8.083  19.779  0.00  0.00    +0.000 HD
BRANCH  17  20
ATOM     20  C   UNL     1       1.029  10.027  20.152  0.00  0.00    +0.000 A 
ATOM     21  C   UNL     1       1.336  10.427  18.805  0.00  0.00    +0.000 A 
ATOM     22  C   UNL     1       1.369  11.794  18.644  0.00  0.00    +0.000 A 
ATOM     23  S   UNL     1       1.031  12.619  20.098  0.00  0.00    +0.000 S 
ATOM     24  C   UNL     1       0.839  11.147  20.947  0.00  0.00    +0.000 A 
ENDBRANCH  17  20
ENDBRANCH  15  16
ENDBRANCH   3  15
TORSDOF 4
ENDMDL
MODEL 7
REMARK VINA RESULT:      -6.7      3.380      4.492
REMARK  Name = 
REMARK  5 active torsions:
REMARK  status: ('A' for Active; 'I' for Inactive)
REMARK    1  A    between atoms: C_1  and  O_2
REMARK    2  A    between atoms: O_2  and  C_3
REMARK    3  A    between atoms: C_5  and  C_6
REMARK    4  A    between atoms: C_6  and  N_7
REMARK    5  A    between atoms: C_8  and  C_10
REMARK                            x       y       z     vdW  Elec       q    Type
REMARK                         _______ _______ _______ _____ _____    ______ ____
ROOT
ATOM      1  C   UNL     1       3.096   7.359  18.158  0.00  0.00    +0.000 A 
ATOM      2  N   UNL     1       4.325   7.607  17.713  0.00  0.00    +0.000 NA
ATOM      3  C   UNL     1       4.984   6.526  17.318  0.00  0.00    +0.000 A 
ATOM      4  N   UNL     1       4.475   5.294  17.316  0.00  0.00    +0.000 NA
ATOM      5  C   UNL     1       3.228   5.149  17.761  0.00  0.00    +0.000 A 
ATOM      6  N   UNL     1       2.682   3.893  17.751  0.00  0.00    +0.000 N 
ATOM      7  C   UNL     1       1.284   3.656  18.107  0.00  0.00    +0.000 C 
ATOM      8  C   UNL     1       1.194   2.726  19.326  0.00  0.00    +0.000 C 
ATOM      9  O   UNL     1       1.954   1.520  19.130  0.00  0.00    +0.000 OA
ATOM     10  C   UNL     1       3.339   1.836  18.916  0.00  0.00    +0.000 C 
ATOM     11  C   UNL     1       3.531   2.707  17.664  0.00  0.00    +0.000 C 
ATOM     12  N   UNL     1       2.502   6.172  18.188  0.00  0.00    +0.000 NA
ENDROOT
BRANCH   1  14
ATOM     13  C   UNL     1       1.616   9.096  17.649  0.00  0.00    +0.000 C 
ATOM     14  O   UNL     1       2.328   8.390  18.658  0.00  0.00    +0.000 OA
ENDBRANCH   1  14
BRANCH   3  15
ATOM     15  C   UNL     1       6.375   6.696  16.755  0.00  0.00    +0.000 C 
BRANCH  15  16
ATOM     16  N   UNL     1       6.969   7.974  17.104  0.00  0.00    +0.000 N 
ATOM     17  C   UNL     1       7.937   8.049  18.077  0.00  0.00    +0.000 C 
ATOM     18  O   UNL     1       8.320   7.059  18.692  0.00  0.00    +0.000 OA
ATOM     19  H   UNL     1       6.766   8.765  16.515  0.00  0.00    +0.000 HD
BRANCH  17  20
ATOM     20  C   UNL     1       8.476   9.390  18.329  0.00  0.00    +0.000 A 
ATOM     21  C   UNL     1       9.358   9.819  19.381  0.00  0.00    +0.000 A 
ATOM     22  C   UNL     1       9.676  11.157  19.305  0.00  0.00    +0.000 A 
ATOM     23  S   UNL     1       8.925  11.919  17.976  0.00  0.00    +0.000 S 
ATOM     24  C   UNL     1       8.175  10.458  17.498  0.00  0.00    +0.000 A 
ENDBRANCH  17  20
ENDBRANCH  15  16
ENDBRANCH   3  15
TORSDOF 4
ENDMDL
MODEL 8
REMARK VINA RESULT:      -6.7      4.295      6.130
REMARK  Name = 
REMARK  5 active torsions:
REMARK  status: ('A' for Active; 'I' for Inactive)
REMARK    1  A    between atoms: C_1  and  O_2
REMARK    2  A    between atoms: O_2  and  C_3
REMARK    3  A    between atoms: C_5  and  C_6
REMARK    4  A    between atoms: C_6  and  N_7
REMARK    5  A    between atoms: C_8  and  C_10
REMARK                            x       y       z     vdW  Elec       q    Type
REMARK                         _______ _______ _______ _____ _____    ______ ____
ROOT
ATOM      1  C   UNL     1       6.585   5.645  15.744  0.00  0.00    +0.000 A 
ATOM      2  N   UNL     1       7.476   6.442  16.326  0.00  0.00    +0.000 NA
ATOM      3  C   UNL     1       7.241   6.667  17.612  0.00  0.00    +0.000 A 
ATOM      4  N   UNL     1       6.236   6.125  18.299  0.00  0.00    +0.000 NA
ATOM      5  C   UNL     1       5.406   5.321  17.633  0.00  0.00    +0.000 A 
ATOM      6  N   UNL     1       4.376   4.743  18.326  0.00  0.00    +0.000 N 
ATOM      7  C   UNL     1       3.490   3.757  17.708  0.00  0.00    +0.000 C 
ATOM      8  C   UNL     1       2.040   4.264  17.717  0.00  0.00    +0.000 C 
ATOM      9  O   UNL     1       1.627   4.669  19.034  0.00  0.00    +0.000 OA
ATOM     10  C   UNL     1       2.470   5.730  19.513  0.00  0.00    +0.000 C 
ATOM     11  C   UNL     1       3.937   5.284  19.610  0.00  0.00    +0.000 C 
ATOM     12  N   UNL     1       5.558   5.054  16.344  0.00  0.00    +0.000 NA
ENDROOT
BRANCH   1  14
ATOM     13  C   UNL     1       6.325   4.047  14.058  0.00  0.00    +0.000 C 
ATOM     14  O   UNL     1       6.679   5.383  14.394  0.00  0.00    +0.000 OA
ENDBRANCH   1  14
BRANCH   3  15
ATOM     15  C   UNL     1       8.215   7.526  18.384  0.00  0.00    +0.000 C 
BRANCH  15  16
ATOM     16  N   UNL     1       8.192   8.915  17.963  0.00  0.00    +0.000 N 
ATOM     17  C   UNL     1       8.866   9.872  18.685  0.00  0.00    +0.000 C 
ATOM     18  O   UNL     1       9.490   9.599  19.705  0.00  0.00    +0.000 OA
ATOM     19  H   UNL     1       7.804   9.128  17.059  0.00  0.00    +0.000 HD
BRANCH  17  20
ATOM     20  C   UNL     1       8.786  11.236  18.152  0.00  0.00    +0.000 A 
ATOM     21  C   UNL     1       7.696  11.864  17.456  0.00  0.00    +0.000 A 
ATOM     22  C   UNL     1       7.960  13.171  17.108  0.00  0.00    +0.000 A 
ATOM     23  S   UNL     1       9.514  13.665  17.608  0.00  0.00    +0.000 S 
ATOM     24  C   UNL     1       9.835  12.131  18.294  0.00  0.00    +0.000 A 
ENDBRANCH  17  20
ENDBRANCH  15  16
ENDBRANCH   3  15
TORSDOF 4
ENDMDL
MODEL 9
REMARK VINA RESULT:      -6.7      4.242      6.615
REMARK  Name = 
REMARK  5 active torsions:
REMARK  status: ('A' for Active; 'I' for Inactive)
REMARK    1  A    between atoms: C_1  and  O_2
REMARK    2  A    between atoms: O_2  and  C_3
REMARK    3  A    between atoms: C_5  and  C_6
REMARK    4  A    between atoms: C_6  and  N_7
REMARK    5  A    between atoms: C_8  and  C_10
REMARK                            x       y       z     vdW  Elec       q    Type
REMARK                         _______ _______ _______ _____ _____    ______ ____
ROOT
ATOM      1  C   UNL     1       1.821  11.805  18.289  0.00  0.00    +0.000 A 
ATOM      2  N   UNL     1       2.438  10.770  17.725  0.00  0.00    +0.000 NA
ATOM      3  C   UNL     1       2.113   9.596  18.252  0.00  0.00    +0.000 A 
ATOM      4  N   UNL     1       1.222   9.432  19.230  0.00  0.00    +0.000 NA
ATOM      5  C   UNL     1       0.641  10.528  19.716  0.00  0.00    +0.000 A 
ATOM      6  N   UNL     1      -0.289  10.377  20.711  0.00  0.00    +0.000 N 
ATOM      7  C   UNL     1      -1.063  11.508  21.221  0.00  0.00    +0.000 C 
ATOM      8  C   UNL     1      -0.790  11.708  22.719  0.00  0.00    +0.000 C 
ATOM      9  O   UNL     1      -0.984  10.491  23.461  0.00  0.00    +0.000 OA
ATOM     10  C   UNL     1      -0.094   9.471  22.982  0.00  0.00    +0.000 C 
ATOM     11  C   UNL     1      -0.350   9.150  21.501  0.00  0.00    +0.000 C 
ATOM     12  N   UNL     1       0.917  11.741  19.260  0.00  0.00    +0.000 NA
ENDROOT
BRANCH   1  14
ATOM     13  C   UNL     1       2.941  13.793  18.796  0.00  0.00    +0.000 C 
ATOM     14  O   UNL     1       2.118  13.087  17.876  0.00  0.00    +0.000 OA
ENDBRANCH   1  14
BRANCH   3  15
ATOM     15  C   UNL     1       2.722   8.347  17.661  0.00  0.00    +0.000 C 
BRANCH  15  16
ATOM     16  N   UNL     1       2.116   7.132  18.173  0.00  0.00    +0.000 N 
ATOM     17  C   UNL     1       2.852   5.974  18.268  0.00  0.00    +0.000 C 
ATOM     18  O   UNL     1       4.025   5.917  17.915  0.00  0.00    +0.000 OA
ATOM     19  H   UNL     1       1.204   7.199  18.593  0.00  0.00    +0.000 HD
BRANCH  17  20
ATOM     20  C   UNL     1       2.138   4.817  18.818  0.00  0.00    +0.000 A 
ATOM     21  C   UNL     1       1.663   4.612  20.161  0.00  0.00    +0.000 A 
ATOM     22  C   UNL     1       1.018   3.406  20.325  0.00  0.00    +0.000 A 
ATOM     23  S   UNL     1       0.969   2.503  18.879  0.00  0.00    +0.000 S 
ATOM     24  C   UNL     1       1.811   3.725  18.029  0.00  0.00    +0.000 A 
ENDBRANCH  17  20
ENDBRANCH  15  16
ENDBRANCH   3  15
TORSDOF 4
ENDMDL
