MODEL 1
REMARK VINA RESULT:      -7.2      0.000      0.000
REMARK  Name = 
REMARK  11 active torsions:
REMARK  status: ('A' for Active; 'I' for Inactive)
REMARK    1  A    between atoms: C_1  and  C_2
REMARK    2  A    between atoms: C_6  and  C_7
REMARK    3  A    between atoms: C_7  and  N_8
REMARK    4  A    between atoms: N_8  and  C_9
REMARK    5  A    between atoms: N_8  and  C_10
REMARK    6  A    between atoms: C_10  and  C_11
REMARK    7  A    between atoms: N_24  and  C_25
REMARK    8  A    between atoms: C_25  and  C_26
REMARK    9  A    between atoms: C_25  and  C_27
REMARK   10  A    between atoms: C_27  and  O_28
REMARK   11  A    between atoms: C_30  and  C_31
REMARK                            x       y       z     vdW  Elec       q    Type
REMARK                         _______ _______ _______ _____ _____    ______ ____
ROOT
ATOM      1  C   UNL     1      -3.317  13.754  20.541  0.00  0.00    +0.000 C 
ATOM      2  O   UNL     1      -4.417  12.989  21.068  0.00  0.00    +0.000 OA
ATOM      3  C   UNL     1      -5.483  12.853  20.125  0.00  0.00    +0.000 C 
ATOM      4  C   UNL     1      -6.396  11.780  20.582  0.00  0.00    +0.000 A 
ATOM      5  C   UNL     1      -6.720  10.610  19.940  0.00  0.00    +0.000 A 
ATOM      6  N   UNL     1      -7.640   9.915  20.665  0.00  0.00    +0.000 NA
ATOM      7  N   UNL     1      -7.914  10.624  21.748  0.00  0.00    +0.000 NA
ATOM      8  N   UNL     1      -7.182  11.761  21.708  0.00  0.00    +0.000 N 
ATOM      9  C   UNL     1      -7.314  12.675  22.829  0.00  0.00    +0.000 C 
ATOM     10  C   UNL     1      -7.145  14.156  22.506  0.00  0.00    +0.000 C 
ATOM     11  C   UNL     1      -7.061  15.065  23.731  0.00  0.00    +0.000 C 
ATOM     12  C   UNL     1      -5.702  15.744  23.906  0.00  0.00    +0.000 C 
ATOM     13  O   UNL     1      -5.567  16.835  24.453  0.00  0.00    +0.000 OA
ATOM     14  N   UNL     1      -4.605  14.989  23.477  0.00  0.00    +0.000 N 
ATOM     15  C   UNL     1      -3.934  15.597  22.307  0.00  0.00    +0.000 C 
ATOM     16  C   UNL     1      -2.816  14.789  21.605  0.00  0.00    +0.000 C 
ATOM     17  C   UNL     1      -1.846  15.793  20.947  0.00  0.00    +0.000 C 
ENDROOT
BRANCH  14  18
ATOM     18  C   UNL     1      -3.746  14.421  24.551  0.00  0.00    +0.000 C 
ATOM     19  C   UNL     1      -2.332  15.023  24.554  0.00  0.00    +0.000 C 
BRANCH  18  20
ATOM     20  C   UNL     1      -3.659  12.875  24.559  0.00  0.00    +0.000 C 
BRANCH  20  21
ATOM     21  O   UNL     1      -4.719  12.257  25.273  0.00  0.00    +0.000 OA
ATOM     22  H   UNL     1      -5.225  12.960  25.735  0.00  0.00    +0.000 HD
ENDBRANCH  20  21
ENDBRANCH  18  20
ENDBRANCH  14  18
BRANCH   1  23
ATOM     23  C   UNL     1      -2.140  12.788  20.165  0.00  0.00    +0.000 C 
BRANCH  23  24
ATOM     24  N   UNL     1      -0.871  13.376  19.684  0.00  0.00    +0.000 NA
ATOM     25  C   UNL     1      -0.643  12.935  18.295  0.00  0.00    +0.000 C 
BRANCH  24  26
ATOM     26  C   UNL     1       0.286  13.011  20.520  0.00  0.00    +0.000 C 
BRANCH  26  32
ATOM     27  C   UNL     1       1.167   8.105  21.121  0.00  0.00    +0.000 C 
ATOM     28  C   UNL     1       0.531   9.363  21.628  0.00  0.00    +0.000 A 
ATOM     29  C   UNL     1      -0.275   9.353  22.772  0.00  0.00    +0.000 A 
ATOM     30  C   UNL     1      -0.911  10.519  23.193  0.00  0.00    +0.000 A 
ATOM     31  C   UNL     1      -0.742  11.702  22.473  0.00  0.00    +0.000 A 
ATOM     32  C   UNL     1       0.087  11.746  21.342  0.00  0.00    +0.000 A 
ATOM     33  C   UNL     1       0.712  10.563  20.925  0.00  0.00    +0.000 A 
ENDBRANCH  26  32
ENDBRANCH  24  26
ENDBRANCH  23  24
ENDBRANCH   1  23
TORSDOF 7
ENDMDL
MODEL 2
REMARK VINA RESULT:      -7.0      1.723      2.755
REMARK  Name = 
REMARK  11 active torsions:
REMARK  status: ('A' for Active; 'I' for Inactive)
REMARK    1  A    between atoms: C_1  and  C_2
REMARK    2  A    between atoms: C_6  and  C_7
REMARK    3  A    between atoms: C_7  and  N_8
REMARK    4  A    between atoms: N_8  and  C_9
REMARK    5  A    between atoms: N_8  and  C_10
REMARK    6  A    between atoms: C_10  and  C_11
REMARK    7  A    between atoms: N_24  and  C_25
REMARK    8  A    between atoms: C_25  and  C_26
REMARK    9  A    between atoms: C_25  and  C_27
REMARK   10  A    between atoms: C_27  and  O_28
REMARK   11  A    between atoms: C_30  and  C_31
REMARK                            x       y       z     vdW  Elec       q    Type
REMARK                         _______ _______ _______ _____ _____    ______ ____
ROOT
ATOM      1  C   UNL     1      -3.042  13.351  20.377  0.00  0.00    +0.000 C 
ATOM      2  O   UNL     1      -4.226  12.660  20.815  0.00  0.00    +0.000 OA
ATOM      3  C   UNL     1      -5.226  12.601  19.795  0.00  0.00    +0.000 C 
ATOM      4  C   UNL     1      -6.241  11.590  20.172  0.00  0.00    +0.000 A 
ATOM      5  C   UNL     1      -6.594  10.447  19.497  0.00  0.00    +0.000 A 
ATOM      6  N   UNL     1      -7.609   9.814  20.146  0.00  0.00    +0.000 NA
ATOM      7  N   UNL     1      -7.915  10.534  21.212  0.00  0.00    +0.000 NA
ATOM      8  N   UNL     1      -7.108  11.619  21.237  0.00  0.00    +0.000 N 
ATOM      9  C   UNL     1      -7.261  12.535  22.355  0.00  0.00    +0.000 C 
ATOM     10  C   UNL     1      -6.969  14.003  22.059  0.00  0.00    +0.000 C 
ATOM     11  C   UNL     1      -6.916  14.898  23.295  0.00  0.00    +0.000 C 
ATOM     12  C   UNL     1      -5.531  15.483  23.577  0.00  0.00    +0.000 C 
ATOM     13  O   UNL     1      -5.363  16.559  24.142  0.00  0.00    +0.000 OA
ATOM     14  N   UNL     1      -4.458  14.658  23.222  0.00  0.00    +0.000 N 
ATOM     15  C   UNL     1      -3.663  15.224  22.111  0.00  0.00    +0.000 C 
ATOM     16  C   UNL     1      -2.552  14.345  21.486  0.00  0.00    +0.000 C 
ATOM     17  C   UNL     1      -1.471  15.285  20.911  0.00  0.00    +0.000 C 
ENDROOT
BRANCH  14  18
ATOM     18  C   UNL     1      -3.721  14.028  24.351  0.00  0.00    +0.000 C 
ATOM     19  C   UNL     1      -2.321  14.629  24.549  0.00  0.00    +0.000 C 
BRANCH  18  20
ATOM     20  C   UNL     1      -3.625  12.484  24.279  0.00  0.00    +0.000 C 
BRANCH  20  21
ATOM     21  O   UNL     1      -4.788  11.826  24.758  0.00  0.00    +0.000 OA
ATOM     22  H   UNL     1      -4.655  10.860  24.654  0.00  0.00    +0.000 HD
ENDBRANCH  20  21
ENDBRANCH  18  20
ENDBRANCH  14  18
BRANCH   1  23
ATOM     23  C   UNL     1      -1.907  12.310  20.081  0.00  0.00    +0.000 C 
BRANCH  23  24
ATOM     24  N   UNL     1      -1.173  12.411  18.801  0.00  0.00    +0.000 NA
ATOM     25  C   UNL     1      -1.950  11.719  17.755  0.00  0.00    +0.000 C 
BRANCH  24  26
ATOM     26  C   UNL     1       0.185  11.846  18.870  0.00  0.00    +0.000 C 
BRANCH  26  32
ATOM     27  C   UNL     1       3.490  15.371  17.503  0.00  0.00    +0.000 C 
ATOM     28  C   UNL     1       2.854  14.567  18.596  0.00  0.00    +0.000 A 
ATOM     29  C   UNL     1       3.286  14.683  19.922  0.00  0.00    +0.000 A 
ATOM     30  C   UNL     1       2.728  13.882  20.915  0.00  0.00    +0.000 A 
ATOM     31  C   UNL     1       1.732  12.961  20.588  0.00  0.00    +0.000 A 
ATOM     32  C   UNL     1       1.258  12.849  19.271  0.00  0.00    +0.000 A 
ATOM     33  C   UNL     1       1.837  13.655  18.282  0.00  0.00    +0.000 A 
ENDBRANCH  26  32
ENDBRANCH  24  26
ENDBRANCH  23  24
ENDBRANCH   1  23
TORSDOF 7
ENDMDL
MODEL 3
REMARK VINA RESULT:      -7.0      3.342      6.864
REMARK  Name = 
REMARK  11 active torsions:
REMARK  status: ('A' for Active; 'I' for Inactive)
REMARK    1  A    between atoms: C_1  and  C_2
REMARK    2  A    between atoms: C_6  and  C_7
REMARK    3  A    between atoms: C_7  and  N_8
REMARK    4  A    between atoms: N_8  and  C_9
REMARK    5  A    between atoms: N_8  and  C_10
REMARK    6  A    between atoms: C_10  and  C_11
REMARK    7  A    between atoms: N_24  and  C_25
REMARK    8  A    between atoms: C_25  and  C_26
REMARK    9  A    between atoms: C_25  and  C_27
REMARK   10  A    between atoms: C_27  and  O_28
REMARK   11  A    between atoms: C_30  and  C_31
REMARK                            x       y       z     vdW  Elec       q    Type
REMARK                         _______ _______ _______ _____ _____    ______ ____
ROOT
ATOM      1  C   UNL     1       0.406  10.979  20.941  0.00  0.00    +0.000 C 
ATOM      2  O   UNL     1       0.625  12.282  20.369  0.00  0.00    +0.000 OA
ATOM      3  C   UNL     1       2.008  12.646  20.366  0.00  0.00    +0.000 C 
ATOM      4  C   UNL     1       2.200  13.801  19.458  0.00  0.00    +0.000 A 
ATOM      5  C   UNL     1       2.980  13.874  18.330  0.00  0.00    +0.000 A 
ATOM      6  N   UNL     1       2.931  15.130  17.807  0.00  0.00    +0.000 NA
ATOM      7  N   UNL     1       2.145  15.858  18.583  0.00  0.00    +0.000 NA
ATOM      8  N   UNL     1       1.705  15.075  19.595  0.00  0.00    +0.000 N 
ATOM      9  C   UNL     1       0.796  15.678  20.555  0.00  0.00    +0.000 C 
ATOM     10  C   UNL     1       0.884  15.147  21.982  0.00  0.00    +0.000 C 
ATOM     11  C   UNL     1      -0.230  15.632  22.907  0.00  0.00    +0.000 C 
ATOM     12  C   UNL     1      -1.171  14.522  23.378  0.00  0.00    +0.000 C 
ATOM     13  O   UNL     1      -1.763  14.560  24.452  0.00  0.00    +0.000 OA
ATOM     14  N   UNL     1      -1.382  13.494  22.452  0.00  0.00    +0.000 N 
ATOM     15  C   UNL     1      -0.821  12.206  22.913  0.00  0.00    +0.000 C 
ATOM     16  C   UNL     1      -0.815  11.016  21.922  0.00  0.00    +0.000 C 
ATOM     17  C   UNL     1      -0.868   9.712  22.747  0.00  0.00    +0.000 C 
ENDROOT
BRANCH  14  18
ATOM     18  C   UNL     1      -2.718  13.474  21.796  0.00  0.00    +0.000 C 
ATOM     19  C   UNL     1      -3.742  12.631  22.571  0.00  0.00    +0.000 C 
BRANCH  18  20
ATOM     20  C   UNL     1      -2.700  13.043  20.309  0.00  0.00    +0.000 C 
BRANCH  20  21
ATOM     21  O   UNL     1      -1.674  13.671  19.555  0.00  0.00    +0.000 OA
ATOM     22  H   UNL     1      -2.001  14.551  19.270  0.00  0.00    +0.000 HD
ENDBRANCH  20  21
ENDBRANCH  18  20
ENDBRANCH  14  18
BRANCH   1  23
ATOM     23  C   UNL     1       0.118   9.946  19.797  0.00  0.00    +0.000 C 
BRANCH  23  24
ATOM     24  N   UNL     1       1.006   8.771  19.667  0.00  0.00    +0.000 NA
ATOM     25  C   UNL     1       1.800   8.639  20.902  0.00  0.00    +0.000 C 
BRANCH  24  26
ATOM     26  C   UNL     1       1.905   8.855  18.503  0.00  0.00    +0.000 C 
BRANCH  26  32
ATOM     27  C   UNL     1       1.540   3.858  18.183  0.00  0.00    +0.000 C 
ATOM     28  C   UNL     1       2.342   5.101  17.944  0.00  0.00    +0.000 A 
ATOM     29  C   UNL     1       3.647   5.032  17.444  0.00  0.00    +0.000 A 
ATOM     30  C   UNL     1       4.401   6.193  17.289  0.00  0.00    +0.000 A 
ATOM     31  C   UNL     1       3.853   7.429  17.631  0.00  0.00    +0.000 A 
ATOM     32  C   UNL     1       2.535   7.528  18.104  0.00  0.00    +0.000 A 
ATOM     33  C   UNL     1       1.793   6.351  18.264  0.00  0.00    +0.000 A 
ENDBRANCH  26  32
ENDBRANCH  24  26
ENDBRANCH  23  24
ENDBRANCH   1  23
TORSDOF 7
ENDMDL
MODEL 4
REMARK VINA RESULT:      -7.0      1.806      3.195
REMARK  Name = 
REMARK  11 active torsions:
REMARK  status: ('A' for Active; 'I' for Inactive)
REMARK    1  A    between atoms: C_1  and  C_2
REMARK    2  A    between atoms: C_6  and  C_7
REMARK    3  A    between atoms: C_7  and  N_8
REMARK    4  A    between atoms: N_8  and  C_9
REMARK    5  A    between atoms: N_8  and  C_10
REMARK    6  A    between atoms: C_10  and  C_11
REMARK    7  A    between atoms: N_24  and  C_25
REMARK    8  A    between atoms: C_25  and  C_26
REMARK    9  A    between atoms: C_25  and  C_27
REMARK   10  A    between atoms: C_27  and  O_28
REMARK   11  A    between atoms: C_30  and  C_31
REMARK                            x       y       z     vdW  Elec       q    Type
REMARK                         _______ _______ _______ _____ _____    ______ ____
ROOT
ATOM      1  C   UNL     1      -3.047  14.636  20.955  0.00  0.00    +0.000 C 
ATOM      2  O   UNL     1      -4.148  13.853  21.453  0.00  0.00    +0.000 OA
ATOM      3  C   UNL     1      -5.162  13.654  20.464  0.00  0.00    +0.000 C 
ATOM      4  C   UNL     1      -6.063  12.566  20.911  0.00  0.00    +0.000 A 
ATOM      5  C   UNL     1      -6.319  11.367  20.292  0.00  0.00    +0.000 A 
ATOM      6  N   UNL     1      -7.251  10.666  20.993  0.00  0.00    +0.000 NA
ATOM      7  N   UNL     1      -7.600  11.398  22.039  0.00  0.00    +0.000 NA
ATOM      8  N   UNL     1      -6.903  12.556  21.998  0.00  0.00    +0.000 N 
ATOM      9  C   UNL     1      -7.118  13.500  23.081  0.00  0.00    +0.000 C 
ATOM     10  C   UNL     1      -6.978  14.975  22.720  0.00  0.00    +0.000 C 
ATOM     11  C   UNL     1      -6.983  15.923  23.916  0.00  0.00    +0.000 C 
ATOM     12  C   UNL     1      -5.656  16.651  24.136  0.00  0.00    +0.000 C 
ATOM     13  O   UNL     1      -5.580  17.761  24.653  0.00  0.00    +0.000 OA
ATOM     14  N   UNL     1      -4.516  15.919  23.784  0.00  0.00    +0.000 N 
ATOM     15  C   UNL     1      -3.807  16.512  22.629  0.00  0.00    +0.000 C 
ATOM     16  C   UNL     1      -2.631  15.719  22.008  0.00  0.00    +0.000 C 
ATOM     17  C   UNL     1      -1.662  16.733  21.366  0.00  0.00    +0.000 C 
ENDROOT
BRANCH  14  18
ATOM     18  C   UNL     1      -3.693  15.412  24.916  0.00  0.00    +0.000 C 
ATOM     19  C   UNL     1      -2.455  16.282  25.180  0.00  0.00    +0.000 C 
BRANCH  18  20
ATOM     20  C   UNL     1      -3.276  13.926  24.796  0.00  0.00    +0.000 C 
BRANCH  20  21
ATOM     21  O   UNL     1      -4.287  13.023  25.219  0.00  0.00    +0.000 OA
ATOM     22  H   UNL     1      -4.033  12.122  24.925  0.00  0.00    +0.000 HD
ENDBRANCH  20  21
ENDBRANCH  18  20
ENDBRANCH  14  18
BRANCH   1  23
ATOM     23  C   UNL     1      -1.824  13.698  20.668  0.00  0.00    +0.000 C 
BRANCH  23  24
ATOM     24  N   UNL     1      -2.005  12.237  20.813  0.00  0.00    +0.000 NA
ATOM     25  C   UNL     1      -1.644  11.851  22.190  0.00  0.00    +0.000 C 
BRANCH  24  26
ATOM     26  C   UNL     1      -1.206  11.460  19.851  0.00  0.00    +0.000 C 
BRANCH  26  32
ATOM     27  C   UNL     1      -5.272  11.985  16.952  0.00  0.00    +0.000 C 
ATOM     28  C   UNL     1      -3.929  11.359  17.172  0.00  0.00    +0.000 A 
ATOM     29  C   UNL     1      -3.418  10.413  16.276  0.00  0.00    +0.000 A 
ATOM     30  C   UNL     1      -2.197   9.794  16.529  0.00  0.00    +0.000 A 
ATOM     31  C   UNL     1      -1.477  10.118  17.680  0.00  0.00    +0.000 A 
ATOM     32  C   UNL     1      -1.952  11.088  18.577  0.00  0.00    +0.000 A 
ATOM     33  C   UNL     1      -3.187  11.695  18.313  0.00  0.00    +0.000 A 
ENDBRANCH  26  32
ENDBRANCH  24  26
ENDBRANCH  23  24
ENDBRANCH   1  23
TORSDOF 7
ENDMDL
MODEL 5
REMARK VINA RESULT:      -7.0      3.261      6.617
REMARK  Name = 
REMARK  11 active torsions:
REMARK  status: ('A' for Active; 'I' for Inactive)
REMARK    1  A    between atoms: C_1  and  C_2
REMARK    2  A    between atoms: C_6  and  C_7
REMARK    3  A    between atoms: C_7  and  N_8
REMARK    4  A    between atoms: N_8  and  C_9
REMARK    5  A    between atoms: N_8  and  C_10
REMARK    6  A    between atoms: C_10  and  C_11
REMARK    7  A    between atoms: N_24  and  C_25
REMARK    8  A    between atoms: C_25  and  C_26
REMARK    9  A    between atoms: C_25  and  C_27
REMARK   10  A    between atoms: C_27  and  O_28
REMARK   11  A    between atoms: C_30  and  C_31
REMARK                            x       y       z     vdW  Elec       q    Type
REMARK                         _______ _______ _______ _____ _____    ______ ____
ROOT
ATOM      1  C   UNL     1       0.583  10.872  20.690  0.00  0.00    +0.000 C 
ATOM      2  O   UNL     1       0.562  12.252  20.282  0.00  0.00    +0.000 OA
ATOM      3  C   UNL     1       1.849  12.866  20.383  0.00  0.00    +0.000 C 
ATOM      4  C   UNL     1       1.837  14.139  19.624  0.00  0.00    +0.000 A 
ATOM      5  C   UNL     1       2.614  14.494  18.548  0.00  0.00    +0.000 A 
ATOM      6  N   UNL     1       2.337  15.773  18.172  0.00  0.00    +0.000 NA
ATOM      7  N   UNL     1       1.410  16.240  18.991  0.00  0.00    +0.000 NA
ATOM      8  N   UNL     1       1.105  15.271  19.885  0.00  0.00    +0.000 N 
ATOM      9  C   UNL     1       0.076  15.572  20.866  0.00  0.00    +0.000 C 
ATOM     10  C   UNL     1       0.232  14.897  22.224  0.00  0.00    +0.000 C 
ATOM     11  C   UNL     1      -0.974  15.049  23.148  0.00  0.00    +0.000 C 
ATOM     12  C   UNL     1      -1.696  13.734  23.446  0.00  0.00    +0.000 C 
ATOM     13  O   UNL     1      -2.308  13.529  24.490  0.00  0.00    +0.000 OA
ATOM     14  N   UNL     1      -1.686  12.804  22.399  0.00  0.00    +0.000 N 
ATOM     15  C   UNL     1      -0.899  11.597  22.733  0.00  0.00    +0.000 C 
ATOM     16  C   UNL     1      -0.644  10.559  21.613  0.00  0.00    +0.000 C 
ATOM     17  C   UNL     1      -0.464   9.179  22.278  0.00  0.00    +0.000 C 
ENDROOT
BRANCH  14  18
ATOM     18  C   UNL     1      -2.978  12.614  21.685  0.00  0.00    +0.000 C 
ATOM     19  C   UNL     1      -2.912  13.067  20.218  0.00  0.00    +0.000 C 
BRANCH  18  20
ATOM     20  C   UNL     1      -4.201  13.260  22.381  0.00  0.00    +0.000 C 
BRANCH  20  21
ATOM     21  O   UNL     1      -4.862  12.384  23.281  0.00  0.00    +0.000 OA
ATOM     22  H   UNL     1      -5.810  12.636  23.311  0.00  0.00    +0.000 HD
ENDBRANCH  20  21
ENDBRANCH  18  20
ENDBRANCH  14  18
BRANCH   1  23
ATOM     23  C   UNL     1       0.524   9.951  19.423  0.00  0.00    +0.000 C 
BRANCH  23  24
ATOM     24  N   UNL     1       1.795   9.539  18.788  0.00  0.00    +0.000 NA
ATOM     25  C   UNL     1       2.252  10.623  17.899  0.00  0.00    +0.000 C 
BRANCH  24  26
ATOM     26  C   UNL     1       1.678   8.284  18.026  0.00  0.00    +0.000 C 
BRANCH  26  32
ATOM     27  C   UNL     1       5.998   6.160  16.597  0.00  0.00    +0.000 C 
ATOM     28  C   UNL     1       4.892   6.262  17.604  0.00  0.00    +0.000 A 
ATOM     29  C   UNL     1       4.847   5.411  18.714  0.00  0.00    +0.000 A 
ATOM     30  C   UNL     1       3.779   5.476  19.605  0.00  0.00    +0.000 A 
ATOM     31  C   UNL     1       2.749   6.393  19.392  0.00  0.00    +0.000 A 
ATOM     32  C   UNL     1       2.788   7.280  18.304  0.00  0.00    +0.000 A 
ATOM     33  C   UNL     1       3.864   7.195  17.411  0.00  0.00    +0.000 A 
ENDBRANCH  26  32
ENDBRANCH  24  26
ENDBRANCH  23  24
ENDBRANCH   1  23
TORSDOF 7
ENDMDL
MODEL 6
REMARK VINA RESULT:      -6.9      3.328      6.874
REMARK  Name = 
REMARK  11 active torsions:
REMARK  status: ('A' for Active; 'I' for Inactive)
REMARK    1  A    between atoms: C_1  and  C_2
REMARK    2  A    between atoms: C_6  and  C_7
REMARK    3  A    between atoms: C_7  and  N_8
REMARK    4  A    between atoms: N_8  and  C_9
REMARK    5  A    between atoms: N_8  and  C_10
REMARK    6  A    between atoms: C_10  and  C_11
REMARK    7  A    between atoms: N_24  and  C_25
REMARK    8  A    between atoms: C_25  and  C_26
REMARK    9  A    between atoms: C_25  and  C_27
REMARK   10  A    between atoms: C_27  and  O_28
REMARK   11  A    between atoms: C_30  and  C_31
REMARK                            x       y       z     vdW  Elec       q    Type
REMARK                         _______ _______ _______ _____ _____    ______ ____
ROOT
ATOM      1  C   UNL     1       0.710  10.616  20.732  0.00  0.00    +0.000 C 
ATOM      2  O   UNL     1       0.752  11.971  20.248  0.00  0.00    +0.000 OA
ATOM      3  C   UNL     1       2.061  12.538  20.341  0.00  0.00    +0.000 C 
ATOM      4  C   UNL     1       2.115  13.765  19.513  0.00  0.00    +0.000 A 
ATOM      5  C   UNL     1       2.925  14.028  18.435  0.00  0.00    +0.000 A 
ATOM      6  N   UNL     1       2.708  15.293  17.982  0.00  0.00    +0.000 NA
ATOM      7  N   UNL     1       1.785  15.843  18.754  0.00  0.00    +0.000 NA
ATOM      8  N   UNL     1       1.424  14.938  19.694  0.00  0.00    +0.000 N 
ATOM      9  C   UNL     1       0.391  15.335  20.635  0.00  0.00    +0.000 C 
ATOM     10  C   UNL     1       0.493  14.732  22.032  0.00  0.00    +0.000 C 
ATOM     11  C   UNL     1      -0.723  14.983  22.920  0.00  0.00    +0.000 C 
ATOM     12  C   UNL     1      -1.503  13.716  23.275  0.00  0.00    +0.000 C 
ATOM     13  O   UNL     1      -2.142  13.595  24.316  0.00  0.00    +0.000 OA
ATOM     14  N   UNL     1      -1.511  12.730  22.283  0.00  0.00    +0.000 N 
ATOM     15  C   UNL     1      -0.780  11.513  22.700  0.00  0.00    +0.000 C 
ATOM     16  C   UNL     1      -0.546  10.404  21.645  0.00  0.00    +0.000 C 
ATOM     17  C   UNL     1      -0.435   9.057  22.390  0.00  0.00    +0.000 C 
ENDROOT
BRANCH  14  18
ATOM     18  C   UNL     1      -2.796  12.551  21.554  0.00  0.00    +0.000 C 
ATOM     19  C   UNL     1      -2.693  12.949  20.073  0.00  0.00    +0.000 C 
BRANCH  18  20
ATOM     20  C   UNL     1      -4.012  13.254  22.205  0.00  0.00    +0.000 C 
BRANCH  20  21
ATOM     21  O   UNL     1      -4.720  12.424  23.113  0.00  0.00    +0.000 OA
ATOM     22  H   UNL     1      -4.100  11.742  23.449  0.00  0.00    +0.000 HD
ENDBRANCH  20  21
ENDBRANCH  18  20
ENDBRANCH  14  18
BRANCH   1  23
ATOM     23  C   UNL     1       0.637   9.627  19.517  0.00  0.00    +0.000 C 
BRANCH  23  24
ATOM     24  N   UNL     1       1.874   8.934  19.095  0.00  0.00    +0.000 NA
ATOM     25  C   UNL     1       1.823   8.725  17.636  0.00  0.00    +0.000 C 
BRANCH  24  26
ATOM     26  C   UNL     1       2.073   7.645  19.777  0.00  0.00    +0.000 C 
BRANCH  26  32
ATOM     27  C   UNL     1       1.818   2.938  18.048  0.00  0.00    +0.000 C 
ATOM     28  C   UNL     1       2.513   4.265  18.050  0.00  0.00    +0.000 A 
ATOM     29  C   UNL     1       3.691   4.464  17.322  0.00  0.00    +0.000 A 
ATOM     30  C   UNL     1       4.359   5.684  17.386  0.00  0.00    +0.000 A 
ATOM     31  C   UNL     1       3.851   6.715  18.177  0.00  0.00    +0.000 A 
ATOM     32  C   UNL     1       2.653   6.552  18.891  0.00  0.00    +0.000 A 
ATOM     33  C   UNL     1       1.998   5.315  18.824  0.00  0.00    +0.000 A 
ENDBRANCH  26  32
ENDBRANCH  24  26
ENDBRANCH  23  24
ENDBRANCH   1  23
TORSDOF 7
ENDMDL
MODEL 7
REMARK VINA RESULT:      -6.9      4.118      7.299
REMARK  Name = 
REMARK  11 active torsions:
REMARK  status: ('A' for Active; 'I' for Inactive)
REMARK    1  A    between atoms: C_1  and  C_2
REMARK    2  A    between atoms: C_6  and  C_7
REMARK    3  A    between atoms: C_7  and  N_8
REMARK    4  A    between atoms: N_8  and  C_9
REMARK    5  A    between atoms: N_8  and  C_10
REMARK    6  A    between atoms: C_10  and  C_11
REMARK    7  A    between atoms: N_24  and  C_25
REMARK    8  A    between atoms: C_25  and  C_26
REMARK    9  A    between atoms: C_25  and  C_27
REMARK   10  A    between atoms: C_27  and  O_28
REMARK   11  A    between atoms: C_30  and  C_31
REMARK                            x       y       z     vdW  Elec       q    Type
REMARK                         _______ _______ _______ _____ _____    ______ ____
ROOT
ATOM      1  C   UNL     1       1.056  12.875  20.163  0.00  0.00    +0.000 C 
ATOM      2  O   UNL     1       0.924  13.753  21.296  0.00  0.00    +0.000 OA
ATOM      3  C   UNL     1      -0.432  14.144  21.522  0.00  0.00    +0.000 C 
ATOM      4  C   UNL     1      -0.545  14.730  22.878  0.00  0.00    +0.000 A 
ATOM      5  C   UNL     1      -1.313  14.296  23.930  0.00  0.00    +0.000 A 
ATOM      6  N   UNL     1      -1.181  15.142  24.989  0.00  0.00    +0.000 NA
ATOM      7  N   UNL     1      -0.354  16.109  24.628  0.00  0.00    +0.000 NA
ATOM      8  N   UNL     1       0.030  15.885  23.350  0.00  0.00    +0.000 N 
ATOM      9  C   UNL     1       0.970  16.825  22.765  0.00  0.00    +0.000 C 
ATOM     10  C   UNL     1       0.842  17.049  21.262  0.00  0.00    +0.000 C 
ATOM     11  C   UNL     1       1.979  17.858  20.643  0.00  0.00    +0.000 C 
ATOM     12  C   UNL     1       2.845  17.062  19.666  0.00  0.00    +0.000 C 
ATOM     13  O   UNL     1       3.433  17.579  18.720  0.00  0.00    +0.000 OA
ATOM     14  N   UNL     1       2.995  15.706  19.978  0.00  0.00    +0.000 N 
ATOM     15  C   UNL     1       2.349  14.829  18.977  0.00  0.00    +0.000 C 
ATOM     16  C   UNL     1       2.272  13.312  19.277  0.00  0.00    +0.000 C 
ATOM     17  C   UNL     1       2.237  12.563  17.927  0.00  0.00    +0.000 C 
ENDROOT
BRANCH  14  18
ATOM     18  C   UNL     1       4.329  15.301  20.497  0.00  0.00    +0.000 C 
ATOM     19  C   UNL     1       5.285  14.855  19.379  0.00  0.00    +0.000 C 
BRANCH  18  20
ATOM     20  C   UNL     1       4.290  14.229  21.614  0.00  0.00    +0.000 C 
BRANCH  20  21
ATOM     21  O   UNL     1       3.365  14.530  22.648  0.00  0.00    +0.000 OA
ATOM     22  H   UNL     1       3.252  13.726  23.198  0.00  0.00    +0.000 HD
ENDBRANCH  20  21
ENDBRANCH  18  20
ENDBRANCH  14  18
BRANCH   1  23
ATOM     23  C   UNL     1       1.283  11.406  20.662  0.00  0.00    +0.000 C 
BRANCH  23  24
ATOM     24  N   UNL     1       0.231  10.400  20.398  0.00  0.00    +0.000 NA
ATOM     25  C   UNL     1       0.542   9.179  21.165  0.00  0.00    +0.000 C 
BRANCH  24  26
ATOM     26  C   UNL     1       0.096  10.071  18.969  0.00  0.00    +0.000 C 
BRANCH  26  32
ATOM     27  C   UNL     1      -4.308  12.440  19.428  0.00  0.00    +0.000 C 
ATOM     28  C   UNL     1      -3.394  11.584  18.605  0.00  0.00    +0.000 A 
ATOM     29  C   UNL     1      -3.807  11.066  17.373  0.00  0.00    +0.000 A 
ATOM     30  C   UNL     1      -2.969  10.219  16.650  0.00  0.00    +0.000 A 
ATOM     31  C   UNL     1      -1.712   9.887  17.157  0.00  0.00    +0.000 A 
ATOM     32  C   UNL     1      -1.261  10.420  18.375  0.00  0.00    +0.000 A 
ATOM     33  C   UNL     1      -2.120  11.262  19.094  0.00  0.00    +0.000 A 
ENDBRANCH  26  32
ENDBRANCH  24  26
ENDBRANCH  23  24
ENDBRANCH   1  23
TORSDOF 7
ENDMDL
MODEL 8
REMARK VINA RESULT:      -6.9      2.588      5.222
REMARK  Name = 
REMARK  11 active torsions:
REMARK  status: ('A' for Active; 'I' for Inactive)
REMARK    1  A    between atoms: C_1  and  C_2
REMARK    2  A    between atoms: C_6  and  C_7
REMARK    3  A    between atoms: C_7  and  N_8
REMARK    4  A    between atoms: N_8  and  C_9
REMARK    5  A    between atoms: N_8  and  C_10
REMARK    6  A    between atoms: C_10  and  C_11
REMARK    7  A    between atoms: N_24  and  C_25
REMARK    8  A    between atoms: C_25  and  C_26
REMARK    9  A    between atoms: C_25  and  C_27
REMARK   10  A    between atoms: C_27  and  O_28
REMARK   11  A    between atoms: C_30  and  C_31
REMARK                            x       y       z     vdW  Elec       q    Type
REMARK                         _______ _______ _______ _____ _____    ______ ____
ROOT
ATOM      1  C   UNL     1      -0.313  12.533  20.769  0.00  0.00    +0.000 C 
ATOM      2  O   UNL     1      -0.943  13.767  20.379  0.00  0.00    +0.000 OA
ATOM      3  C   UNL     1      -0.017  14.855  20.326  0.00  0.00    +0.000 C 
ATOM      4  C   UNL     1      -0.635  15.979  19.586  0.00  0.00    +0.000 A 
ATOM      5  C   UNL     1      -0.202  16.574  18.426  0.00  0.00    +0.000 A 
ATOM      6  N   UNL     1      -1.018  17.613  18.097  0.00  0.00    +0.000 NA
ATOM      7  N   UNL     1      -1.954  17.697  19.028  0.00  0.00    +0.000 NA
ATOM      8  N   UNL     1      -1.731  16.726  19.944  0.00  0.00    +0.000 N 
ATOM      9  C   UNL     1      -2.672  16.624  21.046  0.00  0.00    +0.000 C 
ATOM     10  C   UNL     1      -2.098  16.129  22.369  0.00  0.00    +0.000 C 
ATOM     11  C   UNL     1      -3.146  15.816  23.435  0.00  0.00    +0.000 C 
ATOM     12  C   UNL     1      -3.228  14.335  23.808  0.00  0.00    +0.000 C 
ATOM     13  O   UNL     1      -3.578  13.943  24.917  0.00  0.00    +0.000 OA
ATOM     14  N   UNL     1      -2.960  13.447  22.760  0.00  0.00    +0.000 N 
ATOM     15  C   UNL     1      -1.716  12.679  22.984  0.00  0.00    +0.000 C 
ATOM     16  C   UNL     1      -1.189  11.788  21.832  0.00  0.00    +0.000 C 
ATOM     17  C   UNL     1      -0.386  10.629  22.459  0.00  0.00    +0.000 C 
ENDROOT
BRANCH  14  18
ATOM     18  C   UNL     1      -4.134  12.718  22.208  0.00  0.00    +0.000 C 
ATOM     19  C   UNL     1      -4.315  12.949  20.700  0.00  0.00    +0.000 C 
BRANCH  18  20
ATOM     20  C   UNL     1      -5.468  12.989  22.946  0.00  0.00    +0.000 C 
BRANCH  20  21
ATOM     21  O   UNL     1      -6.611  12.807  22.124  0.00  0.00    +0.000 OA
ATOM     22  H   UNL     1      -6.736  13.621  21.591  0.00  0.00    +0.000 HD
ENDBRANCH  20  21
ENDBRANCH  18  20
ENDBRANCH  14  18
BRANCH   1  23
ATOM     23  C   UNL     1      -0.136  11.615  19.510  0.00  0.00    +0.000 C 
BRANCH  23  24
ATOM     24  N   UNL     1       1.224  11.154  19.158  0.00  0.00    +0.000 NA
ATOM     25  C   UNL     1       1.980  12.293  18.604  0.00  0.00    +0.000 C 
BRANCH  24  26
ATOM     26  C   UNL     1       1.223  10.040  18.194  0.00  0.00    +0.000 C 
BRANCH  26  32
ATOM     27  C   UNL     1       3.815   5.800  17.477  0.00  0.00    +0.000 C 
ATOM     28  C   UNL     1       3.021   6.675  18.399  0.00  0.00    +0.000 A 
ATOM     29  C   UNL     1       2.715   6.262  19.700  0.00  0.00    +0.000 A 
ATOM     30  C   UNL     1       1.921   7.059  20.521  0.00  0.00    +0.000 A 
ATOM     31  C   UNL     1       1.430   8.275  20.046  0.00  0.00    +0.000 A 
ATOM     32  C   UNL     1       1.750   8.728  18.756  0.00  0.00    +0.000 A 
ATOM     33  C   UNL     1       2.541   7.910  17.939  0.00  0.00    +0.000 A 
ENDBRANCH  26  32
ENDBRANCH  24  26
ENDBRANCH  23  24
ENDBRANCH   1  23
TORSDOF 7
ENDMDL
MODEL 9
REMARK VINA RESULT:      -6.9      3.511      6.020
REMARK  Name = 
REMARK  11 active torsions:
REMARK  status: ('A' for Active; 'I' for Inactive)
REMARK    1  A    between atoms: C_1  and  C_2
REMARK    2  A    between atoms: C_6  and  C_7
REMARK    3  A    between atoms: C_7  and  N_8
REMARK    4  A    between atoms: N_8  and  C_9
REMARK    5  A    between atoms: N_8  and  C_10
REMARK    6  A    between atoms: C_10  and  C_11
REMARK    7  A    between atoms: N_24  and  C_25
REMARK    8  A    between atoms: C_25  and  C_26
REMARK    9  A    between atoms: C_25  and  C_27
REMARK   10  A    between atoms: C_27  and  O_28
REMARK   11  A    between atoms: C_30  and  C_31
REMARK                            x       y       z     vdW  Elec       q    Type
REMARK                         _______ _______ _______ _____ _____    ______ ____
ROOT
ATOM      1  C   UNL     1       0.257  11.612  20.327  0.00  0.00    +0.000 C 
ATOM      2  O   UNL     1      -0.445  12.490  21.227  0.00  0.00    +0.000 OA
ATOM      3  C   UNL     1      -1.853  12.243  21.236  0.00  0.00    +0.000 C 
ATOM      4  C   UNL     1      -2.451  12.908  22.417  0.00  0.00    +0.000 A 
ATOM      5  C   UNL     1      -3.131  12.332  23.463  0.00  0.00    +0.000 A 
ATOM      6  N   UNL     1      -3.572  13.292  24.321  0.00  0.00    +0.000 NA
ATOM      7  N   UNL     1      -3.195  14.465  23.839  0.00  0.00    +0.000 NA
ATOM      8  N   UNL     1      -2.529  14.253  22.681  0.00  0.00    +0.000 N 
ATOM      9  C   UNL     1      -1.999  15.421  21.996  0.00  0.00    +0.000 C 
ATOM     10  C   UNL     1      -1.939  15.332  20.475  0.00  0.00    +0.000 C 
ATOM     11  C   UNL     1      -1.173  16.470  19.805  0.00  0.00    +0.000 C 
ATOM     12  C   UNL     1       0.113  16.025  19.106  0.00  0.00    +0.000 C 
ATOM     13  O   UNL     1       0.579  16.605  18.131  0.00  0.00    +0.000 OA
ATOM     14  N   UNL     1       0.776  14.953  19.716  0.00  0.00    +0.000 N 
ATOM     15  C   UNL     1       0.766  13.739  18.872  0.00  0.00    +0.000 C 
ATOM     16  C   UNL     1       1.301  12.421  19.484  0.00  0.00    +0.000 C 
ATOM     17  C   UNL     1       1.837  11.546  18.330  0.00  0.00    +0.000 C 
ENDROOT
BRANCH  14  18
ATOM     18  C   UNL     1       2.036  15.291  20.432  0.00  0.00    +0.000 C 
ATOM     19  C   UNL     1       3.290  14.912  19.628  0.00  0.00    +0.000 C 
BRANCH  18  20
ATOM     20  C   UNL     1       2.138  14.716  21.866  0.00  0.00    +0.000 C 
BRANCH  20  21
ATOM     21  O   UNL     1       1.591  15.576  22.855  0.00  0.00    +0.000 OA
ATOM     22  H   UNL     1       1.085  16.282  22.398  0.00  0.00    +0.000 HD
ENDBRANCH  20  21
ENDBRANCH  18  20
ENDBRANCH  14  18
BRANCH   1  23
ATOM     23  C   UNL     1       1.003  10.506  21.150  0.00  0.00    +0.000 C 
BRANCH  23  24
ATOM     24  N   UNL     1       0.658   9.089  20.903  0.00  0.00    +0.000 NA
ATOM     25  C   UNL     1      -0.528   8.744  21.709  0.00  0.00    +0.000 C 
BRANCH  24  26
ATOM     26  C   UNL     1       1.760   8.165  21.218  0.00  0.00    +0.000 C 
BRANCH  26  32
ATOM     27  C   UNL     1       1.262   3.238  20.385  0.00  0.00    +0.000 C 
ATOM     28  C   UNL     1       1.627   4.594  19.863  0.00  0.00    +0.000 A 
ATOM     29  C   UNL     1       2.132   4.757  18.569  0.00  0.00    +0.000 A 
ATOM     30  C   UNL     1       2.527   6.016  18.122  0.00  0.00    +0.000 A 
ATOM     31  C   UNL     1       2.417   7.120  18.968  0.00  0.00    +0.000 A 
ATOM     32  C   UNL     1       1.883   6.989  20.259  0.00  0.00    +0.000 A 
ATOM     33  C   UNL     1       1.500   5.715  20.697  0.00  0.00    +0.000 A 
ENDBRANCH  26  32
ENDBRANCH  24  26
ENDBRANCH  23  24
ENDBRANCH   1  23
TORSDOF 7
ENDMDL
