MODEL 1
REMARK VINA RESULT:      -6.2      0.000      0.000
REMARK  Name = 
REMARK  15 active torsions:
REMARK  status: ('A' for Active; 'I' for Inactive)
REMARK    1  A    between atoms: C_1  and  O_2
REMARK    2  A    between atoms: O_2  and  C_3
REMARK    3  A    between atoms: C_3  and  C_5
REMARK    4  A    between atoms: C_5  and  N_6
REMARK    5  A    between atoms: C_5  and  C_15
REMARK    6  A    between atoms: C_7  and  C_9
REMARK    7  A    between atoms: C_9  and  N_10
REMARK    8  A    between atoms: C_9  and  C_11
REMARK    9  A    between atoms: C_11  and  C_12
REMARK   10  A    between atoms: C_12  and  O_14
REMARK   11  A    between atoms: C_15  and  O_17
REMARK   12  A    between atoms: O_17  and  C_18
REMARK   13  A    between atoms: C_18  and  C_19
REMARK   14  A    between atoms: C_18  and  C_20
REMARK   15  A    between atoms: C_18  and  C_21
REMARK                            x       y       z     vdW  Elec       q    Type
REMARK                         _______ _______ _______ _____ _____    ______ ____
ROOT
ATOM      1  N   UNL     1       4.854   5.960  18.129  0.00  0.00    +0.000 N 
ATOM      2  C   UNL     1       6.044   5.517  18.643  0.00  0.00    +0.000 C 
ATOM      3  O   UNL     1       6.114   4.897  19.700  0.00  0.00    +0.000 OA
ATOM      4  H   UNL     1       4.901   6.484  17.256  0.00  0.00    +0.000 HD
ENDROOT
BRANCH   1   5
ATOM      5  C   UNL     1       3.559   5.690  18.769  0.00  0.00    +0.000 C 
BRANCH   5   6
ATOM      6  C   UNL     1       2.721   6.951  18.945  0.00  0.00    +0.000 C 
ATOM      7  O   UNL     1       2.169   7.274  19.990  0.00  0.00    +0.000 OA
BRANCH   6   9
ATOM      8  C   UNL     1       2.002   8.943  17.848  0.00  0.00    +0.000 C 
ATOM      9  O   UNL     1       2.754   7.727  17.820  0.00  0.00    +0.000 OA
ENDBRANCH   6   9
ENDBRANCH   5   6
BRANCH   5  10
ATOM     10  C   UNL     1       2.791   4.626  17.985  0.00  0.00    +0.000 C 
ATOM     11  O   UNL     1       3.160   4.173  16.908  0.00  0.00    +0.000 OA
BRANCH  10  12
ATOM     12  O   UNL     1       1.661   4.256  18.657  0.00  0.00    +0.000 OA
BRANCH  12  13
ATOM     13  C   UNL     1       1.662   3.099  19.541  0.00  0.00    +0.000 C 
ATOM     14  C   UNL     1       1.179   3.493  20.942  0.00  0.00    +0.000 C 
ATOM     15  C   UNL     1       0.642   2.114  18.940  0.00  0.00    +0.000 C 
ATOM     16  C   UNL     1       3.026   2.403  19.573  0.00  0.00    +0.000 C 
ENDBRANCH  12  13
ENDBRANCH  10  12
ENDBRANCH   5  10
ENDBRANCH   1   5
BRANCH   2  17
ATOM     17  C   UNL     1       7.282   5.860  17.782  0.00  0.00    +0.000 C 
BRANCH  17  18
ATOM     18  N   UNL     1       7.081   7.159  17.087  0.00  0.00    +0.000 NA
ATOM     19  H   UNL     1       7.721   7.855  17.472  0.00  0.00    +0.000 HD
ATOM     20  H   UNL     1       6.143   7.494  17.346  0.00  0.00    +0.000 HD
ENDBRANCH  17  18
BRANCH  17  21
ATOM     21  C   UNL     1       7.532   4.695  16.818  0.00  0.00    +0.000 C 
BRANCH  21  22
ATOM     22  C   UNL     1       6.996   4.957  15.439  0.00  0.00    +0.000 C 
ATOM     23  O   UNL     1       7.661   5.327  14.484  0.00  0.00    +0.000 OA
BRANCH  22  24
ATOM     24  O   UNL     1       5.658   4.772  15.358  0.00  0.00    +0.000 OA
ATOM     25  H   UNL     1       5.131   5.574  15.540  0.00  0.00    +0.000 HD
ENDBRANCH  22  24
ENDBRANCH  21  22
ENDBRANCH  17  21
ENDBRANCH   2  17
TORSDOF 11
ENDMDL
MODEL 2
REMARK VINA RESULT:      -6.1      0.199      1.186
REMARK  Name = 
REMARK  15 active torsions:
REMARK  status: ('A' for Active; 'I' for Inactive)
REMARK    1  A    between atoms: C_1  and  O_2
REMARK    2  A    between atoms: O_2  and  C_3
REMARK    3  A    between atoms: C_3  and  C_5
REMARK    4  A    between atoms: C_5  and  N_6
REMARK    5  A    between atoms: C_5  and  C_15
REMARK    6  A    between atoms: C_7  and  C_9
REMARK    7  A    between atoms: C_9  and  N_10
REMARK    8  A    between atoms: C_9  and  C_11
REMARK    9  A    between atoms: C_11  and  C_12
REMARK   10  A    between atoms: C_12  and  O_14
REMARK   11  A    between atoms: C_15  and  O_17
REMARK   12  A    between atoms: O_17  and  C_18
REMARK   13  A    between atoms: C_18  and  C_19
REMARK   14  A    between atoms: C_18  and  C_20
REMARK   15  A    between atoms: C_18  and  C_21
REMARK                            x       y       z     vdW  Elec       q    Type
REMARK                         _______ _______ _______ _____ _____    ______ ____
ROOT
ATOM      1  N   UNL     1       4.929   5.946  18.095  0.00  0.00    +0.000 N 
ATOM      2  C   UNL     1       6.146   5.600  18.618  0.00  0.00    +0.000 C 
ATOM      3  O   UNL     1       6.268   5.132  19.747  0.00  0.00    +0.000 OA
ATOM      4  H   UNL     1       4.932   6.346  17.157  0.00  0.00    +0.000 HD
ENDROOT
BRANCH   1   5
ATOM      5  C   UNL     1       3.663   5.743  18.814  0.00  0.00    +0.000 C 
BRANCH   5   6
ATOM      6  C   UNL     1       2.861   7.030  18.960  0.00  0.00    +0.000 C 
ATOM      7  O   UNL     1       2.312   7.390  19.994  0.00  0.00    +0.000 OA
BRANCH   6   9
ATOM      8  C   UNL     1       2.096   8.947  17.764  0.00  0.00    +0.000 C 
ATOM      9  O   UNL     1       2.925   7.783  17.820  0.00  0.00    +0.000 OA
ENDBRANCH   6   9
ENDBRANCH   5   6
BRANCH   5  10
ATOM     10  C   UNL     1       2.835   4.654  18.133  0.00  0.00    +0.000 C 
ATOM     11  O   UNL     1       3.114   4.164  17.046  0.00  0.00    +0.000 OA
BRANCH  10  12
ATOM     12  O   UNL     1       1.765   4.308  18.909  0.00  0.00    +0.000 OA
BRANCH  12  13
ATOM     13  C   UNL     1       1.709   3.012  19.570  0.00  0.00    +0.000 C 
ATOM     14  C   UNL     1       3.103   2.376  19.625  0.00  0.00    +0.000 C 
ATOM     15  C   UNL     1       1.252   3.297  21.012  0.00  0.00    +0.000 C 
ATOM     16  C   UNL     1       0.675   2.084  18.924  0.00  0.00    +0.000 C 
ENDBRANCH  12  13
ENDBRANCH  10  12
ENDBRANCH   5  10
ENDBRANCH   1   5
BRANCH   2  17
ATOM     17  C   UNL     1       7.344   5.844  17.673  0.00  0.00    +0.000 C 
BRANCH  17  18
ATOM     18  N   UNL     1       7.231   7.183  17.035  0.00  0.00    +0.000 NA
ATOM     19  H   UNL     1       7.766   7.192  16.165  0.00  0.00    +0.000 HD
ATOM     20  H   UNL     1       7.719   7.848  17.650  0.00  0.00    +0.000 HD
ENDBRANCH  17  18
BRANCH  17  21
ATOM     21  C   UNL     1       7.394   4.697  16.657  0.00  0.00    +0.000 C 
BRANCH  21  22
ATOM     22  C   UNL     1       6.846   5.087  15.313  0.00  0.00    +0.000 C 
ATOM     23  O   UNL     1       5.662   5.110  15.016  0.00  0.00    +0.000 OA
BRANCH  22  24
ATOM     24  O   UNL     1       7.820   5.386  14.423  0.00  0.00    +0.000 OA
ATOM     25  H   UNL     1       8.693   5.559  14.825  0.00  0.00    +0.000 HD
ENDBRANCH  22  24
ENDBRANCH  21  22
ENDBRANCH  17  21
ENDBRANCH   2  17
TORSDOF 11
ENDMDL
MODEL 3
REMARK VINA RESULT:      -6.0      0.886      1.164
REMARK  Name = 
REMARK  15 active torsions:
REMARK  status: ('A' for Active; 'I' for Inactive)
REMARK    1  A    between atoms: C_1  and  O_2
REMARK    2  A    between atoms: O_2  and  C_3
REMARK    3  A    between atoms: C_3  and  C_5
REMARK    4  A    between atoms: C_5  and  N_6
REMARK    5  A    between atoms: C_5  and  C_15
REMARK    6  A    between atoms: C_7  and  C_9
REMARK    7  A    between atoms: C_9  and  N_10
REMARK    8  A    between atoms: C_9  and  C_11
REMARK    9  A    between atoms: C_11  and  C_12
REMARK   10  A    between atoms: C_12  and  O_14
REMARK   11  A    between atoms: C_15  and  O_17
REMARK   12  A    between atoms: O_17  and  C_18
REMARK   13  A    between atoms: C_18  and  C_19
REMARK   14  A    between atoms: C_18  and  C_20
REMARK   15  A    between atoms: C_18  and  C_21
REMARK                            x       y       z     vdW  Elec       q    Type
REMARK                         _______ _______ _______ _____ _____    ______ ____
ROOT
ATOM      1  N   UNL     1       4.984   6.044  18.133  0.00  0.00    +0.000 N 
ATOM      2  C   UNL     1       6.190   5.624  18.626  0.00  0.00    +0.000 C 
ATOM      3  O   UNL     1       6.317   5.180  19.763  0.00  0.00    +0.000 OA
ATOM      4  H   UNL     1       4.983   6.416  17.184  0.00  0.00    +0.000 HD
ENDROOT
BRANCH   1   5
ATOM      5  C   UNL     1       3.733   5.955  18.899  0.00  0.00    +0.000 C 
BRANCH   5   6
ATOM      6  C   UNL     1       2.840   7.175  18.703  0.00  0.00    +0.000 C 
ATOM      7  O   UNL     1       2.805   7.849  17.681  0.00  0.00    +0.000 OA
BRANCH   6   9
ATOM      8  C   UNL     1       1.523   8.679  20.003  0.00  0.00    +0.000 C 
ATOM      9  O   UNL     1       2.007   7.353  19.773  0.00  0.00    +0.000 OA
ENDBRANCH   6   9
ENDBRANCH   5   6
BRANCH   5  10
ATOM     10  C   UNL     1       2.987   4.668  18.551  0.00  0.00    +0.000 C 
ATOM     11  O   UNL     1       2.321   4.519  17.534  0.00  0.00    +0.000 OA
BRANCH  10  12
ATOM     12  O   UNL     1       3.181   3.723  19.519  0.00  0.00    +0.000 OA
BRANCH  12  13
ATOM     13  C   UNL     1       2.054   3.159  20.248  0.00  0.00    +0.000 C 
ATOM     14  C   UNL     1       0.926   4.190  20.376  0.00  0.00    +0.000 C 
ATOM     15  C   UNL     1       1.541   1.990  19.386  0.00  0.00    +0.000 C 
ATOM     16  C   UNL     1       2.477   2.591  21.607  0.00  0.00    +0.000 C 
ENDBRANCH  12  13
ENDBRANCH  10  12
ENDBRANCH   5  10
ENDBRANCH   1   5
BRANCH   2  17
ATOM     17  C   UNL     1       7.369   5.751  17.634  0.00  0.00    +0.000 C 
BRANCH  17  18
ATOM     18  N   UNL     1       7.363   7.097  16.999  0.00  0.00    +0.000 NA
ATOM     19  H   UNL     1       7.976   7.723  17.521  0.00  0.00    +0.000 HD
ATOM     20  H   UNL     1       6.419   7.484  17.130  0.00  0.00    +0.000 HD
ENDBRANCH  17  18
BRANCH  17  21
ATOM     21  C   UNL     1       7.267   4.607  16.619  0.00  0.00    +0.000 C 
BRANCH  21  22
ATOM     22  C   UNL     1       6.871   5.080  15.248  0.00  0.00    +0.000 C 
ATOM     23  O   UNL     1       7.649   5.375  14.354  0.00  0.00    +0.000 OA
BRANCH  22  24
ATOM     24  O   UNL     1       5.530   5.187  15.103  0.00  0.00    +0.000 OA
ATOM     25  H   UNL     1       5.250   5.848  14.441  0.00  0.00    +0.000 HD
ENDBRANCH  22  24
ENDBRANCH  21  22
ENDBRANCH  17  21
ENDBRANCH   2  17
TORSDOF 11
ENDMDL
MODEL 4
REMARK VINA RESULT:      -6.0      2.154      5.763
REMARK  Name = 
REMARK  15 active torsions:
REMARK  status: ('A' for Active; 'I' for Inactive)
REMARK    1  A    between atoms: C_1  and  O_2
REMARK    2  A    between atoms: O_2  and  C_3
REMARK    3  A    between atoms: C_3  and  C_5
REMARK    4  A    between atoms: C_5  and  N_6
REMARK    5  A    between atoms: C_5  and  C_15
REMARK    6  A    between atoms: C_7  and  C_9
REMARK    7  A    between atoms: C_9  and  N_10
REMARK    8  A    between atoms: C_9  and  C_11
REMARK    9  A    between atoms: C_11  and  C_12
REMARK   10  A    between atoms: C_12  and  O_14
REMARK   11  A    between atoms: C_15  and  O_17
REMARK   12  A    between atoms: O_17  and  C_18
REMARK   13  A    between atoms: C_18  and  C_19
REMARK   14  A    between atoms: C_18  and  C_20
REMARK   15  A    between atoms: C_18  and  C_21
REMARK                            x       y       z     vdW  Elec       q    Type
REMARK                         _______ _______ _______ _____ _____    ______ ____
ROOT
ATOM      1  N   UNL     1       5.496   4.308  19.054  0.00  0.00    +0.000 N 
ATOM      2  C   UNL     1       4.142   4.495  18.983  0.00  0.00    +0.000 C 
ATOM      3  O   UNL     1       3.638   5.424  18.358  0.00  0.00    +0.000 OA
ATOM      4  H   UNL     1       5.819   3.520  19.614  0.00  0.00    +0.000 HD
ENDROOT
BRANCH   1   5
ATOM      5  C   UNL     1       6.459   5.169  18.353  0.00  0.00    +0.000 C 
BRANCH   5   6
ATOM      6  C   UNL     1       7.488   5.783  19.295  0.00  0.00    +0.000 C 
ATOM      7  O   UNL     1       7.752   5.349  20.409  0.00  0.00    +0.000 OA
BRANCH   6   9
ATOM      8  C   UNL     1       7.407   7.620  17.775  0.00  0.00    +0.000 C 
ATOM      9  O   UNL     1       8.153   6.816  18.693  0.00  0.00    +0.000 OA
ENDBRANCH   6   9
ENDBRANCH   5   6
BRANCH   5  10
ATOM     10  C   UNL     1       7.141   4.394  17.226  0.00  0.00    +0.000 C 
ATOM     11  O   UNL     1       8.342   4.152  17.194  0.00  0.00    +0.000 OA
BRANCH  10  12
ATOM     12  O   UNL     1       6.228   4.009  16.286  0.00  0.00    +0.000 OA
BRANCH  12  13
ATOM     13  C   UNL     1       6.040   4.783  15.066  0.00  0.00    +0.000 C 
ATOM     14  C   UNL     1       5.269   6.075  15.364  0.00  0.00    +0.000 C 
ATOM     15  C   UNL     1       7.454   5.165  14.591  0.00  0.00    +0.000 C 
ATOM     16  C   UNL     1       5.378   3.956  13.959  0.00  0.00    +0.000 C 
ENDBRANCH  12  13
ENDBRANCH  10  12
ENDBRANCH   5  10
ENDBRANCH   1   5
BRANCH   2  17
ATOM     17  C   UNL     1       3.307   3.442  19.747  0.00  0.00    +0.000 C 
BRANCH  17  18
ATOM     18  N   UNL     1       3.498   2.097  19.142  0.00  0.00    +0.000 NA
ATOM     19  H   UNL     1       4.087   1.529  19.751  0.00  0.00    +0.000 HD
ATOM     20  H   UNL     1       4.056   2.231  18.288  0.00  0.00    +0.000 HD
ENDBRANCH  17  18
BRANCH  17  21
ATOM     21  C   UNL     1       1.844   3.899  19.748  0.00  0.00    +0.000 C 
BRANCH  21  22
ATOM     22  C   UNL     1       1.024   3.224  18.685  0.00  0.00    +0.000 C 
ATOM     23  O   UNL     1       0.297   2.260  18.863  0.00  0.00    +0.000 OA
BRANCH  22  24
ATOM     24  O   UNL     1       1.200   3.779  17.463  0.00  0.00    +0.000 OA
ATOM     25  H   UNL     1       2.089   4.156  17.317  0.00  0.00    +0.000 HD
ENDBRANCH  22  24
ENDBRANCH  21  22
ENDBRANCH  17  21
ENDBRANCH   2  17
TORSDOF 11
ENDMDL
MODEL 5
REMARK VINA RESULT:      -5.9      2.083      6.001
REMARK  Name = 
REMARK  15 active torsions:
REMARK  status: ('A' for Active; 'I' for Inactive)
REMARK    1  A    between atoms: C_1  and  O_2
REMARK    2  A    between atoms: O_2  and  C_3
REMARK    3  A    between atoms: C_3  and  C_5
REMARK    4  A    between atoms: C_5  and  N_6
REMARK    5  A    between atoms: C_5  and  C_15
REMARK    6  A    between atoms: C_7  and  C_9
REMARK    7  A    between atoms: C_9  and  N_10
REMARK    8  A    between atoms: C_9  and  C_11
REMARK    9  A    between atoms: C_11  and  C_12
REMARK   10  A    between atoms: C_12  and  O_14
REMARK   11  A    between atoms: C_15  and  O_17
REMARK   12  A    between atoms: O_17  and  C_18
REMARK   13  A    between atoms: C_18  and  C_19
REMARK   14  A    between atoms: C_18  and  C_20
REMARK   15  A    between atoms: C_18  and  C_21
REMARK                            x       y       z     vdW  Elec       q    Type
REMARK                         _______ _______ _______ _____ _____    ______ ____
ROOT
ATOM      1  N   UNL     1       5.220   4.625  18.447  0.00  0.00    +0.000 N 
ATOM      2  C   UNL     1       4.016   5.250  18.630  0.00  0.00    +0.000 C 
ATOM      3  O   UNL     1       3.860   6.450  18.423  0.00  0.00    +0.000 OA
ATOM      4  H   UNL     1       5.254   3.629  18.665  0.00  0.00    +0.000 HD
ENDROOT
BRANCH   1   5
ATOM      5  C   UNL     1       6.412   5.319  17.943  0.00  0.00    +0.000 C 
BRANCH   5   6
ATOM      6  C   UNL     1       7.299   5.847  19.065  0.00  0.00    +0.000 C 
ATOM      7  O   UNL     1       7.393   5.333  20.172  0.00  0.00    +0.000 OA
BRANCH   6   9
ATOM      8  C   UNL     1       7.483   7.750  17.638  0.00  0.00    +0.000 C 
ATOM      9  O   UNL     1       8.055   6.904  18.640  0.00  0.00    +0.000 OA
ENDBRANCH   6   9
ENDBRANCH   5   6
BRANCH   5  10
ATOM     10  C   UNL     1       7.201   4.408  17.004  0.00  0.00    +0.000 C 
ATOM     11  O   UNL     1       8.375   4.105  17.173  0.00  0.00    +0.000 OA
BRANCH  10  12
ATOM     12  O   UNL     1       6.412   3.980  15.974  0.00  0.00    +0.000 OA
BRANCH  12  13
ATOM     13  C   UNL     1       6.174   4.827  14.813  0.00  0.00    +0.000 C 
ATOM     14  C   UNL     1       7.503   5.238  14.167  0.00  0.00    +0.000 C 
ATOM     15  C   UNL     1       5.402   3.952  13.808  0.00  0.00    +0.000 C 
ATOM     16  C   UNL     1       5.298   6.036  15.154  0.00  0.00    +0.000 C 
ENDBRANCH  12  13
ENDBRANCH  10  12
ENDBRANCH   5  10
ENDBRANCH   1   5
BRANCH   2  17
ATOM     17  C   UNL     1       2.876   4.323  19.112  0.00  0.00    +0.000 C 
BRANCH  17  18
ATOM     18  N   UNL     1       1.741   4.362  18.151  0.00  0.00    +0.000 NA
ATOM     19  H   UNL     1       1.002   4.961  18.522  0.00  0.00    +0.000 HD
ATOM     20  H   UNL     1       1.331   3.419  18.136  0.00  0.00    +0.000 HD
ENDBRANCH  17  18
BRANCH  17  21
ATOM     21  C   UNL     1       2.479   4.749  20.530  0.00  0.00    +0.000 C 
BRANCH  21  22
ATOM     22  C   UNL     1       1.791   3.654  21.294  0.00  0.00    +0.000 C 
ATOM     23  O   UNL     1       2.227   3.116  22.300  0.00  0.00    +0.000 OA
BRANCH  22  24
ATOM     24  O   UNL     1       0.620   3.281  20.726  0.00  0.00    +0.000 OA
ATOM     25  H   UNL     1       0.657   3.188  19.755  0.00  0.00    +0.000 HD
ENDBRANCH  22  24
ENDBRANCH  21  22
ENDBRANCH  17  21
ENDBRANCH   2  17
TORSDOF 11
ENDMDL
MODEL 6
REMARK VINA RESULT:      -5.9      1.345      1.572
REMARK  Name = 
REMARK  15 active torsions:
REMARK  status: ('A' for Active; 'I' for Inactive)
REMARK    1  A    between atoms: C_1  and  O_2
REMARK    2  A    between atoms: O_2  and  C_3
REMARK    3  A    between atoms: C_3  and  C_5
REMARK    4  A    between atoms: C_5  and  N_6
REMARK    5  A    between atoms: C_5  and  C_15
REMARK    6  A    between atoms: C_7  and  C_9
REMARK    7  A    between atoms: C_9  and  N_10
REMARK    8  A    between atoms: C_9  and  C_11
REMARK    9  A    between atoms: C_11  and  C_12
REMARK   10  A    between atoms: C_12  and  O_14
REMARK   11  A    between atoms: C_15  and  O_17
REMARK   12  A    between atoms: O_17  and  C_18
REMARK   13  A    between atoms: C_18  and  C_19
REMARK   14  A    between atoms: C_18  and  C_20
REMARK   15  A    between atoms: C_18  and  C_21
REMARK                            x       y       z     vdW  Elec       q    Type
REMARK                         _______ _______ _______ _____ _____    ______ ____
ROOT
ATOM      1  N   UNL     1       4.256   5.064  17.471  0.00  0.00    +0.000 N 
ATOM      2  C   UNL     1       5.479   4.552  17.813  0.00  0.00    +0.000 C 
ATOM      3  O   UNL     1       5.870   4.504  18.976  0.00  0.00    +0.000 OA
ATOM      4  H   UNL     1       4.030   5.079  16.477  0.00  0.00    +0.000 HD
ENDROOT
BRANCH   1   5
ATOM      5  C   UNL     1       3.288   5.551  18.464  0.00  0.00    +0.000 C 
BRANCH   5   6
ATOM      6  C   UNL     1       3.003   7.041  18.319  0.00  0.00    +0.000 C 
ATOM      7  O   UNL     1       3.400   7.734  17.391  0.00  0.00    +0.000 OA
BRANCH   6   9
ATOM      8  C   UNL     1       1.614   8.793  19.149  0.00  0.00    +0.000 C 
ATOM      9  O   UNL     1       2.157   7.479  19.300  0.00  0.00    +0.000 OA
ENDBRANCH   6   9
ENDBRANCH   5   6
BRANCH   5  10
ATOM     10  C   UNL     1       1.997   4.735  18.391  0.00  0.00    +0.000 C 
ATOM     11  O   UNL     1       1.388   4.513  17.352  0.00  0.00    +0.000 OA
BRANCH  10  12
ATOM     12  O   UNL     1       1.638   4.292  19.633  0.00  0.00    +0.000 OA
BRANCH  12  13
ATOM     13  C   UNL     1       1.747   2.883  19.983  0.00  0.00    +0.000 C 
ATOM     14  C   UNL     1       1.448   2.676  21.473  0.00  0.00    +0.000 C 
ATOM     15  C   UNL     1       0.655   2.164  19.169  0.00  0.00    +0.000 C 
ATOM     16  C   UNL     1       3.102   2.294  19.577  0.00  0.00    +0.000 C 
ENDBRANCH  12  13
ENDBRANCH  10  12
ENDBRANCH   5  10
ENDBRANCH   1   5
BRANCH   2  17
ATOM     17  C   UNL     1       6.318   4.042  16.620  0.00  0.00    +0.000 C 
BRANCH  17  18
ATOM     18  N   UNL     1       7.767   4.257  16.881  0.00  0.00    +0.000 NA
ATOM     19  H   UNL     1       8.010   3.869  17.793  0.00  0.00    +0.000 HD
ATOM     20  H   UNL     1       7.904   5.272  16.983  0.00  0.00    +0.000 HD
ENDBRANCH  17  18
BRANCH  17  21
ATOM     21  C   UNL     1       5.825   4.747  15.351  0.00  0.00    +0.000 C 
BRANCH  21  22
ATOM     22  C   UNL     1       6.811   4.664  14.220  0.00  0.00    +0.000 C 
ATOM     23  O   UNL     1       7.732   5.443  14.030  0.00  0.00    +0.000 OA
BRANCH  22  24
ATOM     24  O   UNL     1       6.556   3.631  13.384  0.00  0.00    +0.000 OA
ATOM     25  H   UNL     1       6.493   3.882  12.443  0.00  0.00    +0.000 HD
ENDBRANCH  22  24
ENDBRANCH  21  22
ENDBRANCH  17  21
ENDBRANCH   2  17
TORSDOF 11
ENDMDL
MODEL 7
REMARK VINA RESULT:      -5.9      2.172      5.831
REMARK  Name = 
REMARK  15 active torsions:
REMARK  status: ('A' for Active; 'I' for Inactive)
REMARK    1  A    between atoms: C_1  and  O_2
REMARK    2  A    between atoms: O_2  and  C_3
REMARK    3  A    between atoms: C_3  and  C_5
REMARK    4  A    between atoms: C_5  and  N_6
REMARK    5  A    between atoms: C_5  and  C_15
REMARK    6  A    between atoms: C_7  and  C_9
REMARK    7  A    between atoms: C_9  and  N_10
REMARK    8  A    between atoms: C_9  and  C_11
REMARK    9  A    between atoms: C_11  and  C_12
REMARK   10  A    between atoms: C_12  and  O_14
REMARK   11  A    between atoms: C_15  and  O_17
REMARK   12  A    between atoms: O_17  and  C_18
REMARK   13  A    between atoms: C_18  and  C_19
REMARK   14  A    between atoms: C_18  and  C_20
REMARK   15  A    between atoms: C_18  and  C_21
REMARK                            x       y       z     vdW  Elec       q    Type
REMARK                         _______ _______ _______ _____ _____    ______ ____
ROOT
ATOM      1  N   UNL     1       2.904   4.130  18.619  0.00  0.00    +0.000 N 
ATOM      2  C   UNL     1       2.607   2.800  18.490  0.00  0.00    +0.000 C 
ATOM      3  O   UNL     1       3.285   2.037  17.807  0.00  0.00    +0.000 OA
ATOM      4  H   UNL     1       2.270   4.686  19.192  0.00  0.00    +0.000 HD
ENDROOT
BRANCH   1   5
ATOM      5  C   UNL     1       4.083   4.749  17.996  0.00  0.00    +0.000 C 
BRANCH   5   6
ATOM      6  C   UNL     1       3.837   6.199  17.596  0.00  0.00    +0.000 C 
ATOM      7  O   UNL     1       4.302   6.728  16.593  0.00  0.00    +0.000 OA
BRANCH   6   9
ATOM      8  C   UNL     1       2.351   8.022  17.994  0.00  0.00    +0.000 C 
ATOM      9  O   UNL     1       2.946   6.800  18.441  0.00  0.00    +0.000 OA
ENDBRANCH   6   9
ENDBRANCH   5   6
BRANCH   5  10
ATOM     10  C   UNL     1       5.295   4.632  18.920  0.00  0.00    +0.000 C 
ATOM     11  O   UNL     1       5.572   3.624  19.558  0.00  0.00    +0.000 OA
BRANCH  10  12
ATOM     12  O   UNL     1       6.014   5.794  18.918  0.00  0.00    +0.000 OA
BRANCH  12  13
ATOM     13  C   UNL     1       7.361   5.838  18.367  0.00  0.00    +0.000 C 
ATOM     14  C   UNL     1       7.619   7.190  17.690  0.00  0.00    +0.000 C 
ATOM     15  C   UNL     1       8.310   5.714  19.572  0.00  0.00    +0.000 C 
ATOM     16  C   UNL     1       7.635   4.659  17.428  0.00  0.00    +0.000 C 
ENDBRANCH  12  13
ENDBRANCH  10  12
ENDBRANCH   5  10
ENDBRANCH   1   5
BRANCH   2  17
ATOM     17  C   UNL     1       1.356   2.342  19.274  0.00  0.00    +0.000 C 
BRANCH  17  18
ATOM     18  N   UNL     1       0.284   1.922  18.333  0.00  0.00    +0.000 NA
ATOM     19  H   UNL     1      -0.519   1.580  18.861  0.00  0.00    +0.000 HD
ATOM     20  H   UNL     1       0.637   1.098  17.828  0.00  0.00    +0.000 HD
ENDBRANCH  17  18
BRANCH  17  21
ATOM     21  C   UNL     1       0.927   3.485  20.202  0.00  0.00    +0.000 C 
BRANCH  21  22
ATOM     22  C   UNL     1       1.828   3.633  21.395  0.00  0.00    +0.000 C 
ATOM     23  O   UNL     1       1.989   2.792  22.265  0.00  0.00    +0.000 OA
BRANCH  22  24
ATOM     24  O   UNL     1       2.438   4.841  21.438  0.00  0.00    +0.000 OA
ATOM     25  H   UNL     1       3.329   4.827  21.838  0.00  0.00    +0.000 HD
ENDBRANCH  22  24
ENDBRANCH  21  22
ENDBRANCH  17  21
ENDBRANCH   2  17
TORSDOF 11
ENDMDL
MODEL 8
REMARK VINA RESULT:      -5.9      1.996      5.663
REMARK  Name = 
REMARK  15 active torsions:
REMARK  status: ('A' for Active; 'I' for Inactive)
REMARK    1  A    between atoms: C_1  and  O_2
REMARK    2  A    between atoms: O_2  and  C_3
REMARK    3  A    between atoms: C_3  and  C_5
REMARK    4  A    between atoms: C_5  and  N_6
REMARK    5  A    between atoms: C_5  and  C_15
REMARK    6  A    between atoms: C_7  and  C_9
REMARK    7  A    between atoms: C_9  and  N_10
REMARK    8  A    between atoms: C_9  and  C_11
REMARK    9  A    between atoms: C_11  and  C_12
REMARK   10  A    between atoms: C_12  and  O_14
REMARK   11  A    between atoms: C_15  and  O_17
REMARK   12  A    between atoms: O_17  and  C_18
REMARK   13  A    between atoms: C_18  and  C_19
REMARK   14  A    between atoms: C_18  and  C_20
REMARK   15  A    between atoms: C_18  and  C_21
REMARK                            x       y       z     vdW  Elec       q    Type
REMARK                         _______ _______ _______ _____ _____    ______ ____
ROOT
ATOM      1  N   UNL     1       3.311   4.918  18.321  0.00  0.00    +0.000 N 
ATOM      2  C   UNL     1       2.366   3.944  18.143  0.00  0.00    +0.000 C 
ATOM      3  O   UNL     1       1.443   4.061  17.341  0.00  0.00    +0.000 OA
ATOM      4  H   UNL     1       4.026   4.736  19.025  0.00  0.00    +0.000 HD
ENDROOT
BRANCH   1   5
ATOM      5  C   UNL     1       3.334   6.161  17.539  0.00  0.00    +0.000 C 
BRANCH   5   6
ATOM      6  C   UNL     1       2.699   7.331  18.281  0.00  0.00    +0.000 C 
ATOM      7  O   UNL     1       2.361   8.384  17.754  0.00  0.00    +0.000 OA
BRANCH   6   9
ATOM      8  C   UNL     1       1.672   7.936  20.347  0.00  0.00    +0.000 C 
ATOM      9  O   UNL     1       2.457   7.012  19.589  0.00  0.00    +0.000 OA
ENDBRANCH   6   9
ENDBRANCH   5   6
BRANCH   5  10
ATOM     10  C   UNL     1       4.764   6.494  17.112  0.00  0.00    +0.000 C 
ATOM     11  O   UNL     1       5.072   6.856  15.983  0.00  0.00    +0.000 OA
BRANCH  10  12
ATOM     12  O   UNL     1       5.626   6.341  18.160  0.00  0.00    +0.000 OA
BRANCH  12  13
ATOM     13  C   UNL     1       7.043   6.092  17.932  0.00  0.00    +0.000 C 
ATOM     14  C   UNL     1       7.739   7.366  17.438  0.00  0.00    +0.000 C 
ATOM     15  C   UNL     1       7.629   5.725  19.308  0.00  0.00    +0.000 C 
ATOM     16  C   UNL     1       7.272   4.904  16.991  0.00  0.00    +0.000 C 
ENDBRANCH  12  13
ENDBRANCH  10  12
ENDBRANCH   5  10
ENDBRANCH   1   5
BRANCH   2  17
ATOM     17  C   UNL     1       2.559   2.691  19.027  0.00  0.00    +0.000 C 
BRANCH  17  18
ATOM     18  N   UNL     1       2.731   1.483  18.176  0.00  0.00    +0.000 NA
ATOM     19  H   UNL     1       2.486   0.650  18.713  0.00  0.00    +0.000 HD
ATOM     20  H   UNL     1       3.739   1.389  17.992  0.00  0.00    +0.000 HD
ENDBRANCH  17  18
BRANCH  17  21
ATOM     21  C   UNL     1       1.363   2.589  19.981  0.00  0.00    +0.000 C 
BRANCH  21  22
ATOM     22  C   UNL     1       1.661   3.141  21.346  0.00  0.00    +0.000 C 
ATOM     23  O   UNL     1       1.484   2.549  22.399  0.00  0.00    +0.000 OA
BRANCH  22  24
ATOM     24  O   UNL     1       2.126   4.411  21.302  0.00  0.00    +0.000 OA
ATOM     25  H   UNL     1       3.058   4.488  21.022  0.00  0.00    +0.000 HD
ENDBRANCH  22  24
ENDBRANCH  21  22
ENDBRANCH  17  21
ENDBRANCH   2  17
TORSDOF 11
ENDMDL
MODEL 9
REMARK VINA RESULT:      -5.9      1.979      5.454
REMARK  Name = 
REMARK  15 active torsions:
REMARK  status: ('A' for Active; 'I' for Inactive)
REMARK    1  A    between atoms: C_1  and  O_2
REMARK    2  A    between atoms: O_2  and  C_3
REMARK    3  A    between atoms: C_3  and  C_5
REMARK    4  A    between atoms: C_5  and  N_6
REMARK    5  A    between atoms: C_5  and  C_15
REMARK    6  A    between atoms: C_7  and  C_9
REMARK    7  A    between atoms: C_9  and  N_10
REMARK    8  A    between atoms: C_9  and  C_11
REMARK    9  A    between atoms: C_11  and  C_12
REMARK   10  A    between atoms: C_12  and  O_14
REMARK   11  A    between atoms: C_15  and  O_17
REMARK   12  A    between atoms: O_17  and  C_18
REMARK   13  A    between atoms: C_18  and  C_19
REMARK   14  A    between atoms: C_18  and  C_20
REMARK   15  A    between atoms: C_18  and  C_21
REMARK                            x       y       z     vdW  Elec       q    Type
REMARK                         _______ _______ _______ _____ _____    ______ ____
ROOT
ATOM      1  N   UNL     1       3.361   4.753  18.258  0.00  0.00    +0.000 N 
ATOM      2  C   UNL     1       2.445   3.749  18.093  0.00  0.00    +0.000 C 
ATOM      3  O   UNL     1       1.459   3.871  17.372  0.00  0.00    +0.000 OA
ATOM      4  H   UNL     1       4.135   4.564  18.893  0.00  0.00    +0.000 HD
ENDROOT
BRANCH   1   5
ATOM      5  C   UNL     1       3.273   6.039  17.553  0.00  0.00    +0.000 C 
BRANCH   5   6
ATOM      6  C   UNL     1       2.553   7.105  18.370  0.00  0.00    +0.000 C 
ATOM      7  O   UNL     1       2.516   7.130  19.595  0.00  0.00    +0.000 OA
BRANCH   6   9
ATOM      8  C   UNL     1       1.974   9.405  18.115  0.00  0.00    +0.000 C 
ATOM      9  O   UNL     1       2.046   8.087  17.564  0.00  0.00    +0.000 OA
ENDBRANCH   6   9
ENDBRANCH   5   6
BRANCH   5  10
ATOM     10  C   UNL     1       4.664   6.513  17.137  0.00  0.00    +0.000 C 
ATOM     11  O   UNL     1       4.936   6.933  16.019  0.00  0.00    +0.000 OA
BRANCH  10  12
ATOM     12  O   UNL     1       5.539   6.413  18.182  0.00  0.00    +0.000 OA
BRANCH  12  13
ATOM     13  C   UNL     1       6.953   6.153  17.950  0.00  0.00    +0.000 C 
ATOM     14  C   UNL     1       7.676   7.442  17.542  0.00  0.00    +0.000 C 
ATOM     15  C   UNL     1       7.520   5.692  19.305  0.00  0.00    +0.000 C 
ATOM     16  C   UNL     1       7.170   5.022  16.940  0.00  0.00    +0.000 C 
ENDBRANCH  12  13
ENDBRANCH  10  12
ENDBRANCH   5  10
ENDBRANCH   1   5
BRANCH   2  17
ATOM     17  C   UNL     1       2.757   2.458  18.883  0.00  0.00    +0.000 C 
BRANCH  17  18
ATOM     18  N   UNL     1       1.555   1.583  18.935  0.00  0.00    +0.000 NA
ATOM     19  H   UNL     1       1.722   0.811  19.581  0.00  0.00    +0.000 HD
ATOM     20  H   UNL     1       1.469   1.139  18.011  0.00  0.00    +0.000 HD
ENDBRANCH  17  18
BRANCH  17  21
ATOM     21  C   UNL     1       3.270   2.857  20.271  0.00  0.00    +0.000 C 
BRANCH  21  22
ATOM     22  C   UNL     1       2.202   3.472  21.130  0.00  0.00    +0.000 C 
ATOM     23  O   UNL     1       1.221   2.886  21.560  0.00  0.00    +0.000 OA
BRANCH  22  24
ATOM     24  O   UNL     1       2.416   4.788  21.362  0.00  0.00    +0.000 OA
ATOM     25  H   UNL     1       1.616   5.284  21.624  0.00  0.00    +0.000 HD
ENDBRANCH  22  24
ENDBRANCH  21  22
ENDBRANCH  17  21
ENDBRANCH   2  17
TORSDOF 11
ENDMDL
