MODEL 1
REMARK VINA RESULT:      -8.3      0.000      0.000
REMARK  Name = 
REMARK  2 active torsions:
REMARK  status: ('A' for Active; 'I' for Inactive)
REMARK    1  A    between atoms: N_1  and  C_2
REMARK    2  A    between atoms: N_10  and  C_11
REMARK                            x       y       z     vdW  Elec       q    Type
REMARK                         _______ _______ _______ _____ _____    ______ ____
ROOT
ATOM      1  C   UNL     1       2.451   2.426  19.214  0.00  0.00    +0.000 A 
ATOM      2  C   UNL     1       1.425   2.341  20.168  0.00  0.00    +0.000 A 
ATOM      3  C   UNL     1       0.960   3.481  20.859  0.00  0.00    +0.000 A 
ATOM      4  C   UNL     1       1.476   4.745  20.576  0.00  0.00    +0.000 A 
ATOM      5  C   UNL     1       2.444   4.820  19.596  0.00  0.00    +0.000 A 
ATOM      6  C   UNL     1       2.917   3.701  18.934  0.00  0.00    +0.000 A 
ATOM      7  C   UNL     1       3.972   4.158  18.022  0.00  0.00    +0.000 C 
ATOM      8  O   UNL     1       4.710   3.410  17.411  0.00  0.00    +0.000 OA
ATOM      9  N   UNL     1       4.013   5.523  18.106  0.00  0.00    +0.000 N 
ATOM     10  C   UNL     1       3.152   5.980  19.068  0.00  0.00    +0.000 C 
ATOM     11  O   UNL     1       2.966   7.120  19.452  0.00  0.00    +0.000 OA
ENDROOT
BRANCH   9  12
ATOM     12  C   UNL     1       5.018   6.389  17.499  0.00  0.00    +0.000 C 
ATOM     13  C   UNL     1       4.885   6.653  15.999  0.00  0.00    +0.000 C 
ATOM     14  C   UNL     1       5.603   5.650  15.114  0.00  0.00    +0.000 C 
ATOM     15  C   UNL     1       7.010   5.379  15.579  0.00  0.00    +0.000 C 
ATOM     16  O   UNL     1       7.882   4.963  14.818  0.00  0.00    +0.000 OA
ATOM     17  N   UNL     1       7.276   5.555  16.911  0.00  0.00    +0.000 N 
ATOM     18  C   UNL     1       6.396   5.877  17.915  0.00  0.00    +0.000 C 
ATOM     19  O   UNL     1       6.713   5.698  19.090  0.00  0.00    +0.000 OA
ATOM     20  H   UNL     1       8.186   5.236  17.213  0.00  0.00    +0.000 HD
ENDBRANCH   9  12
BRANCH   1  21
ATOM     21  N   UNL     1       2.785   1.313  18.439  0.00  0.00    +0.000 N 
ATOM     22  H   UNL     1       3.076   0.494  18.962  0.00  0.00    +0.000 HD
ATOM     23  H   UNL     1       3.416   1.528  17.664  0.00  0.00    +0.000 HD
ENDBRANCH   1  21
TORSDOF 2
ENDMDL
MODEL 2
REMARK VINA RESULT:      -8.1      1.791      3.150
REMARK  Name = 
REMARK  2 active torsions:
REMARK  status: ('A' for Active; 'I' for Inactive)
REMARK    1  A    between atoms: N_1  and  C_2
REMARK    2  A    between atoms: N_10  and  C_11
REMARK                            x       y       z     vdW  Elec       q    Type
REMARK                         _______ _______ _______ _____ _____    ______ ____
ROOT
ATOM      1  C   UNL     1       2.063   4.675  20.091  0.00  0.00    +0.000 A 
ATOM      2  C   UNL     1       0.973   3.791  20.087  0.00  0.00    +0.000 A 
ATOM      3  C   UNL     1       0.872   2.743  19.147  0.00  0.00    +0.000 A 
ATOM      4  C   UNL     1       1.887   2.521  18.217  0.00  0.00    +0.000 A 
ATOM      5  C   UNL     1       2.978   3.363  18.269  0.00  0.00    +0.000 A 
ATOM      6  C   UNL     1       3.069   4.405  19.175  0.00  0.00    +0.000 A 
ATOM      7  C   UNL     1       4.323   5.110  18.892  0.00  0.00    +0.000 C 
ATOM      8  O   UNL     1       4.631   6.173  19.395  0.00  0.00    +0.000 OA
ATOM      9  N   UNL     1       4.967   4.409  17.909  0.00  0.00    +0.000 N 
ATOM     10  C   UNL     1       4.190   3.374  17.458  0.00  0.00    +0.000 C 
ATOM     11  O   UNL     1       4.413   2.582  16.562  0.00  0.00    +0.000 OA
ENDROOT
BRANCH   9  12
ATOM     12  C   UNL     1       6.169   4.833  17.200  0.00  0.00    +0.000 C 
ATOM     13  C   UNL     1       7.488   4.744  17.967  0.00  0.00    +0.000 C 
ATOM     14  C   UNL     1       7.843   5.987  18.762  0.00  0.00    +0.000 C 
ATOM     15  C   UNL     1       7.670   7.250  17.960  0.00  0.00    +0.000 C 
ATOM     16  O   UNL     1       8.277   8.285  18.229  0.00  0.00    +0.000 OA
ATOM     17  N   UNL     1       6.755   7.226  16.941  0.00  0.00    +0.000 N 
ATOM     18  C   UNL     1       5.899   6.210  16.595  0.00  0.00    +0.000 C 
ATOM     19  O   UNL     1       4.934   6.440  15.869  0.00  0.00    +0.000 OA
ATOM     20  H   UNL     1       6.565   8.122  16.512  0.00  0.00    +0.000 HD
ENDBRANCH   9  12
BRANCH   1  21
ATOM     21  N   UNL     1       2.213   5.604  21.123  0.00  0.00    +0.000 N 
ATOM     22  H   UNL     1       2.439   5.208  22.030  0.00  0.00    +0.000 HD
ATOM     23  H   UNL     1       1.454   6.287  21.172  0.00  0.00    +0.000 HD
ENDBRANCH   1  21
TORSDOF 2
ENDMDL
MODEL 3
REMARK VINA RESULT:      -7.9      1.516      2.207
REMARK  Name = 
REMARK  2 active torsions:
REMARK  status: ('A' for Active; 'I' for Inactive)
REMARK    1  A    between atoms: N_1  and  C_2
REMARK    2  A    between atoms: N_10  and  C_11
REMARK                            x       y       z     vdW  Elec       q    Type
REMARK                         _______ _______ _______ _____ _____    ______ ____
ROOT
ATOM      1  C   UNL     1       1.932   2.779  19.176  0.00  0.00    +0.000 A 
ATOM      2  C   UNL     1       0.970   3.295  20.060  0.00  0.00    +0.000 A 
ATOM      3  C   UNL     1       1.050   4.615  20.554  0.00  0.00    +0.000 A 
ATOM      4  C   UNL     1       2.067   5.472  20.135  0.00  0.00    +0.000 A 
ATOM      5  C   UNL     1       2.972   4.969  19.222  0.00  0.00    +0.000 A 
ATOM      6  C   UNL     1       2.908   3.668  18.755  0.00  0.00    +0.000 A 
ATOM      7  C   UNL     1       4.057   3.479  17.863  0.00  0.00    +0.000 C 
ATOM      8  O   UNL     1       4.395   2.401  17.412  0.00  0.00    +0.000 OA
ATOM      9  N   UNL     1       4.691   4.687  17.759  0.00  0.00    +0.000 N 
ATOM     10  C   UNL     1       4.116   5.613  18.588  0.00  0.00    +0.000 C 
ATOM     11  O   UNL     1       4.446   6.766  18.798  0.00  0.00    +0.000 OA
ENDROOT
BRANCH   9  12
ATOM     12  C   UNL     1       5.974   4.929  17.109  0.00  0.00    +0.000 C 
ATOM     13  C   UNL     1       7.224   4.794  17.978  0.00  0.00    +0.000 C 
ATOM     14  C   UNL     1       7.645   6.070  18.683  0.00  0.00    +0.000 C 
ATOM     15  C   UNL     1       7.652   7.260  17.759  0.00  0.00    +0.000 C 
ATOM     16  O   UNL     1       8.338   8.256  17.979  0.00  0.00    +0.000 OA
ATOM     17  N   UNL     1       6.809   7.222  16.680  0.00  0.00    +0.000 N 
ATOM     18  C   UNL     1       5.882   6.259  16.363  0.00  0.00    +0.000 C 
ATOM     19  O   UNL     1       4.995   6.506  15.548  0.00  0.00    +0.000 OA
ATOM     20  H   UNL     1       6.737   8.085  16.159  0.00  0.00    +0.000 HD
ENDBRANCH   9  12
BRANCH   1  21
ATOM     21  N   UNL     1       1.745   1.527  18.587  0.00  0.00    +0.000 N 
ATOM     22  H   UNL     1       2.581   1.106  18.193  0.00  0.00    +0.000 HD
ATOM     23  H   UNL     1       0.949   1.491  17.946  0.00  0.00    +0.000 HD
ENDBRANCH   1  21
TORSDOF 2
ENDMDL
MODEL 4
REMARK VINA RESULT:      -7.9      1.249      2.373
REMARK  Name = 
REMARK  2 active torsions:
REMARK  status: ('A' for Active; 'I' for Inactive)
REMARK    1  A    between atoms: N_1  and  C_2
REMARK    2  A    between atoms: N_10  and  C_11
REMARK                            x       y       z     vdW  Elec       q    Type
REMARK                         _______ _______ _______ _____ _____    ______ ____
ROOT
ATOM      1  C   UNL     1       1.435   4.121  19.813  0.00  0.00    +0.000 A 
ATOM      2  C   UNL     1       0.758   2.904  19.638  0.00  0.00    +0.000 A 
ATOM      3  C   UNL     1       1.180   1.950  18.687  0.00  0.00    +0.000 A 
ATOM      4  C   UNL     1       2.325   2.168  17.921  0.00  0.00    +0.000 A 
ATOM      5  C   UNL     1       3.012   3.343  18.143  0.00  0.00    +0.000 A 
ATOM      6  C   UNL     1       2.587   4.289  19.059  0.00  0.00    +0.000 A 
ATOM      7  C   UNL     1       3.521   5.416  18.974  0.00  0.00    +0.000 C 
ATOM      8  O   UNL     1       3.344   6.486  19.524  0.00  0.00    +0.000 OA
ATOM      9  N   UNL     1       4.507   5.057  18.096  0.00  0.00    +0.000 N 
ATOM     10  C   UNL     1       4.236   3.842  17.526  0.00  0.00    +0.000 C 
ATOM     11  O   UNL     1       4.856   3.240  16.669  0.00  0.00    +0.000 OA
ENDROOT
BRANCH   9  12
ATOM     12  C   UNL     1       5.556   5.931  17.581  0.00  0.00    +0.000 C 
ATOM     13  C   UNL     1       5.256   6.674  16.280  0.00  0.00    +0.000 C 
ATOM     14  C   UNL     1       5.636   5.921  15.018  0.00  0.00    +0.000 C 
ATOM     15  C   UNL     1       7.021   5.333  15.097  0.00  0.00    +0.000 C 
ATOM     16  O   UNL     1       7.679   5.071  14.092  0.00  0.00    +0.000 OA
ATOM     17  N   UNL     1       7.507   5.038  16.343  0.00  0.00    +0.000 N 
ATOM     18  C   UNL     1       6.861   5.136  17.550  0.00  0.00    +0.000 C 
ATOM     19  O   UNL     1       7.308   4.552  18.536  0.00  0.00    +0.000 OA
ATOM     20  H   UNL     1       8.377   4.523  16.354  0.00  0.00    +0.000 HD
ENDBRANCH   9  12
BRANCH   1  21
ATOM     21  N   UNL     1       1.088   4.975  20.861  0.00  0.00    +0.000 N 
ATOM     22  H   UNL     1       1.400   4.679  21.781  0.00  0.00    +0.000 HD
ATOM     23  H   UNL     1       0.104   5.255  20.852  0.00  0.00    +0.000 HD
ENDBRANCH   1  21
TORSDOF 2
ENDMDL
MODEL 5
REMARK VINA RESULT:      -7.8      1.121      1.121
REMARK  Name = 
REMARK  2 active torsions:
REMARK  status: ('A' for Active; 'I' for Inactive)
REMARK    1  A    between atoms: N_1  and  C_2
REMARK    2  A    between atoms: N_10  and  C_11
REMARK                            x       y       z     vdW  Elec       q    Type
REMARK                         _______ _______ _______ _____ _____    ______ ____
ROOT
ATOM      1  C   UNL     1       4.011   2.701  20.288  0.00  0.00    +0.000 A 
ATOM      2  C   UNL     1       2.986   2.564  21.237  0.00  0.00    +0.000 A 
ATOM      3  C   UNL     1       2.085   3.615  21.514  0.00  0.00    +0.000 A 
ATOM      4  C   UNL     1       2.156   4.816  20.809  0.00  0.00    +0.000 A 
ATOM      5  C   UNL     1       3.132   4.916  19.839  0.00  0.00    +0.000 A 
ATOM      6  C   UNL     1       4.030   3.895  19.583  0.00  0.00    +0.000 A 
ATOM      7  C   UNL     1       4.947   4.382  18.547  0.00  0.00    +0.000 C 
ATOM      8  O   UNL     1       5.957   3.797  18.207  0.00  0.00    +0.000 OA
ATOM      9  N   UNL     1       4.502   5.618  18.164  0.00  0.00    +0.000 N 
ATOM     10  C   UNL     1       3.442   6.017  18.935  0.00  0.00    +0.000 C 
ATOM     11  O   UNL     1       2.833   7.071  18.916  0.00  0.00    +0.000 OA
ENDROOT
BRANCH   9  12
ATOM     12  C   UNL     1       5.200   6.543  17.277  0.00  0.00    +0.000 C 
ATOM     13  C   UNL     1       4.820   6.498  15.798  0.00  0.00    +0.000 C 
ATOM     14  C   UNL     1       5.626   5.517  14.967  0.00  0.00    +0.000 C 
ATOM     15  C   UNL     1       7.105   5.623  15.229  0.00  0.00    +0.000 C 
ATOM     16  O   UNL     1       7.944   5.260  14.407  0.00  0.00    +0.000 OA
ATOM     17  N   UNL     1       7.493   6.087  16.458  0.00  0.00    +0.000 N 
ATOM     18  C   UNL     1       6.700   6.403  17.533  0.00  0.00    +0.000 C 
ATOM     19  O   UNL     1       7.196   6.508  18.654  0.00  0.00    +0.000 OA
ATOM     20  H   UNL     1       8.482   6.018  16.652  0.00  0.00    +0.000 HD
ENDBRANCH   9  12
BRANCH   1  21
ATOM     21  N   UNL     1       4.787   1.599  19.927  0.00  0.00    +0.000 N 
ATOM     22  H   UNL     1       5.449   1.287  20.630  0.00  0.00    +0.000 HD
ATOM     23  H   UNL     1       5.210   1.682  18.999  0.00  0.00    +0.000 HD
ENDBRANCH   1  21
TORSDOF 2
ENDMDL
MODEL 6
REMARK VINA RESULT:      -7.3      1.500      2.485
REMARK  Name = 
REMARK  2 active torsions:
REMARK  status: ('A' for Active; 'I' for Inactive)
REMARK    1  A    between atoms: N_1  and  C_2
REMARK    2  A    between atoms: N_10  and  C_11
REMARK                            x       y       z     vdW  Elec       q    Type
REMARK                         _______ _______ _______ _____ _____    ______ ____
ROOT
ATOM      1  C   UNL     1       2.111   5.087  20.633  0.00  0.00    +0.000 A 
ATOM      2  C   UNL     1       1.980   3.825  21.233  0.00  0.00    +0.000 A 
ATOM      3  C   UNL     1       2.817   2.745  20.879  0.00  0.00    +0.000 A 
ATOM      4  C   UNL     1       3.845   2.915  19.952  0.00  0.00    +0.000 A 
ATOM      5  C   UNL     1       3.997   4.176  19.412  0.00  0.00    +0.000 A 
ATOM      6  C   UNL     1       3.163   5.229  19.740  0.00  0.00    +0.000 A 
ATOM      7  C   UNL     1       3.585   6.377  18.932  0.00  0.00    +0.000 C 
ATOM      8  O   UNL     1       2.960   7.417  18.852  0.00  0.00    +0.000 OA
ATOM      9  N   UNL     1       4.702   5.994  18.239  0.00  0.00    +0.000 N 
ATOM     10  C   UNL     1       4.975   4.668  18.448  0.00  0.00    +0.000 C 
ATOM     11  O   UNL     1       5.848   3.978  17.957  0.00  0.00    +0.000 OA
ENDROOT
BRANCH   9  12
ATOM     12  C   UNL     1       5.364   6.759  17.189  0.00  0.00    +0.000 C 
ATOM     13  C   UNL     1       4.853   6.556  15.763  0.00  0.00    +0.000 C 
ATOM     14  C   UNL     1       5.533   5.433  15.001  0.00  0.00    +0.000 C 
ATOM     15  C   UNL     1       7.034   5.481  15.127  0.00  0.00    +0.000 C 
ATOM     16  O   UNL     1       7.777   4.970  14.292  0.00  0.00    +0.000 OA
ATOM     17  N   UNL     1       7.550   6.069  16.251  0.00  0.00    +0.000 N 
ATOM     18  C   UNL     1       6.872   6.561  17.338  0.00  0.00    +0.000 C 
ATOM     19  O   UNL     1       7.470   6.772  18.392  0.00  0.00    +0.000 OA
ATOM     20  H   UNL     1       8.549   5.964  16.371  0.00  0.00    +0.000 HD
ENDBRANCH   9  12
BRANCH   1  21
ATOM     21  N   UNL     1       1.373   6.173  21.109  0.00  0.00    +0.000 N 
ATOM     22  H   UNL     1       1.917   6.900  21.562  0.00  0.00    +0.000 HD
ATOM     23  H   UNL     1       0.551   5.901  21.654  0.00  0.00    +0.000 HD
ENDBRANCH   1  21
TORSDOF 2
ENDMDL
MODEL 7
REMARK VINA RESULT:      -7.3      2.146      5.995
REMARK  Name = 
REMARK  2 active torsions:
REMARK  status: ('A' for Active; 'I' for Inactive)
REMARK    1  A    between atoms: N_1  and  C_2
REMARK    2  A    between atoms: N_10  and  C_11
REMARK                            x       y       z     vdW  Elec       q    Type
REMARK                         _______ _______ _______ _____ _____    ______ ____
ROOT
ATOM      1  C   UNL     1       7.558   4.988  13.450  0.00  0.00    +0.000 A 
ATOM      2  C   UNL     1       7.137   4.198  12.367  0.00  0.00    +0.000 A 
ATOM      3  C   UNL     1       5.975   3.401  12.439  0.00  0.00    +0.000 A 
ATOM      4  C   UNL     1       5.173   3.413  13.580  0.00  0.00    +0.000 A 
ATOM      5  C   UNL     1       5.568   4.237  14.614  0.00  0.00    +0.000 A 
ATOM      6  C   UNL     1       6.720   5.001  14.554  0.00  0.00    +0.000 A 
ATOM      7  C   UNL     1       6.845   5.687  15.844  0.00  0.00    +0.000 C 
ATOM      8  O   UNL     1       7.832   6.310  16.188  0.00  0.00    +0.000 OA
ATOM      9  N   UNL     1       5.726   5.385  16.572  0.00  0.00    +0.000 N 
ATOM     10  C   UNL     1       4.941   4.480  15.908  0.00  0.00    +0.000 C 
ATOM     11  O   UNL     1       3.909   3.948  16.271  0.00  0.00    +0.000 OA
ENDROOT
BRANCH   9  12
ATOM     12  C   UNL     1       5.502   5.714  17.975  0.00  0.00    +0.000 C 
ATOM     13  C   UNL     1       5.849   4.635  19.000  0.00  0.00    +0.000 C 
ATOM     14  C   UNL     1       4.715   3.679  19.321  0.00  0.00    +0.000 C 
ATOM     15  C   UNL     1       3.417   4.396  19.585  0.00  0.00    +0.000 C 
ATOM     16  O   UNL     1       2.517   3.895  20.255  0.00  0.00    +0.000 OA
ATOM     17  N   UNL     1       3.245   5.620  18.993  0.00  0.00    +0.000 N 
ATOM     18  C   UNL     1       4.080   6.259  18.111  0.00  0.00    +0.000 C 
ATOM     19  O   UNL     1       3.658   7.194  17.433  0.00  0.00    +0.000 OA
ATOM     20  H   UNL     1       2.317   6.011  19.077  0.00  0.00    +0.000 HD
ENDBRANCH   9  12
BRANCH   1  21
ATOM     21  N   UNL     1       8.621   5.880  13.298  0.00  0.00    +0.000 N 
ATOM     22  H   UNL     1       8.497   6.781  13.747  0.00  0.00    +0.000 HD
ATOM     23  H   UNL     1       8.950   5.965  12.333  0.00  0.00    +0.000 HD
ENDBRANCH   1  21
TORSDOF 2
ENDMDL
MODEL 8
REMARK VINA RESULT:      -7.3      2.693      4.627
REMARK  Name = 
REMARK  2 active torsions:
REMARK  status: ('A' for Active; 'I' for Inactive)
REMARK    1  A    between atoms: N_1  and  C_2
REMARK    2  A    between atoms: N_10  and  C_11
REMARK                            x       y       z     vdW  Elec       q    Type
REMARK                         _______ _______ _______ _____ _____    ______ ____
ROOT
ATOM      1  C   UNL     1       1.498   9.419  18.772  0.00  0.00    +0.000 A 
ATOM      2  C   UNL     1       0.688   9.788  19.857  0.00  0.00    +0.000 A 
ATOM      3  C   UNL     1       0.483   8.925  20.956  0.00  0.00    +0.000 A 
ATOM      4  C   UNL     1       1.127   7.690  21.021  0.00  0.00    +0.000 A 
ATOM      5  C   UNL     1       1.964   7.365  19.973  0.00  0.00    +0.000 A 
ATOM      6  C   UNL     1       2.148   8.200  18.885  0.00  0.00    +0.000 A 
ATOM      7  C   UNL     1       3.043   7.501  17.957  0.00  0.00    +0.000 C 
ATOM      8  O   UNL     1       3.279   7.881  16.826  0.00  0.00    +0.000 OA
ATOM      9  N   UNL     1       3.430   6.339  18.568  0.00  0.00    +0.000 N 
ATOM     10  C   UNL     1       2.780   6.175  19.762  0.00  0.00    +0.000 C 
ATOM     11  O   UNL     1       2.833   5.243  20.543  0.00  0.00    +0.000 OA
ENDROOT
BRANCH   9  12
ATOM     12  C   UNL     1       4.187   5.256  17.949  0.00  0.00    +0.000 C 
ATOM     13  C   UNL     1       3.379   4.153  17.268  0.00  0.00    +0.000 C 
ATOM     14  C   UNL     1       2.989   3.001  18.176  0.00  0.00    +0.000 C 
ATOM     15  C   UNL     1       4.146   2.507  19.005  0.00  0.00    +0.000 C 
ATOM     16  O   UNL     1       4.183   1.367  19.464  0.00  0.00    +0.000 OA
ATOM     17  N   UNL     1       5.143   3.402  19.286  0.00  0.00    +0.000 N 
ATOM     18  C   UNL     1       5.195   4.738  18.975  0.00  0.00    +0.000 C 
ATOM     19  O   UNL     1       5.994   5.474  19.553  0.00  0.00    +0.000 OA
ATOM     20  H   UNL     1       5.832   3.083  19.953  0.00  0.00    +0.000 HD
ENDBRANCH   9  12
BRANCH   1  21
ATOM     21  N   UNL     1       1.804  10.348  17.775  0.00  0.00    +0.000 N 
ATOM     22  H   UNL     1       1.534  11.305  17.979  0.00  0.00    +0.000 HD
ATOM     23  H   UNL     1       1.520  10.052  16.838  0.00  0.00    +0.000 HD
ENDBRANCH   1  21
TORSDOF 2
ENDMDL
MODEL 9
REMARK VINA RESULT:      -7.3      1.800      3.152
REMARK  Name = 
REMARK  2 active torsions:
REMARK  status: ('A' for Active; 'I' for Inactive)
REMARK    1  A    between atoms: N_1  and  C_2
REMARK    2  A    between atoms: N_10  and  C_11
REMARK                            x       y       z     vdW  Elec       q    Type
REMARK                         _______ _______ _______ _____ _____    ______ ____
ROOT
ATOM      1  C   UNL     1       1.947   5.455  20.309  0.00  0.00    +0.000 A 
ATOM      2  C   UNL     1       1.015   4.578  20.887  0.00  0.00    +0.000 A 
ATOM      3  C   UNL     1       1.210   3.180  20.881  0.00  0.00    +0.000 A 
ATOM      4  C   UNL     1       2.371   2.625  20.341  0.00  0.00    +0.000 A 
ATOM      5  C   UNL     1       3.303   3.503  19.827  0.00  0.00    +0.000 A 
ATOM      6  C   UNL     1       3.103   4.872  19.812  0.00  0.00    +0.000 A 
ATOM      7  C   UNL     1       4.262   5.466  19.139  0.00  0.00    +0.000 C 
ATOM      8  O   UNL     1       4.330   6.635  18.810  0.00  0.00    +0.000 OA
ATOM      9  N   UNL     1       5.140   4.450  18.876  0.00  0.00    +0.000 N 
ATOM     10  C   UNL     1       4.603   3.238  19.222  0.00  0.00    +0.000 C 
ATOM     11  O   UNL     1       5.069   2.123  19.081  0.00  0.00    +0.000 OA
ENDROOT
BRANCH   9  12
ATOM     12  C   UNL     1       6.353   4.551  18.072  0.00  0.00    +0.000 C 
ATOM     13  C   UNL     1       7.603   5.081  18.775  0.00  0.00    +0.000 C 
ATOM     14  C   UNL     1       7.765   6.589  18.725  0.00  0.00    +0.000 C 
ATOM     15  C   UNL     1       7.543   7.145  17.343  0.00  0.00    +0.000 C 
ATOM     16  O   UNL     1       8.022   8.219  16.984  0.00  0.00    +0.000 OA
ATOM     17  N   UNL     1       6.726   6.433  16.504  0.00  0.00    +0.000 N 
ATOM     18  C   UNL     1       6.006   5.299  16.785  0.00  0.00    +0.000 C 
ATOM     19  O   UNL     1       5.090   4.953  16.041  0.00  0.00    +0.000 OA
ATOM     20  H   UNL     1       6.489   6.898  15.639  0.00  0.00    +0.000 HD
ENDBRANCH   9  12
BRANCH   1  21
ATOM     21  N   UNL     1       1.803   6.835  20.464  0.00  0.00    +0.000 N 
ATOM     22  H   UNL     1       1.275   7.126  21.280  0.00  0.00    +0.000 HD
ATOM     23  H   UNL     1       1.502   7.313  19.611  0.00  0.00    +0.000 HD
ENDBRANCH   1  21
TORSDOF 2
ENDMDL
