MODEL 1
REMARK VINA RESULT:      -8.8      0.000      0.000
REMARK  Name = 
REMARK  4 active torsions:
REMARK  status: ('A' for Active; 'I' for Inactive)
REMARK    1  A    between atoms: C_1  and  O_2
REMARK    2  A    between atoms: O_2  and  C_3
REMARK    3  A    between atoms: C_7  and  C_8
REMARK    4  A    between atoms: C_17  and  C_18
REMARK                            x       y       z     vdW  Elec       q    Type
REMARK                         _______ _______ _______ _____ _____    ______ ____
ROOT
ATOM      1  C   UNL     1       5.429   4.640  16.435  0.00  0.00    +0.000 A 
ATOM      2  N   UNL     1       4.945   4.034  15.310  0.00  0.00    +0.000 NA
ATOM      3  C   UNL     1       5.692   4.095  14.202  0.00  0.00    +0.000 A 
ATOM      4  C   UNL     1       5.251   3.464  13.042  0.00  0.00    +0.000 A 
ATOM      5  C   UNL     1       6.001   3.484  11.868  0.00  0.00    +0.000 A 
ATOM      6  C   UNL     1       7.216   4.153  11.846  0.00  0.00    +0.000 A 
ATOM      7  C   UNL     1       7.666   4.797  13.000  0.00  0.00    +0.000 A 
ATOM      8  C   UNL     1       6.928   4.780  14.180  0.00  0.00    +0.000 A 
ATOM      9  N   UNL     1       7.402   5.399  15.279  0.00  0.00    +0.000 NA
ATOM     10  C   UNL     1       6.649   5.331  16.414  0.00  0.00    +0.000 A 
ENDROOT
BRANCH   1  15
ATOM     11  C   UNL     1       1.996   6.836  19.981  0.00  0.00    +0.000 A 
ATOM     12  C   UNL     1       2.638   7.508  18.942  0.00  0.00    +0.000 A 
ATOM     13  C   UNL     1       3.529   6.832  18.098  0.00  0.00    +0.000 A 
ATOM     14  C   UNL     1       3.758   5.452  18.278  0.00  0.00    +0.000 A 
ATOM     15  C   UNL     1       4.550   4.465  17.596  0.00  0.00    +0.000 A 
ATOM     16  C   UNL     1       4.249   3.254  18.191  0.00  0.00    +0.000 A 
ATOM     17  N   UNL     1       3.483   3.492  19.300  0.00  0.00    +0.000 N 
ATOM     18  C   UNL     1       3.115   4.815  19.341  0.00  0.00    +0.000 A 
ATOM     19  C   UNL     1       2.259   5.485  20.223  0.00  0.00    +0.000 A 
ATOM     20  H   UNL     1       3.180   2.792  19.963  0.00  0.00    +0.000 HD
BRANCH  11  22
ATOM     21  C   UNL     1       1.095   8.840  20.830  0.00  0.00    +0.000 C 
ATOM     22  O   UNL     1       1.108   7.416  20.849  0.00  0.00    +0.000 OA
ENDBRANCH  11  22
ENDBRANCH   1  15
BRANCH  10  23
ATOM     23  C   UNL     1       7.276   5.964  17.578  0.00  0.00    +0.000 A 
ATOM     24  C   UNL     1       7.698   5.294  18.714  0.00  0.00    +0.000 A 
ATOM     25  N   UNL     1       8.441   6.162  19.470  0.00  0.00    +0.000 N 
ATOM     26  C   UNL     1       8.380   7.427  18.936  0.00  0.00    +0.000 A 
ATOM     27  C   UNL     1       8.956   8.622  19.385  0.00  0.00    +0.000 A 
ATOM     28  C   UNL     1       8.680   9.785  18.662  0.00  0.00    +0.000 A 
ATOM     29  C   UNL     1       7.875   9.749  17.526  0.00  0.00    +0.000 A 
ATOM     30  C   UNL     1       7.347   8.537  17.065  0.00  0.00    +0.000 A 
ATOM     31  C   UNL     1       7.602   7.346  17.780  0.00  0.00    +0.000 A 
ATOM     32  H   UNL     1       8.961   5.914  20.301  0.00  0.00    +0.000 HD
ENDBRANCH  10  23
TORSDOF 3
ENDMDL
MODEL 2
REMARK VINA RESULT:      -8.4      1.543      2.283
REMARK  Name = 
REMARK  4 active torsions:
REMARK  status: ('A' for Active; 'I' for Inactive)
REMARK    1  A    between atoms: C_1  and  O_2
REMARK    2  A    between atoms: O_2  and  C_3
REMARK    3  A    between atoms: C_7  and  C_8
REMARK    4  A    between atoms: C_17  and  C_18
REMARK                            x       y       z     vdW  Elec       q    Type
REMARK                         _______ _______ _______ _____ _____    ______ ____
ROOT
ATOM      1  C   UNL     1       5.271   5.225  16.430  0.00  0.00    +0.000 A 
ATOM      2  N   UNL     1       4.735   4.609  15.334  0.00  0.00    +0.000 NA
ATOM      3  C   UNL     1       5.534   4.418  14.278  0.00  0.00    +0.000 A 
ATOM      4  C   UNL     1       5.038   3.766  13.153  0.00  0.00    +0.000 A 
ATOM      5  C   UNL     1       5.836   3.527  12.035  0.00  0.00    +0.000 A 
ATOM      6  C   UNL     1       7.156   3.952  12.036  0.00  0.00    +0.000 A 
ATOM      7  C   UNL     1       7.663   4.614  13.155  0.00  0.00    +0.000 A 
ATOM      8  C   UNL     1       6.878   4.854  14.280  0.00  0.00    +0.000 A 
ATOM      9  N   UNL     1       7.408   5.481  15.348  0.00  0.00    +0.000 NA
ATOM     10  C   UNL     1       6.601   5.670  16.431  0.00  0.00    +0.000 A 
ENDROOT
BRANCH   1  15
ATOM     11  C   UNL     1       3.114   3.045  20.878  0.00  0.00    +0.000 A 
ATOM     12  C   UNL     1       4.109   2.473  20.087  0.00  0.00    +0.000 A 
ATOM     13  C   UNL     1       4.572   3.127  18.939  0.00  0.00    +0.000 A 
ATOM     14  C   UNL     1       4.054   4.392  18.592  0.00  0.00    +0.000 A 
ATOM     15  C   UNL     1       4.318   5.335  17.540  0.00  0.00    +0.000 A 
ATOM     16  C   UNL     1       3.556   6.453  17.828  0.00  0.00    +0.000 A 
ATOM     17  N   UNL     1       2.719   6.154  18.868  0.00  0.00    +0.000 N 
ATOM     18  C   UNL     1       3.045   4.927  19.395  0.00  0.00    +0.000 A 
ATOM     19  C   UNL     1       2.535   4.266  20.518  0.00  0.00    +0.000 A 
ATOM     20  H   UNL     1       2.002   6.763  19.237  0.00  0.00    +0.000 HD
BRANCH  11  22
ATOM     21  C   UNL     1       1.185   2.418  22.075  0.00  0.00    +0.000 C 
ATOM     22  O   UNL     1       2.606   2.479  22.018  0.00  0.00    +0.000 OA
ENDBRANCH  11  22
ENDBRANCH   1  15
BRANCH  10  23
ATOM     23  C   UNL     1       7.279   6.289  17.573  0.00  0.00    +0.000 A 
ATOM     24  C   UNL     1       7.726   5.609  18.694  0.00  0.00    +0.000 A 
ATOM     25  N   UNL     1       8.511   6.461  19.425  0.00  0.00    +0.000 N 
ATOM     26  C   UNL     1       8.457   7.728  18.894  0.00  0.00    +0.000 A 
ATOM     27  C   UNL     1       9.072   8.910  19.324  0.00  0.00    +0.000 A 
ATOM     28  C   UNL     1       8.795  10.079  18.611  0.00  0.00    +0.000 A 
ATOM     29  C   UNL     1       7.952  10.061  17.502  0.00  0.00    +0.000 A 
ATOM     30  C   UNL     1       7.385   8.860  17.059  0.00  0.00    +0.000 A 
ATOM     31  C   UNL     1       7.639   7.664  17.764  0.00  0.00    +0.000 A 
ATOM     32  H   UNL     1       9.054   6.202  20.237  0.00  0.00    +0.000 HD
ENDBRANCH  10  23
TORSDOF 3
ENDMDL
MODEL 3
REMARK VINA RESULT:      -8.4      1.724      4.962
REMARK  Name = 
REMARK  4 active torsions:
REMARK  status: ('A' for Active; 'I' for Inactive)
REMARK    1  A    between atoms: C_1  and  O_2
REMARK    2  A    between atoms: O_2  and  C_3
REMARK    3  A    between atoms: C_7  and  C_8
REMARK    4  A    between atoms: C_17  and  C_18
REMARK                            x       y       z     vdW  Elec       q    Type
REMARK                         _______ _______ _______ _____ _____    ______ ____
ROOT
ATOM      1  C   UNL     1       6.671   5.242  16.470  0.00  0.00    +0.000 A 
ATOM      2  N   UNL     1       7.441   5.196  15.342  0.00  0.00    +0.000 NA
ATOM      3  C   UNL     1       6.896   4.667  14.240  0.00  0.00    +0.000 A 
ATOM      4  C   UNL     1       7.634   4.630  13.061  0.00  0.00    +0.000 A 
ATOM      5  C   UNL     1       7.104   4.106  11.883  0.00  0.00    +0.000 A 
ATOM      6  C   UNL     1       5.811   3.601  11.882  0.00  0.00    +0.000 A 
ATOM      7  C   UNL     1       5.064   3.625  13.060  0.00  0.00    +0.000 A 
ATOM      8  C   UNL     1       5.580   4.151  14.241  0.00  0.00    +0.000 A 
ATOM      9  N   UNL     1       4.822   4.173  15.355  0.00  0.00    +0.000 NA
ATOM     10  C   UNL     1       5.370   4.720  16.478  0.00  0.00    +0.000 A 
ENDROOT
BRANCH   1  15
ATOM     11  C   UNL     1       8.664   9.754  18.674  0.00  0.00    +0.000 A 
ATOM     12  C   UNL     1       8.033   9.659  17.435  0.00  0.00    +0.000 A 
ATOM     13  C   UNL     1       7.577   8.423  16.958  0.00  0.00    +0.000 A 
ATOM     14  C   UNL     1       7.728   7.265  17.749  0.00  0.00    +0.000 A 
ATOM     15  C   UNL     1       7.355   5.886  17.597  0.00  0.00    +0.000 A 
ATOM     16  C   UNL     1       7.679   5.267  18.790  0.00  0.00    +0.000 A 
ATOM     17  N   UNL     1       8.393   6.148  19.558  0.00  0.00    +0.000 N 
ATOM     18  C   UNL     1       8.382   7.392  18.976  0.00  0.00    +0.000 A 
ATOM     19  C   UNL     1       8.887   8.610  19.446  0.00  0.00    +0.000 A 
ATOM     20  H   UNL     1       8.818   5.936  20.450  0.00  0.00    +0.000 HD
BRANCH  11  22
ATOM     21  C   UNL     1       9.738  11.814  18.289  0.00  0.00    +0.000 C 
ATOM     22  O   UNL     1       9.134  10.920  19.218  0.00  0.00    +0.000 OA
ENDBRANCH  11  22
ENDBRANCH   1  15
BRANCH  10  23
ATOM     23  C   UNL     1       4.451   4.772  17.618  0.00  0.00    +0.000 A 
ATOM     24  C   UNL     1       4.222   3.728  18.500  0.00  0.00    +0.000 A 
ATOM     25  N   UNL     1       3.500   4.215  19.558  0.00  0.00    +0.000 N 
ATOM     26  C   UNL     1       3.114   5.510  19.313  0.00  0.00    +0.000 A 
ATOM     27  C   UNL     1       2.348   6.384  20.095  0.00  0.00    +0.000 A 
ATOM     28  C   UNL     1       2.064   7.645  19.565  0.00  0.00    +0.000 A 
ATOM     29  C   UNL     1       2.543   8.022  18.313  0.00  0.00    +0.000 A 
ATOM     30  C   UNL     1       3.347   7.152  17.567  0.00  0.00    +0.000 A 
ATOM     31  C   UNL     1       3.644   5.867  18.072  0.00  0.00    +0.000 A 
ATOM     32  H   UNL     1       3.280   3.700  20.400  0.00  0.00    +0.000 HD
ENDBRANCH  10  23
TORSDOF 3
ENDMDL
MODEL 4
REMARK VINA RESULT:      -8.1      2.033      5.404
REMARK  Name = 
REMARK  4 active torsions:
REMARK  status: ('A' for Active; 'I' for Inactive)
REMARK    1  A    between atoms: C_1  and  O_2
REMARK    2  A    between atoms: O_2  and  C_3
REMARK    3  A    between atoms: C_7  and  C_8
REMARK    4  A    between atoms: C_17  and  C_18
REMARK                            x       y       z     vdW  Elec       q    Type
REMARK                         _______ _______ _______ _____ _____    ______ ____
ROOT
ATOM      1  C   UNL     1       6.616   5.401  16.547  0.00  0.00    +0.000 A 
ATOM      2  N   UNL     1       7.397   5.200  15.444  0.00  0.00    +0.000 NA
ATOM      3  C   UNL     1       6.822   4.653  14.367  0.00  0.00    +0.000 A 
ATOM      4  C   UNL     1       7.574   4.461  13.212  0.00  0.00    +0.000 A 
ATOM      5  C   UNL     1       7.016   3.912  12.059  0.00  0.00    +0.000 A 
ATOM      6  C   UNL     1       5.679   3.540  12.058  0.00  0.00    +0.000 A 
ATOM      7  C   UNL     1       4.917   3.721  13.213  0.00  0.00    +0.000 A 
ATOM      8  C   UNL     1       5.461   4.273  14.369  0.00  0.00    +0.000 A 
ATOM      9  N   UNL     1       4.689   4.448  15.459  0.00  0.00    +0.000 NA
ATOM     10  C   UNL     1       5.268   5.014  16.556  0.00  0.00    +0.000 A 
ENDROOT
BRANCH   1  15
ATOM     11  C   UNL     1       8.685   9.923  18.657  0.00  0.00    +0.000 A 
ATOM     12  C   UNL     1       8.009   9.823  17.442  0.00  0.00    +0.000 A 
ATOM     13  C   UNL     1       7.537   8.585  16.988  0.00  0.00    +0.000 A 
ATOM     14  C   UNL     1       7.717   7.430  17.778  0.00  0.00    +0.000 A 
ATOM     15  C   UNL     1       7.340   6.050  17.645  0.00  0.00    +0.000 A 
ATOM     16  C   UNL     1       7.708   5.436  18.828  0.00  0.00    +0.000 A 
ATOM     17  N   UNL     1       8.450   6.320  19.565  0.00  0.00    +0.000 N 
ATOM     18  C   UNL     1       8.416   7.563  18.979  0.00  0.00    +0.000 A 
ATOM     19  C   UNL     1       8.938   8.783  19.426  0.00  0.00    +0.000 A 
ATOM     20  H   UNL     1       8.907   6.113  20.442  0.00  0.00    +0.000 HD
BRANCH  11  22
ATOM     21  C   UNL     1       9.541  11.026  20.554  0.00  0.00    +0.000 C 
ATOM     22  O   UNL     1       9.175  11.092  19.179  0.00  0.00    +0.000 OA
ENDBRANCH  11  22
ENDBRANCH   1  15
BRANCH  10  23
ATOM     23  C   UNL     1       4.338   5.236  17.667  0.00  0.00    +0.000 A 
ATOM     24  C   UNL     1       3.584   6.383  17.852  0.00  0.00    +0.000 A 
ATOM     25  N   UNL     1       2.668   6.136  18.842  0.00  0.00    +0.000 N 
ATOM     26  C   UNL     1       2.912   4.913  19.418  0.00  0.00    +0.000 A 
ATOM     27  C   UNL     1       2.254   4.268  20.473  0.00  0.00    +0.000 A 
ATOM     28  C   UNL     1       2.757   3.034  20.891  0.00  0.00    +0.000 A 
ATOM     29  C   UNL     1       3.862   2.460  20.266  0.00  0.00    +0.000 A 
ATOM     30  C   UNL     1       4.476   3.098  19.181  0.00  0.00    +0.000 A 
ATOM     31  C   UNL     1       3.996   4.350  18.742  0.00  0.00    +0.000 A 
ATOM     32  H   UNL     1       1.921   6.760  19.113  0.00  0.00    +0.000 HD
ENDBRANCH  10  23
TORSDOF 3
ENDMDL
MODEL 5
REMARK VINA RESULT:      -7.7      5.924     10.340
REMARK  Name = 
REMARK  4 active torsions:
REMARK  status: ('A' for Active; 'I' for Inactive)
REMARK    1  A    between atoms: C_1  and  O_2
REMARK    2  A    between atoms: O_2  and  C_3
REMARK    3  A    between atoms: C_7  and  C_8
REMARK    4  A    between atoms: C_17  and  C_18
REMARK                            x       y       z     vdW  Elec       q    Type
REMARK                         _______ _______ _______ _____ _____    ______ ____
ROOT
ATOM      1  C   UNL     1       0.906  12.509  19.646  0.00  0.00    +0.000 A 
ATOM      2  N   UNL     1       2.116  13.144  19.682  0.00  0.00    +0.000 NA
ATOM      3  C   UNL     1       2.152  14.432  19.321  0.00  0.00    +0.000 A 
ATOM      4  C   UNL     1       3.358  15.125  19.373  0.00  0.00    +0.000 A 
ATOM      5  C   UNL     1       3.443  16.471  19.025  0.00  0.00    +0.000 A 
ATOM      6  C   UNL     1       2.302  17.142  18.610  0.00  0.00    +0.000 A 
ATOM      7  C   UNL     1       1.088  16.457  18.546  0.00  0.00    +0.000 A 
ATOM      8  C   UNL     1       0.989  15.113  18.896  0.00  0.00    +0.000 A 
ATOM      9  N   UNL     1      -0.204  14.489  18.838  0.00  0.00    +0.000 NA
ATOM     10  C   UNL     1      -0.248  13.179  19.214  0.00  0.00    +0.000 A 
ENDROOT
BRANCH   1  15
ATOM     11  C   UNL     1       2.285   7.387  18.624  0.00  0.00    +0.000 A 
ATOM     12  C   UNL     1       2.437   8.464  17.753  0.00  0.00    +0.000 A 
ATOM     13  C   UNL     1       2.018   9.748  18.124  0.00  0.00    +0.000 A 
ATOM     14  C   UNL     1       1.465   9.965  19.403  0.00  0.00    +0.000 A 
ATOM     15  C   UNL     1       0.981  11.119  20.108  0.00  0.00    +0.000 A 
ATOM     16  C   UNL     1       0.678  10.689  21.388  0.00  0.00    +0.000 A 
ATOM     17  N   UNL     1       0.769   9.323  21.420  0.00  0.00    +0.000 N 
ATOM     18  C   UNL     1       1.308   8.861  20.243  0.00  0.00    +0.000 A 
ATOM     19  C   UNL     1       1.676   7.563  19.871  0.00  0.00    +0.000 A 
ATOM     20  H   UNL     1       0.532   8.739  22.209  0.00  0.00    +0.000 HD
BRANCH  11  22
ATOM     21  C   UNL     1       3.750   5.615  19.138  0.00  0.00    +0.000 C 
ATOM     22  O   UNL     1       2.671   6.102  18.346  0.00  0.00    +0.000 OA
ENDBRANCH  11  22
ENDBRANCH   1  15
BRANCH  10  23
ATOM     23  C   UNL     1      -1.595  12.603  19.192  0.00  0.00    +0.000 A 
ATOM     24  C   UNL     1      -2.639  12.998  20.012  0.00  0.00    +0.000 A 
ATOM     25  N   UNL     1      -3.790  12.415  19.547  0.00  0.00    +0.000 N 
ATOM     26  C   UNL     1      -3.497  11.522  18.545  0.00  0.00    +0.000 A 
ATOM     27  C   UNL     1      -4.346  10.688  17.807  0.00  0.00    +0.000 A 
ATOM     28  C   UNL     1      -3.759   9.833  16.871  0.00  0.00    +0.000 A 
ATOM     29  C   UNL     1      -2.381   9.826  16.670  0.00  0.00    +0.000 A 
ATOM     30  C   UNL     1      -1.554  10.702  17.384  0.00  0.00    +0.000 A 
ATOM     31  C   UNL     1      -2.116  11.572  18.343  0.00  0.00    +0.000 A 
ATOM     32  H   UNL     1      -4.721  12.610  19.889  0.00  0.00    +0.000 HD
ENDBRANCH  10  23
TORSDOF 3
ENDMDL
MODEL 6
REMARK VINA RESULT:      -7.3      6.405     11.536
REMARK  Name = 
REMARK  4 active torsions:
REMARK  status: ('A' for Active; 'I' for Inactive)
REMARK    1  A    between atoms: C_1  and  O_2
REMARK    2  A    between atoms: O_2  and  C_3
REMARK    3  A    between atoms: C_7  and  C_8
REMARK    4  A    between atoms: C_17  and  C_18
REMARK                            x       y       z     vdW  Elec       q    Type
REMARK                         _______ _______ _______ _____ _____    ______ ____
ROOT
ATOM      1  C   UNL     1      -0.588  12.930  21.486  0.00  0.00    +0.000 A 
ATOM      2  N   UNL     1       0.402  13.700  22.028  0.00  0.00    +0.000 NA
ATOM      3  C   UNL     1       0.428  14.997  21.704  0.00  0.00    +0.000 A 
ATOM      4  C   UNL     1       1.401  15.824  22.259  0.00  0.00    +0.000 A 
ATOM      5  C   UNL     1       1.458  17.185  21.966  0.00  0.00    +0.000 A 
ATOM      6  C   UNL     1       0.529  17.735  21.095  0.00  0.00    +0.000 A 
ATOM      7  C   UNL     1      -0.447  16.916  20.526  0.00  0.00    +0.000 A 
ATOM      8  C   UNL     1      -0.518  15.556  20.815  0.00  0.00    +0.000 A 
ATOM      9  N   UNL     1      -1.485  14.800  20.259  0.00  0.00    +0.000 NA
ATOM     10  C   UNL     1      -1.521  13.479  20.594  0.00  0.00    +0.000 A 
ENDROOT
BRANCH   1  15
ATOM     11  C   UNL     1       1.221   7.891  20.769  0.00  0.00    +0.000 A 
ATOM     12  C   UNL     1       1.502   8.984  19.951  0.00  0.00    +0.000 A 
ATOM     13  C   UNL     1       0.952  10.242  20.228  0.00  0.00    +0.000 A 
ATOM     14  C   UNL     1       0.132  10.418  21.362  0.00  0.00    +0.000 A 
ATOM     15  C   UNL     1      -0.545  11.540  21.951  0.00  0.00    +0.000 A 
ATOM     16  C   UNL     1      -1.089  11.080  23.137  0.00  0.00    +0.000 A 
ATOM     17  N   UNL     1      -0.942   9.720  23.185  0.00  0.00    +0.000 N 
ATOM     18  C   UNL     1      -0.145   9.298  22.148  0.00  0.00    +0.000 A 
ATOM     19  C   UNL     1       0.356   8.023  21.859  0.00  0.00    +0.000 A 
ATOM     20  H   UNL     1      -1.312   9.116  23.905  0.00  0.00    +0.000 HD
BRANCH  11  22
ATOM     21  C   UNL     1       2.523   6.474  19.411  0.00  0.00    +0.000 C 
ATOM     22  O   UNL     1       1.719   6.629  20.576  0.00  0.00    +0.000 OA
ENDBRANCH  11  22
ENDBRANCH   1  15
BRANCH  10  23
ATOM     23  C   UNL     1      -2.649  12.750  20.005  0.00  0.00    +0.000 A 
ATOM     24  C   UNL     1      -3.969  12.874  20.406  0.00  0.00    +0.000 A 
ATOM     25  N   UNL     1      -4.756  12.236  19.483  0.00  0.00    +0.000 N 
ATOM     26  C   UNL     1      -3.973  11.561  18.578  0.00  0.00    +0.000 A 
ATOM     27  C   UNL     1      -4.342  10.759  17.491  0.00  0.00    +0.000 A 
ATOM     28  C   UNL     1      -3.319  10.147  16.762  0.00  0.00    +0.000 A 
ATOM     29  C   UNL     1      -1.981  10.345  17.097  0.00  0.00    +0.000 A 
ATOM     30  C   UNL     1      -1.631  11.189  18.158  0.00  0.00    +0.000 A 
ATOM     31  C   UNL     1      -2.642  11.815  18.919  0.00  0.00    +0.000 A 
ATOM     32  H   UNL     1      -5.766  12.255  19.466  0.00  0.00    +0.000 HD
ENDBRANCH  10  23
TORSDOF 3
ENDMDL
MODEL 7
REMARK VINA RESULT:      -7.2      6.471     10.630
REMARK  Name = 
REMARK  4 active torsions:
REMARK  status: ('A' for Active; 'I' for Inactive)
REMARK    1  A    between atoms: C_1  and  O_2
REMARK    2  A    between atoms: O_2  and  C_3
REMARK    3  A    between atoms: C_7  and  C_8
REMARK    4  A    between atoms: C_17  and  C_18
REMARK                            x       y       z     vdW  Elec       q    Type
REMARK                         _______ _______ _______ _____ _____    ______ ____
ROOT
ATOM      1  C   UNL     1       0.405  12.320  20.783  0.00  0.00    +0.000 A 
ATOM      2  N   UNL     1       1.569  12.920  21.174  0.00  0.00    +0.000 NA
ATOM      3  C   UNL     1       1.735  14.212  20.869  0.00  0.00    +0.000 A 
ATOM      4  C   UNL     1       2.892  14.869  21.276  0.00  0.00    +0.000 A 
ATOM      5  C   UNL     1       3.102  16.219  20.998  0.00  0.00    +0.000 A 
ATOM      6  C   UNL     1       2.140  16.928  20.293  0.00  0.00    +0.000 A 
ATOM      7  C   UNL     1       0.979  16.279  19.873  0.00  0.00    +0.000 A 
ATOM      8  C   UNL     1       0.755  14.932  20.148  0.00  0.00    +0.000 A 
ATOM      9  N   UNL     1      -0.386  14.344  19.741  0.00  0.00    +0.000 NA
ATOM     10  C   UNL     1      -0.564  13.029  20.058  0.00  0.00    +0.000 A 
ENDROOT
BRANCH   1  15
ATOM     11  C   UNL     1       1.702   7.147  19.926  0.00  0.00    +0.000 A 
ATOM     12  C   UNL     1       2.081   8.226  19.131  0.00  0.00    +0.000 A 
ATOM     13  C   UNL     1       1.661   9.526  19.444  0.00  0.00    +0.000 A 
ATOM     14  C   UNL     1       0.873   9.753  20.591  0.00  0.00    +0.000 A 
ATOM     15  C   UNL     1       0.315  10.921  21.214  0.00  0.00    +0.000 A 
ATOM     16  C   UNL     1      -0.261  10.488  22.395  0.00  0.00    +0.000 A 
ATOM     17  N   UNL     1      -0.248   9.119  22.409  0.00  0.00    +0.000 N 
ATOM     18  C   UNL     1       0.494   8.646  21.354  0.00  0.00    +0.000 A 
ATOM     19  C   UNL     1       0.864   7.336  21.029  0.00  0.00    +0.000 A 
ATOM     20  H   UNL     1      -0.669   8.537  23.119  0.00  0.00    +0.000 HD
BRANCH  11  22
ATOM     21  C   UNL     1       2.184   5.042  20.867  0.00  0.00    +0.000 C 
ATOM     22  O   UNL     1       2.071   5.847  19.698  0.00  0.00    +0.000 OA
ENDBRANCH  11  22
ENDBRANCH   1  15
BRANCH  10  23
ATOM     23  C   UNL     1      -1.863  12.492  19.643  0.00  0.00    +0.000 A 
ATOM     24  C   UNL     1      -3.085  12.878  20.168  0.00  0.00    +0.000 A 
ATOM     25  N   UNL     1      -4.073  12.349  19.380  0.00  0.00    +0.000 N 
ATOM     26  C   UNL     1      -3.532  11.494  18.451  0.00  0.00    +0.000 A 
ATOM     27  C   UNL     1      -4.160  10.717  17.469  0.00  0.00    +0.000 A 
ATOM     28  C   UNL     1      -3.353   9.889  16.686  0.00  0.00    +0.000 A 
ATOM     29  C   UNL     1      -1.972   9.854  16.866  0.00  0.00    +0.000 A 
ATOM     30  C   UNL     1      -1.358  10.673  17.820  0.00  0.00    +0.000 A 
ATOM     31  C   UNL     1      -2.148  11.514  18.633  0.00  0.00    +0.000 A 
ATOM     32  H   UNL     1      -5.060  12.553  19.466  0.00  0.00    +0.000 HD
ENDBRANCH  10  23
TORSDOF 3
ENDMDL
MODEL 8
REMARK VINA RESULT:      -7.1      8.752     12.037
REMARK  Name = 
REMARK  4 active torsions:
REMARK  status: ('A' for Active; 'I' for Inactive)
REMARK    1  A    between atoms: C_1  and  O_2
REMARK    2  A    between atoms: O_2  and  C_3
REMARK    3  A    between atoms: C_7  and  C_8
REMARK    4  A    between atoms: C_17  and  C_18
REMARK                            x       y       z     vdW  Elec       q    Type
REMARK                         _______ _______ _______ _____ _____    ______ ____
ROOT
ATOM      1  C   UNL     1      -1.914  14.362  20.462  0.00  0.00    +0.000 A 
ATOM      2  N   UNL     1      -1.907  15.727  20.399  0.00  0.00    +0.000 NA
ATOM      3  C   UNL     1      -0.867  16.314  19.795  0.00  0.00    +0.000 A 
ATOM      4  C   UNL     1      -0.834  17.701  19.681  0.00  0.00    +0.000 A 
ATOM      5  C   UNL     1       0.218  18.358  19.046  0.00  0.00    +0.000 A 
ATOM      6  C   UNL     1       1.265  17.617  18.518  0.00  0.00    +0.000 A 
ATOM      7  C   UNL     1       1.249  16.226  18.633  0.00  0.00    +0.000 A 
ATOM      8  C   UNL     1       0.201  15.558  19.261  0.00  0.00    +0.000 A 
ATOM      9  N   UNL     1       0.212  14.213  19.338  0.00  0.00    +0.000 NA
ATOM     10  C   UNL     1      -0.851  13.609  19.943  0.00  0.00    +0.000 A 
ENDROOT
BRANCH   1  15
ATOM     11  C   UNL     1      -6.448  11.456  20.028  0.00  0.00    +0.000 A 
ATOM     12  C   UNL     1      -5.524  11.686  19.010  0.00  0.00    +0.000 A 
ATOM     13  C   UNL     1      -4.393  12.480  19.239  0.00  0.00    +0.000 A 
ATOM     14  C   UNL     1      -4.165  13.028  20.518  0.00  0.00    +0.000 A 
ATOM     15  C   UNL     1      -3.124  13.831  21.099  0.00  0.00    +0.000 A 
ATOM     16  C   UNL     1      -3.426  13.935  22.445  0.00  0.00    +0.000 A 
ATOM     17  N   UNL     1      -4.674  13.411  22.653  0.00  0.00    +0.000 N 
ATOM     18  C   UNL     1      -5.121  12.795  21.509  0.00  0.00    +0.000 A 
ATOM     19  C   UNL     1      -6.281  12.045  21.285  0.00  0.00    +0.000 A 
ATOM     20  H   UNL     1      -5.175  13.422  23.530  0.00  0.00    +0.000 HD
BRANCH  11  22
ATOM     21  C   UNL     1      -7.429   9.332  20.296  0.00  0.00    +0.000 C 
ATOM     22  O   UNL     1      -7.576  10.690  19.894  0.00  0.00    +0.000 OA
ENDBRANCH  11  22
ENDBRANCH   1  15
BRANCH  10  23
ATOM     23  C   UNL     1      -0.794  12.145  19.915  0.00  0.00    +0.000 A 
ATOM     24  C   UNL     1      -0.790  11.374  18.764  0.00  0.00    +0.000 A 
ATOM     25  N   UNL     1      -0.488  10.084  19.116  0.00  0.00    +0.000 N 
ATOM     26  C   UNL     1      -0.454   9.962  20.484  0.00  0.00    +0.000 A 
ATOM     27  C   UNL     1      -0.215   8.836  21.281  0.00  0.00    +0.000 A 
ATOM     28  C   UNL     1      -0.293   8.996  22.667  0.00  0.00    +0.000 A 
ATOM     29  C   UNL     1      -0.580  10.236  23.231  0.00  0.00    +0.000 A 
ATOM     30  C   UNL     1      -0.768  11.361  22.419  0.00  0.00    +0.000 A 
ATOM     31  C   UNL     1      -0.705  11.229  21.014  0.00  0.00    +0.000 A 
ATOM     32  H   UNL     1      -0.316   9.328  18.468  0.00  0.00    +0.000 HD
ENDBRANCH  10  23
TORSDOF 3
ENDMDL
MODEL 9
REMARK VINA RESULT:      -7.1      6.324     10.944
REMARK  Name = 
REMARK  4 active torsions:
REMARK  status: ('A' for Active; 'I' for Inactive)
REMARK    1  A    between atoms: C_1  and  O_2
REMARK    2  A    between atoms: O_2  and  C_3
REMARK    3  A    between atoms: C_7  and  C_8
REMARK    4  A    between atoms: C_17  and  C_18
REMARK                            x       y       z     vdW  Elec       q    Type
REMARK                         _______ _______ _______ _____ _____    ______ ____
ROOT
ATOM      1  C   UNL     1      -0.287  12.403  21.243  0.00  0.00    +0.000 A 
ATOM      2  N   UNL     1      -1.407  11.916  21.856  0.00  0.00    +0.000 NA
ATOM      3  C   UNL     1      -1.978  12.675  22.799  0.00  0.00    +0.000 A 
ATOM      4  C   UNL     1      -3.139  12.230  23.426  0.00  0.00    +0.000 A 
ATOM      5  C   UNL     1      -3.781  12.992  24.401  0.00  0.00    +0.000 A 
ATOM      6  C   UNL     1      -3.252  14.222  24.763  0.00  0.00    +0.000 A 
ATOM      7  C   UNL     1      -2.085  14.675  24.147  0.00  0.00    +0.000 A 
ATOM      8  C   UNL     1      -1.437  13.926  23.169  0.00  0.00    +0.000 A 
ATOM      9  N   UNL     1      -0.321  14.405  22.585  0.00  0.00    +0.000 NA
ATOM     10  C   UNL     1       0.259  13.640  21.616  0.00  0.00    +0.000 A 
ENDROOT
BRANCH   1  15
ATOM     11  C   UNL     1       1.905   7.648  19.916  0.00  0.00    +0.000 A 
ATOM     12  C   UNL     1       1.571   8.063  21.204  0.00  0.00    +0.000 A 
ATOM     13  C   UNL     1       1.027   9.335  21.426  0.00  0.00    +0.000 A 
ATOM     14  C   UNL     1       0.785  10.196  20.336  0.00  0.00    +0.000 A 
ATOM     15  C   UNL     1       0.221  11.510  20.197  0.00  0.00    +0.000 A 
ATOM     16  C   UNL     1       0.146  11.754  18.837  0.00  0.00    +0.000 A 
ATOM     17  N   UNL     1       0.807  10.752  18.179  0.00  0.00    +0.000 N 
ATOM     18  C   UNL     1       1.150   9.757  19.062  0.00  0.00    +0.000 A 
ATOM     19  C   UNL     1       1.739   8.509  18.827  0.00  0.00    +0.000 A 
ATOM     20  H   UNL     1       0.971  10.715  17.182  0.00  0.00    +0.000 HD
BRANCH  11  22
ATOM     21  C   UNL     1       1.919   5.337  20.372  0.00  0.00    +0.000 C 
ATOM     22  O   UNL     1       2.435   6.422  19.608  0.00  0.00    +0.000 OA
ENDBRANCH  11  22
ENDBRANCH   1  15
BRANCH  10  23
ATOM     23  C   UNL     1       1.421  14.270  20.982  0.00  0.00    +0.000 A 
ATOM     24  C   UNL     1       2.742  13.952  21.254  0.00  0.00    +0.000 A 
ATOM     25  N   UNL     1       3.529  14.563  20.313  0.00  0.00    +0.000 N 
ATOM     26  C   UNL     1       2.770  15.402  19.532  0.00  0.00    +0.000 A 
ATOM     27  C   UNL     1       3.152  16.240  18.477  0.00  0.00    +0.000 A 
ATOM     28  C   UNL     1       2.163  17.031  17.889  0.00  0.00    +0.000 A 
ATOM     29  C   UNL     1       0.842  16.972  18.327  0.00  0.00    +0.000 A 
ATOM     30  C   UNL     1       0.471  16.092  19.351  0.00  0.00    +0.000 A 
ATOM     31  C   UNL     1       1.450  15.286  19.971  0.00  0.00    +0.000 A 
ATOM     32  H   UNL     1       4.524  14.421  20.204  0.00  0.00    +0.000 HD
ENDBRANCH  10  23
TORSDOF 3
ENDMDL
