MODEL 1
REMARK VINA RESULT:      -7.9      0.000      0.000
REMARK  Name = 
REMARK  10 active torsions:
REMARK  status: ('A' for Active; 'I' for Inactive)
REMARK    1  A    between atoms: C_1  and  C_2
REMARK    2  A    between atoms: C_2  and  O_4
REMARK    3  A    between atoms: O_4  and  C_5
REMARK    4  A    between atoms: C_5  and  C_6
REMARK    5  A    between atoms: C_6  and  N_7
REMARK    6  A    between atoms: C_9  and  C_10
REMARK    7  A    between atoms: N_12  and  C_13
REMARK    8  A    between atoms: C_17  and  C_18
REMARK    9  A    between atoms: N_20  and  C_21
REMARK   10  A    between atoms: C_21  and  C_22
REMARK                            x       y       z     vdW  Elec       q    Type
REMARK                         _______ _______ _______ _____ _____    ______ ____
ROOT
ATOM      1  C   UNL     1       3.136   5.544  19.245  0.00  0.00    +0.000 A 
ATOM      2  C   UNL     1       2.481   4.512  19.922  0.00  0.00    +0.000 A 
ATOM      3  C   UNL     1       1.481   4.782  20.852  0.00  0.00    +0.000 A 
ATOM      4  C   UNL     1       1.117   6.098  21.115  0.00  0.00    +0.000 A 
ATOM      5  C   UNL     1       1.761   7.159  20.463  0.00  0.00    +0.000 A 
ATOM      6  C   UNL     1       2.788   6.873  19.540  0.00  0.00    +0.000 A 
ENDROOT
BRANCH   5   7
ATOM      7  C   UNL     1       1.340   8.525  20.712  0.00  0.00    +0.000 A 
ATOM      8  C   UNL     1       1.170   9.514  19.766  0.00  0.00    +0.000 A 
ATOM      9  N   UNL     1       0.818  10.613  20.495  0.00  0.00    +0.000 N 
ATOM     10  N   UNL     1       0.735  10.320  21.806  0.00  0.00    +0.000 NA
ATOM     11  N   UNL     1       1.061   9.040  21.952  0.00  0.00    +0.000 NA
BRANCH   9  12
ATOM     12  C   UNL     1       0.417  11.917  19.994  0.00  0.00    +0.000 C 
BRANCH  12  13
ATOM     13  C   UNL     1      -1.064  12.013  19.721  0.00  0.00    +0.000 A 
ATOM     14  C   UNL     1      -1.628  11.375  18.602  0.00  0.00    +0.000 A 
ATOM     15  C   UNL     1      -3.005  11.411  18.384  0.00  0.00    +0.000 A 
ATOM     16  C   UNL     1      -3.840  12.075  19.278  0.00  0.00    +0.000 A 
ATOM     17  C   UNL     1      -3.296  12.715  20.389  0.00  0.00    +0.000 A 
ATOM     18  C   UNL     1      -1.918  12.684  20.610  0.00  0.00    +0.000 A 
ENDBRANCH  12  13
ENDBRANCH   9  12
ENDBRANCH   5   7
BRANCH   1  21
ATOM     19  C   UNL     1       5.504   5.279  18.511  0.00  0.00    +0.000 C 
ATOM     20  O   UNL     1       6.046   5.424  19.602  0.00  0.00    +0.000 OA
ATOM     21  N   UNL     1       4.136   5.300  18.276  0.00  0.00    +0.000 N 
ATOM     22  H   UNL     1       3.843   5.019  17.345  0.00  0.00    +0.000 HD
BRANCH  19  25
ATOM     23  N   UNL     1       6.986   4.769  15.290  0.00  0.00    +0.000 N 
ATOM     24  C   UNL     1       5.879   5.068  16.016  0.00  0.00    +0.000 A 
ATOM     25  C   UNL     1       6.310   5.014  17.327  0.00  0.00    +0.000 A 
ATOM     26  N   UNL     1       7.643   4.675  17.342  0.00  0.00    +0.000 NA
ATOM     27  N   UNL     1       8.043   4.522  16.084  0.00  0.00    +0.000 NA
BRANCH  23  28
ATOM     28  C   UNL     1       7.104   4.693  13.847  0.00  0.00    +0.000 C 
BRANCH  28  29
ATOM     29  C   UNL     1       6.016   3.818  13.235  0.00  0.00    +0.000 C 
BRANCH  29  30
ATOM     30  O   UNL     1       6.477   3.119  12.060  0.00  0.00    +0.000 OA
BRANCH  30  32
ATOM     31  C   UNL     1       6.209   0.986  11.120  0.00  0.00    +0.000 C 
ATOM     32  C   UNL     1       5.573   2.294  11.471  0.00  0.00    +0.000 C 
ATOM     33  O   UNL     1       4.410   2.591  11.224  0.00  0.00    +0.000 OA
ENDBRANCH  30  32
ENDBRANCH  29  30
ENDBRANCH  28  29
ENDBRANCH  23  28
ENDBRANCH  19  25
ENDBRANCH   1  21
TORSDOF 9
ENDMDL
MODEL 2
REMARK VINA RESULT:      -7.7      2.956      5.322
REMARK  Name = 
REMARK  10 active torsions:
REMARK  status: ('A' for Active; 'I' for Inactive)
REMARK    1  A    between atoms: C_1  and  C_2
REMARK    2  A    between atoms: C_2  and  O_4
REMARK    3  A    between atoms: O_4  and  C_5
REMARK    4  A    between atoms: C_5  and  C_6
REMARK    5  A    between atoms: C_6  and  N_7
REMARK    6  A    between atoms: C_9  and  C_10
REMARK    7  A    between atoms: N_12  and  C_13
REMARK    8  A    between atoms: C_17  and  C_18
REMARK    9  A    between atoms: N_20  and  C_21
REMARK   10  A    between atoms: C_21  and  C_22
REMARK                            x       y       z     vdW  Elec       q    Type
REMARK                         _______ _______ _______ _____ _____    ______ ____
ROOT
ATOM      1  C   UNL     1       1.376   9.653  18.437  0.00  0.00    +0.000 A 
ATOM      2  C   UNL     1       1.971  10.836  18.885  0.00  0.00    +0.000 A 
ATOM      3  C   UNL     1       1.237  12.014  18.995  0.00  0.00    +0.000 A 
ATOM      4  C   UNL     1      -0.113  12.023  18.663  0.00  0.00    +0.000 A 
ATOM      5  C   UNL     1      -0.740  10.857  18.199  0.00  0.00    +0.000 A 
ATOM      6  C   UNL     1       0.020   9.676  18.070  0.00  0.00    +0.000 A 
ENDROOT
BRANCH   5   7
ATOM      7  C   UNL     1      -2.160  10.868  17.900  0.00  0.00    +0.000 A 
ATOM      8  C   UNL     1      -3.074  11.819  18.300  0.00  0.00    +0.000 A 
ATOM      9  N   UNL     1      -4.264  11.362  17.814  0.00  0.00    +0.000 N 
ATOM     10  N   UNL     1      -4.099  10.219  17.121  0.00  0.00    +0.000 NA
ATOM     11  N   UNL     1      -2.810   9.902  17.173  0.00  0.00    +0.000 NA
BRANCH   9  12
ATOM     12  C   UNL     1      -5.554  12.030  17.856  0.00  0.00    +0.000 C 
BRANCH  12  13
ATOM     13  C   UNL     1      -6.412  11.584  19.014  0.00  0.00    +0.000 A 
ATOM     14  C   UNL     1      -6.755  10.230  19.168  0.00  0.00    +0.000 A 
ATOM     15  C   UNL     1      -7.497   9.807  20.273  0.00  0.00    +0.000 A 
ATOM     16  C   UNL     1      -7.898  10.724  21.241  0.00  0.00    +0.000 A 
ATOM     17  C   UNL     1      -7.568  12.070  21.099  0.00  0.00    +0.000 A 
ATOM     18  C   UNL     1      -6.829  12.497  19.993  0.00  0.00    +0.000 A 
ENDBRANCH  12  13
ENDBRANCH   9  12
ENDBRANCH   5   7
BRANCH   1  21
ATOM     19  C   UNL     1       2.218   7.492  19.348  0.00  0.00    +0.000 C 
ATOM     20  O   UNL     1       1.699   7.551  20.458  0.00  0.00    +0.000 OA
ATOM     21  N   UNL     1       2.088   8.436  18.340  0.00  0.00    +0.000 N 
ATOM     22  H   UNL     1       2.460   8.170  17.433  0.00  0.00    +0.000 HD
BRANCH  19  25
ATOM     23  N   UNL     1       3.991   4.743  17.884  0.00  0.00    +0.000 N 
ATOM     24  C   UNL     1       3.122   5.774  17.722  0.00  0.00    +0.000 A 
ATOM     25  C   UNL     1       3.020   6.331  18.981  0.00  0.00    +0.000 A 
ATOM     26  N   UNL     1       3.812   5.616  19.848  0.00  0.00    +0.000 NA
ATOM     27  N   UNL     1       4.397   4.640  19.161  0.00  0.00    +0.000 NA
BRANCH  23  28
ATOM     28  C   UNL     1       4.466   3.819  16.874  0.00  0.00    +0.000 C 
BRANCH  28  29
ATOM     29  C   UNL     1       5.400   4.499  15.878  0.00  0.00    +0.000 C 
BRANCH  29  30
ATOM     30  O   UNL     1       6.766   4.061  16.030  0.00  0.00    +0.000 OA
BRANCH  30  32
ATOM     31  C   UNL     1       7.164   6.146  17.032  0.00  0.00    +0.000 C 
ATOM     32  C   UNL     1       7.481   4.684  17.004  0.00  0.00    +0.000 C 
ATOM     33  O   UNL     1       8.299   4.134  17.732  0.00  0.00    +0.000 OA
ENDBRANCH  30  32
ENDBRANCH  29  30
ENDBRANCH  28  29
ENDBRANCH  23  28
ENDBRANCH  19  25
ENDBRANCH   1  21
TORSDOF 9
ENDMDL
MODEL 3
REMARK VINA RESULT:      -7.7      3.317      9.934
REMARK  Name = 
REMARK  10 active torsions:
REMARK  status: ('A' for Active; 'I' for Inactive)
REMARK    1  A    between atoms: C_1  and  C_2
REMARK    2  A    between atoms: C_2  and  O_4
REMARK    3  A    between atoms: O_4  and  C_5
REMARK    4  A    between atoms: C_5  and  C_6
REMARK    5  A    between atoms: C_6  and  N_7
REMARK    6  A    between atoms: C_9  and  C_10
REMARK    7  A    between atoms: N_12  and  C_13
REMARK    8  A    between atoms: C_17  and  C_18
REMARK    9  A    between atoms: N_20  and  C_21
REMARK   10  A    between atoms: C_21  and  C_22
REMARK                            x       y       z     vdW  Elec       q    Type
REMARK                         _______ _______ _______ _____ _____    ______ ____
ROOT
ATOM      1  C   UNL     1       1.972   6.773  20.096  0.00  0.00    +0.000 A 
ATOM      2  C   UNL     1       1.488   5.704  20.855  0.00  0.00    +0.000 A 
ATOM      3  C   UNL     1       2.127   4.466  20.844  0.00  0.00    +0.000 A 
ATOM      4  C   UNL     1       3.269   4.283  20.072  0.00  0.00    +0.000 A 
ATOM      5  C   UNL     1       3.775   5.331  19.290  0.00  0.00    +0.000 A 
ATOM      6  C   UNL     1       3.106   6.572  19.292  0.00  0.00    +0.000 A 
ENDROOT
BRANCH   5   7
ATOM      7  C   UNL     1       4.994   5.141  18.526  0.00  0.00    +0.000 A 
ATOM      8  C   UNL     1       5.310   5.742  17.326  0.00  0.00    +0.000 A 
ATOM      9  N   UNL     1       6.523   5.210  16.997  0.00  0.00    +0.000 N 
ATOM     10  N   UNL     1       6.955   4.362  17.949  0.00  0.00    +0.000 NA
ATOM     11  N   UNL     1       6.019   4.306  18.891  0.00  0.00    +0.000 NA
BRANCH   9  12
ATOM     12  C   UNL     1       7.374   5.570  15.875  0.00  0.00    +0.000 C 
BRANCH  12  13
ATOM     13  C   UNL     1       6.989   4.869  14.596  0.00  0.00    +0.000 A 
ATOM     14  C   UNL     1       5.861   4.032  14.550  0.00  0.00    +0.000 A 
ATOM     15  C   UNL     1       5.470   3.433  13.352  0.00  0.00    +0.000 A 
ATOM     16  C   UNL     1       6.190   3.665  12.183  0.00  0.00    +0.000 A 
ATOM     17  C   UNL     1       7.312   4.490  12.214  0.00  0.00    +0.000 A 
ATOM     18  C   UNL     1       7.709   5.088  13.411  0.00  0.00    +0.000 A 
ENDBRANCH  12  13
ENDBRANCH   9  12
ENDBRANCH   5   7
BRANCH   1  21
ATOM     19  C   UNL     1       1.249   8.882  21.212  0.00  0.00    +0.000 C 
ATOM     20  O   UNL     1       1.702   8.657  22.330  0.00  0.00    +0.000 OA
ATOM     21  N   UNL     1       1.361   8.048  20.108  0.00  0.00    +0.000 N 
ATOM     22  H   UNL     1       1.061   8.443  19.223  0.00  0.00    +0.000 HD
BRANCH  19  25
ATOM     23  N   UNL     1      -0.750  11.654  20.139  0.00  0.00    +0.000 N 
ATOM     24  C   UNL     1      -0.405  10.351  19.981  0.00  0.00    +0.000 A 
ATOM     25  C   UNL     1       0.559  10.138  20.946  0.00  0.00    +0.000 A 
ATOM     26  N   UNL     1       0.767  11.310  21.633  0.00  0.00    +0.000 NA
ATOM     27  N   UNL     1      -0.041  12.235  21.123  0.00  0.00    +0.000 NA
BRANCH  23  28
ATOM     28  C   UNL     1      -1.735  12.407  19.387  0.00  0.00    +0.000 C 
BRANCH  28  29
ATOM     29  C   UNL     1      -1.605  12.169  17.887  0.00  0.00    +0.000 C 
BRANCH  29  30
ATOM     30  O   UNL     1      -2.821  11.647  17.312  0.00  0.00    +0.000 OA
BRANCH  30  32
ATOM     31  C   UNL     1      -3.498   9.475  17.887  0.00  0.00    +0.000 C 
ATOM     32  C   UNL     1      -2.775  10.349  16.912  0.00  0.00    +0.000 C 
ATOM     33  O   UNL     1      -2.191   9.945  15.914  0.00  0.00    +0.000 OA
ENDBRANCH  30  32
ENDBRANCH  29  30
ENDBRANCH  28  29
ENDBRANCH  23  28
ENDBRANCH  19  25
ENDBRANCH   1  21
TORSDOF 9
ENDMDL
MODEL 4
REMARK VINA RESULT:      -7.7      5.766     12.028
REMARK  Name = 
REMARK  10 active torsions:
REMARK  status: ('A' for Active; 'I' for Inactive)
REMARK    1  A    between atoms: C_1  and  C_2
REMARK    2  A    between atoms: C_2  and  O_4
REMARK    3  A    between atoms: O_4  and  C_5
REMARK    4  A    between atoms: C_5  and  C_6
REMARK    5  A    between atoms: C_6  and  N_7
REMARK    6  A    between atoms: C_9  and  C_10
REMARK    7  A    between atoms: N_12  and  C_13
REMARK    8  A    between atoms: C_17  and  C_18
REMARK    9  A    between atoms: N_20  and  C_21
REMARK   10  A    between atoms: C_21  and  C_22
REMARK                            x       y       z     vdW  Elec       q    Type
REMARK                         _______ _______ _______ _____ _____    ______ ____
ROOT
ATOM      1  C   UNL     1      -0.852  11.729  20.401  0.00  0.00    +0.000 A 
ATOM      2  C   UNL     1      -0.294  12.732  19.604  0.00  0.00    +0.000 A 
ATOM      3  C   UNL     1       0.823  12.484  18.811  0.00  0.00    +0.000 A 
ATOM      4  C   UNL     1       1.398  11.218  18.801  0.00  0.00    +0.000 A 
ATOM      5  C   UNL     1       0.872  10.191  19.598  0.00  0.00    +0.000 A 
ATOM      6  C   UNL     1      -0.246  10.461  20.413  0.00  0.00    +0.000 A 
ENDROOT
BRANCH   5   7
ATOM      7  C   UNL     1       1.452   8.862  19.542  0.00  0.00    +0.000 A 
ATOM      8  C   UNL     1       1.500   7.946  20.572  0.00  0.00    +0.000 A 
ATOM      9  N   UNL     1       2.178   6.886  20.043  0.00  0.00    +0.000 N 
ATOM     10  N   UNL     1       2.498   7.109  18.754  0.00  0.00    +0.000 NA
ATOM     11  N   UNL     1       2.063   8.325  18.438  0.00  0.00    +0.000 NA
BRANCH   9  12
ATOM     12  C   UNL     1       2.425   5.595  20.661  0.00  0.00    +0.000 C 
BRANCH  12  13
ATOM     13  C   UNL     1       2.344   4.449  19.683  0.00  0.00    +0.000 A 
ATOM     14  C   UNL     1       3.502   3.969  19.047  0.00  0.00    +0.000 A 
ATOM     15  C   UNL     1       3.438   2.869  18.190  0.00  0.00    +0.000 A 
ATOM     16  C   UNL     1       2.222   2.229  17.961  0.00  0.00    +0.000 A 
ATOM     17  C   UNL     1       1.066   2.695  18.582  0.00  0.00    +0.000 A 
ATOM     18  C   UNL     1       1.126   3.797  19.437  0.00  0.00    +0.000 A 
ENDBRANCH  12  13
ENDBRANCH   9  12
ENDBRANCH   5   7
BRANCH   1  21
ATOM     19  C   UNL     1      -2.004  12.299  22.537  0.00  0.00    +0.000 C 
ATOM     20  O   UNL     1      -1.011  12.524  23.221  0.00  0.00    +0.000 OA
ATOM     21  N   UNL     1      -2.002  11.943  21.195  0.00  0.00    +0.000 N 
ATOM     22  H   UNL     1      -2.908  11.935  20.738  0.00  0.00    +0.000 HD
BRANCH  19  25
ATOM     23  N   UNL     1      -5.390  12.999  23.476  0.00  0.00    +0.000 N 
ATOM     24  C   UNL     1      -4.368  13.203  22.606  0.00  0.00    +0.000 A 
ATOM     25  C   UNL     1      -3.334  12.443  23.115  0.00  0.00    +0.000 A 
ATOM     26  N   UNL     1      -3.763  11.825  24.266  0.00  0.00    +0.000 NA
ATOM     27  N   UNL     1      -5.026  12.180  24.478  0.00  0.00    +0.000 NA
BRANCH  23  28
ATOM     28  C   UNL     1      -6.728  13.554  23.416  0.00  0.00    +0.000 C 
BRANCH  28  29
ATOM     29  C   UNL     1      -7.771  12.486  23.108  0.00  0.00    +0.000 C 
BRANCH  29  30
ATOM     30  O   UNL     1      -7.236  11.422  22.296  0.00  0.00    +0.000 OA
BRANCH  30  32
ATOM     31  C   UNL     1      -7.400  10.146  20.333  0.00  0.00    +0.000 C 
ATOM     32  C   UNL     1      -7.511  11.496  20.968  0.00  0.00    +0.000 C 
ATOM     33  O   UNL     1      -7.776  12.529  20.364  0.00  0.00    +0.000 OA
ENDBRANCH  30  32
ENDBRANCH  29  30
ENDBRANCH  28  29
ENDBRANCH  23  28
ENDBRANCH  19  25
ENDBRANCH   1  21
TORSDOF 9
ENDMDL
MODEL 5
REMARK VINA RESULT:      -7.7      2.794      4.380
REMARK  Name = 
REMARK  10 active torsions:
REMARK  status: ('A' for Active; 'I' for Inactive)
REMARK    1  A    between atoms: C_1  and  C_2
REMARK    2  A    between atoms: C_2  and  O_4
REMARK    3  A    between atoms: O_4  and  C_5
REMARK    4  A    between atoms: C_5  and  C_6
REMARK    5  A    between atoms: C_6  and  N_7
REMARK    6  A    between atoms: C_9  and  C_10
REMARK    7  A    between atoms: N_12  and  C_13
REMARK    8  A    between atoms: C_17  and  C_18
REMARK    9  A    between atoms: N_20  and  C_21
REMARK   10  A    between atoms: C_21  and  C_22
REMARK                            x       y       z     vdW  Elec       q    Type
REMARK                         _______ _______ _______ _____ _____    ______ ____
ROOT
ATOM      1  C   UNL     1       1.639   8.168  20.287  0.00  0.00    +0.000 A 
ATOM      2  C   UNL     1       1.625   8.351  21.672  0.00  0.00    +0.000 A 
ATOM      3  C   UNL     1       0.818   9.320  22.263  0.00  0.00    +0.000 A 
ATOM      4  C   UNL     1       0.004  10.120  21.470  0.00  0.00    +0.000 A 
ATOM      5  C   UNL     1       0.002   9.973  20.075  0.00  0.00    +0.000 A 
ATOM      6  C   UNL     1       0.840   9.004  19.488  0.00  0.00    +0.000 A 
ENDROOT
BRANCH   5   7
ATOM      7  C   UNL     1      -0.887  10.783  19.263  0.00  0.00    +0.000 A 
ATOM      8  C   UNL     1      -2.157  10.441  18.850  0.00  0.00    +0.000 A 
ATOM      9  N   UNL     1      -2.552  11.498  18.082  0.00  0.00    +0.000 N 
ATOM     10  N   UNL     1      -1.606  12.455  18.050  0.00  0.00    +0.000 NA
ATOM     11  N   UNL     1      -0.575  12.023  18.767  0.00  0.00    +0.000 NA
BRANCH   9  12
ATOM     12  C   UNL     1      -3.856  11.715  17.477  0.00  0.00    +0.000 C 
BRANCH  12  13
ATOM     13  C   UNL     1      -4.991  11.596  18.463  0.00  0.00    +0.000 A 
ATOM     14  C   UNL     1      -5.916  10.542  18.364  0.00  0.00    +0.000 A 
ATOM     15  C   UNL     1      -6.929  10.396  19.312  0.00  0.00    +0.000 A 
ATOM     16  C   UNL     1      -7.030  11.291  20.375  0.00  0.00    +0.000 A 
ATOM     17  C   UNL     1      -6.122  12.341  20.484  0.00  0.00    +0.000 A 
ATOM     18  C   UNL     1      -5.109  12.493  19.535  0.00  0.00    +0.000 A 
ENDBRANCH  12  13
ENDBRANCH   9  12
ENDBRANCH   5   7
BRANCH   1  21
ATOM     19  C   UNL     1       2.317   5.807  19.864  0.00  0.00    +0.000 C 
ATOM     20  O   UNL     1       1.490   5.253  20.581  0.00  0.00    +0.000 OA
ATOM     21  N   UNL     1       2.427   7.176  19.661  0.00  0.00    +0.000 N 
ATOM     22  H   UNL     1       3.066   7.464  18.927  0.00  0.00    +0.000 HD
BRANCH  19  25
ATOM     23  N   UNL     1       4.526   4.229  17.525  0.00  0.00    +0.000 N 
ATOM     24  C   UNL     1       3.600   5.192  17.770  0.00  0.00    +0.000 A 
ATOM     25  C   UNL     1       3.266   5.010  19.097  0.00  0.00    +0.000 A 
ATOM     26  N   UNL     1       3.985   3.950  19.594  0.00  0.00    +0.000 NA
ATOM     27  N   UNL     1       4.751   3.476  18.616  0.00  0.00    +0.000 NA
BRANCH  23  28
ATOM     28  C   UNL     1       5.225   3.968  16.283  0.00  0.00    +0.000 C 
BRANCH  28  29
ATOM     29  C   UNL     1       5.716   5.255  15.628  0.00  0.00    +0.000 C 
BRANCH  29  30
ATOM     30  O   UNL     1       7.133   5.449  15.809  0.00  0.00    +0.000 OA
BRANCH  30  32
ATOM     31  C   UNL     1       7.364   6.442  17.923  0.00  0.00    +0.000 C 
ATOM     32  C   UNL     1       7.603   5.239  17.067  0.00  0.00    +0.000 C 
ATOM     33  O   UNL     1       8.176   4.223  17.439  0.00  0.00    +0.000 OA
ENDBRANCH  30  32
ENDBRANCH  29  30
ENDBRANCH  28  29
ENDBRANCH  23  28
ENDBRANCH  19  25
ENDBRANCH   1  21
TORSDOF 9
ENDMDL
MODEL 6
REMARK VINA RESULT:      -7.6      3.281      5.666
REMARK  Name = 
REMARK  10 active torsions:
REMARK  status: ('A' for Active; 'I' for Inactive)
REMARK    1  A    between atoms: C_1  and  C_2
REMARK    2  A    between atoms: C_2  and  O_4
REMARK    3  A    between atoms: O_4  and  C_5
REMARK    4  A    between atoms: C_5  and  C_6
REMARK    5  A    between atoms: C_6  and  N_7
REMARK    6  A    between atoms: C_9  and  C_10
REMARK    7  A    between atoms: N_12  and  C_13
REMARK    8  A    between atoms: C_17  and  C_18
REMARK    9  A    between atoms: N_20  and  C_21
REMARK   10  A    between atoms: C_21  and  C_22
REMARK                            x       y       z     vdW  Elec       q    Type
REMARK                         _______ _______ _______ _____ _____    ______ ____
ROOT
ATOM      1  C   UNL     1       0.491  10.333  19.490  0.00  0.00    +0.000 A 
ATOM      2  C   UNL     1       0.911  11.461  20.200  0.00  0.00    +0.000 A 
ATOM      3  C   UNL     1       0.101  12.588  20.308  0.00  0.00    +0.000 A 
ATOM      4  C   UNL     1      -1.153  12.599  19.707  0.00  0.00    +0.000 A 
ATOM      5  C   UNL     1      -1.603  11.489  18.977  0.00  0.00    +0.000 A 
ATOM      6  C   UNL     1      -0.763  10.363  18.856  0.00  0.00    +0.000 A 
ENDROOT
BRANCH   5   7
ATOM      7  C   UNL     1      -2.932  11.496  18.394  0.00  0.00    +0.000 A 
ATOM      8  C   UNL     1      -4.079  11.991  18.977  0.00  0.00    +0.000 A 
ATOM      9  N   UNL     1      -5.057  11.723  18.064  0.00  0.00    +0.000 N 
ATOM     10  N   UNL     1      -4.549  11.135  16.965  0.00  0.00    +0.000 NA
ATOM     11  N   UNL     1      -3.243  10.984  17.160  0.00  0.00    +0.000 NA
BRANCH   9  12
ATOM     12  C   UNL     1      -6.453  12.124  18.119  0.00  0.00    +0.000 C 
BRANCH  12  13
ATOM     13  C   UNL     1      -6.651  13.602  17.892  0.00  0.00    +0.000 A 
ATOM     14  C   UNL     1      -6.837  14.108  16.594  0.00  0.00    +0.000 A 
ATOM     15  C   UNL     1      -7.082  15.466  16.389  0.00  0.00    +0.000 A 
ATOM     16  C   UNL     1      -7.153  16.337  17.473  0.00  0.00    +0.000 A 
ATOM     17  C   UNL     1      -6.968  15.851  18.765  0.00  0.00    +0.000 A 
ATOM     18  C   UNL     1      -6.719  14.493  18.973  0.00  0.00    +0.000 A 
ENDBRANCH  12  13
ENDBRANCH   9  12
ENDBRANCH   5   7
BRANCH   1  21
ATOM     19  C   UNL     1       2.044   8.800  18.286  0.00  0.00    +0.000 C 
ATOM     20  O   UNL     1       2.183   9.456  17.258  0.00  0.00    +0.000 OA
ATOM     21  N   UNL     1       1.280   9.165  19.385  0.00  0.00    +0.000 N 
ATOM     22  H   UNL     1       1.386   8.584  20.211  0.00  0.00    +0.000 HD
BRANCH  19  25
ATOM     23  N   UNL     1       4.081   5.855  18.169  0.00  0.00    +0.000 N 
ATOM     24  C   UNL     1       3.715   7.028  17.593  0.00  0.00    +0.000 A 
ATOM     25  C   UNL     1       2.751   7.535  18.442  0.00  0.00    +0.000 A 
ATOM     26  N   UNL     1       2.565   6.652  19.479  0.00  0.00    +0.000 NA
ATOM     27  N   UNL     1       3.384   5.622  19.296  0.00  0.00    +0.000 NA
BRANCH  23  28
ATOM     28  C   UNL     1       5.074   4.909  17.699  0.00  0.00    +0.000 C 
BRANCH  28  29
ATOM     29  C   UNL     1       6.066   5.560  16.740  0.00  0.00    +0.000 C 
BRANCH  29  30
ATOM     30  O   UNL     1       6.886   4.585  16.064  0.00  0.00    +0.000 OA
BRANCH  30  32
ATOM     31  C   UNL     1       6.015   3.972  13.973  0.00  0.00    +0.000 C 
ATOM     32  C   UNL     1       7.036   4.766  14.725  0.00  0.00    +0.000 C 
ATOM     33  O   UNL     1       7.907   5.450  14.204  0.00  0.00    +0.000 OA
ENDBRANCH  30  32
ENDBRANCH  29  30
ENDBRANCH  28  29
ENDBRANCH  23  28
ENDBRANCH  19  25
ENDBRANCH   1  21
TORSDOF 9
ENDMDL
MODEL 7
REMARK VINA RESULT:      -7.6      1.607      2.558
REMARK  Name = 
REMARK  10 active torsions:
REMARK  status: ('A' for Active; 'I' for Inactive)
REMARK    1  A    between atoms: C_1  and  C_2
REMARK    2  A    between atoms: C_2  and  O_4
REMARK    3  A    between atoms: O_4  and  C_5
REMARK    4  A    between atoms: C_5  and  C_6
REMARK    5  A    between atoms: C_6  and  N_7
REMARK    6  A    between atoms: C_9  and  C_10
REMARK    7  A    between atoms: N_12  and  C_13
REMARK    8  A    between atoms: C_17  and  C_18
REMARK    9  A    between atoms: N_20  and  C_21
REMARK   10  A    between atoms: C_21  and  C_22
REMARK                            x       y       z     vdW  Elec       q    Type
REMARK                         _______ _______ _______ _____ _____    ______ ____
ROOT
ATOM      1  C   UNL     1       3.138   5.504  18.681  0.00  0.00    +0.000 A 
ATOM      2  C   UNL     1       2.577   4.415  19.353  0.00  0.00    +0.000 A 
ATOM      3  C   UNL     1       1.695   4.600  20.415  0.00  0.00    +0.000 A 
ATOM      4  C   UNL     1       1.355   5.886  20.817  0.00  0.00    +0.000 A 
ATOM      5  C   UNL     1       1.908   7.003  20.173  0.00  0.00    +0.000 A 
ATOM      6  C   UNL     1       2.818   6.802  19.115  0.00  0.00    +0.000 A 
ENDROOT
BRANCH   5   7
ATOM      7  C   UNL     1       1.510   8.340  20.572  0.00  0.00    +0.000 A 
ATOM      8  C   UNL     1       1.155   9.374  19.731  0.00  0.00    +0.000 A 
ATOM      9  N   UNL     1       0.916  10.420  20.573  0.00  0.00    +0.000 N 
ATOM     10  N   UNL     1       1.072  10.054  21.859  0.00  0.00    +0.000 NA
ATOM     11  N   UNL     1       1.445   8.779  21.870  0.00  0.00    +0.000 NA
BRANCH   9  12
ATOM     12  C   UNL     1       0.406  11.737  20.228  0.00  0.00    +0.000 C 
BRANCH  12  13
ATOM     13  C   UNL     1       1.492  12.701  19.820  0.00  0.00    +0.000 A 
ATOM     14  C   UNL     1       1.923  12.769  18.484  0.00  0.00    +0.000 A 
ATOM     15  C   UNL     1       2.884  13.704  18.095  0.00  0.00    +0.000 A 
ATOM     16  C   UNL     1       3.422  14.587  19.028  0.00  0.00    +0.000 A 
ATOM     17  C   UNL     1       3.006  14.529  20.356  0.00  0.00    +0.000 A 
ATOM     18  C   UNL     1       2.048  13.593  20.750  0.00  0.00    +0.000 A 
ENDBRANCH  12  13
ENDBRANCH   9  12
ENDBRANCH   5   7
BRANCH   1  21
ATOM     19  C   UNL     1       5.384   5.138  17.665  0.00  0.00    +0.000 C 
ATOM     20  O   UNL     1       6.030   5.013  18.701  0.00  0.00    +0.000 OA
ATOM     21  N   UNL     1       4.015   5.348  17.584  0.00  0.00    +0.000 N 
ATOM     22  H   UNL     1       3.612   5.283  16.654  0.00  0.00    +0.000 HD
BRANCH  19  25
ATOM     23  N   UNL     1       6.576   4.470  14.353  0.00  0.00    +0.000 N 
ATOM     24  C   UNL     1       5.668   4.207  15.328  0.00  0.00    +0.000 A 
ATOM     25  C   UNL     1       6.050   5.024  16.374  0.00  0.00    +0.000 A 
ATOM     26  N   UNL     1       7.168   5.730  16.000  0.00  0.00    +0.000 NA
ATOM     27  N   UNL     1       7.483   5.376  14.758  0.00  0.00    +0.000 NA
BRANCH  23  28
ATOM     28  C   UNL     1       6.642   3.891  13.026  0.00  0.00    +0.000 C 
BRANCH  28  29
ATOM     29  C   UNL     1       5.314   3.265  12.614  0.00  0.00    +0.000 C 
BRANCH  29  30
ATOM     30  O   UNL     1       5.389   2.633  11.320  0.00  0.00    +0.000 OA
BRANCH  30  32
ATOM     31  C   UNL     1       7.590   1.938  10.896  0.00  0.00    +0.000 C 
ATOM     32  C   UNL     1       6.191   1.539  11.243  0.00  0.00    +0.000 C 
ATOM     33  O   UNL     1       5.814   0.383  11.396  0.00  0.00    +0.000 OA
ENDBRANCH  30  32
ENDBRANCH  29  30
ENDBRANCH  28  29
ENDBRANCH  23  28
ENDBRANCH  19  25
ENDBRANCH   1  21
TORSDOF 9
ENDMDL
MODEL 8
REMARK VINA RESULT:      -7.6      3.839      6.363
REMARK  Name = 
REMARK  10 active torsions:
REMARK  status: ('A' for Active; 'I' for Inactive)
REMARK    1  A    between atoms: C_1  and  C_2
REMARK    2  A    between atoms: C_2  and  O_4
REMARK    3  A    between atoms: O_4  and  C_5
REMARK    4  A    between atoms: C_5  and  C_6
REMARK    5  A    between atoms: C_6  and  N_7
REMARK    6  A    between atoms: C_9  and  C_10
REMARK    7  A    between atoms: N_12  and  C_13
REMARK    8  A    between atoms: C_17  and  C_18
REMARK    9  A    between atoms: N_20  and  C_21
REMARK   10  A    between atoms: C_21  and  C_22
REMARK                            x       y       z     vdW  Elec       q    Type
REMARK                         _______ _______ _______ _____ _____    ______ ____
ROOT
ATOM      1  C   UNL     1       0.625  10.436  18.957  0.00  0.00    +0.000 A 
ATOM      2  C   UNL     1       1.191  11.684  19.230  0.00  0.00    +0.000 A 
ATOM      3  C   UNL     1       0.481  12.861  19.008  0.00  0.00    +0.000 A 
ATOM      4  C   UNL     1      -0.817  12.803  18.511  0.00  0.00    +0.000 A 
ATOM      5  C   UNL     1      -1.412  11.569  18.214  0.00  0.00    +0.000 A 
ATOM      6  C   UNL     1      -0.674  10.386  18.422  0.00  0.00    +0.000 A 
ENDROOT
BRANCH   5   7
ATOM      7  C   UNL     1      -2.783  11.520  17.740  0.00  0.00    +0.000 A 
ATOM      8  C   UNL     1      -3.910  11.850  18.462  0.00  0.00    +0.000 A 
ATOM      9  N   UNL     1      -4.940  11.595  17.603  0.00  0.00    +0.000 N 
ATOM     10  N   UNL     1      -4.484  11.172  16.410  0.00  0.00    +0.000 NA
ATOM     11  N   UNL     1      -3.158  11.115  16.485  0.00  0.00    +0.000 NA
BRANCH   9  12
ATOM     12  C   UNL     1      -6.353  11.865  17.810  0.00  0.00    +0.000 C 
BRANCH  12  13
ATOM     13  C   UNL     1      -6.684  13.337  17.770  0.00  0.00    +0.000 A 
ATOM     14  C   UNL     1      -6.766  14.083  18.958  0.00  0.00    +0.000 A 
ATOM     15  C   UNL     1      -7.011  15.456  18.918  0.00  0.00    +0.000 A 
ATOM     16  C   UNL     1      -7.168  16.105  17.696  0.00  0.00    +0.000 A 
ATOM     17  C   UNL     1      -7.093  15.378  16.511  0.00  0.00    +0.000 A 
ATOM     18  C   UNL     1      -6.852  14.003  16.547  0.00  0.00    +0.000 A 
ENDBRANCH  12  13
ENDBRANCH   9  12
ENDBRANCH   5   7
BRANCH   1  21
ATOM     19  C   UNL     1       2.098   8.543  18.280  0.00  0.00    +0.000 C 
ATOM     20  O   UNL     1       2.353   8.914  17.138  0.00  0.00    +0.000 OA
ATOM     21  N   UNL     1       1.311   9.224  19.198  0.00  0.00    +0.000 N 
ATOM     22  H   UNL     1       1.318   8.857  20.145  0.00  0.00    +0.000 HD
BRANCH  19  25
ATOM     23  N   UNL     1       3.914   5.557  19.071  0.00  0.00    +0.000 N 
ATOM     24  C   UNL     1       3.731   6.608  18.231  0.00  0.00    +0.000 A 
ATOM     25  C   UNL     1       2.680   7.308  18.790  0.00  0.00    +0.000 A 
ATOM     26  N   UNL     1       2.265   6.653  19.926  0.00  0.00    +0.000 NA
ATOM     27  N   UNL     1       3.029   5.577  20.083  0.00  0.00    +0.000 NA
BRANCH  23  28
ATOM     28  C   UNL     1       4.901   4.501  18.965  0.00  0.00    +0.000 C 
BRANCH  28  29
ATOM     29  C   UNL     1       4.333   3.150  19.385  0.00  0.00    +0.000 C 
BRANCH  29  30
ATOM     30  O   UNL     1       3.564   2.533  18.332  0.00  0.00    +0.000 OA
BRANCH  30  32
ATOM     31  C   UNL     1       1.518   3.487  17.692  0.00  0.00    +0.000 C 
ATOM     32  C   UNL     1       2.223   2.474  18.538  0.00  0.00    +0.000 C 
ATOM     33  O   UNL     1       1.668   1.724  19.333  0.00  0.00    +0.000 OA
ENDBRANCH  30  32
ENDBRANCH  29  30
ENDBRANCH  28  29
ENDBRANCH  23  28
ENDBRANCH  19  25
ENDBRANCH   1  21
TORSDOF 9
ENDMDL
MODEL 9
REMARK VINA RESULT:      -7.6      3.755      6.406
REMARK  Name = 
REMARK  10 active torsions:
REMARK  status: ('A' for Active; 'I' for Inactive)
REMARK    1  A    between atoms: C_1  and  C_2
REMARK    2  A    between atoms: C_2  and  O_4
REMARK    3  A    between atoms: O_4  and  C_5
REMARK    4  A    between atoms: C_5  and  C_6
REMARK    5  A    between atoms: C_6  and  N_7
REMARK    6  A    between atoms: C_9  and  C_10
REMARK    7  A    between atoms: N_12  and  C_13
REMARK    8  A    between atoms: C_17  and  C_18
REMARK    9  A    between atoms: N_20  and  C_21
REMARK   10  A    between atoms: C_21  and  C_22
REMARK                            x       y       z     vdW  Elec       q    Type
REMARK                         _______ _______ _______ _____ _____    ______ ____
ROOT
ATOM      1  C   UNL     1       0.323  10.296  18.991  0.00  0.00    +0.000 A 
ATOM      2  C   UNL     1       0.643  11.253  19.958  0.00  0.00    +0.000 A 
ATOM      3  C   UNL     1      -0.255  12.261  20.298  0.00  0.00    +0.000 A 
ATOM      4  C   UNL     1      -1.496  12.323  19.674  0.00  0.00    +0.000 A 
ATOM      5  C   UNL     1      -1.846  11.387  18.690  0.00  0.00    +0.000 A 
ATOM      6  C   UNL     1      -0.919  10.385  18.339  0.00  0.00    +0.000 A 
ENDROOT
BRANCH   5   7
ATOM      7  C   UNL     1      -3.161  11.435  18.080  0.00  0.00    +0.000 A 
ATOM      8  C   UNL     1      -4.364  11.588  18.737  0.00  0.00    +0.000 A 
ATOM      9  N   UNL     1      -5.296  11.522  17.743  0.00  0.00    +0.000 N 
ATOM     10  N   UNL     1      -4.713  11.378  16.538  0.00  0.00    +0.000 NA
ATOM     11  N   UNL     1      -3.400  11.316  16.734  0.00  0.00    +0.000 NA
BRANCH   9  12
ATOM     12  C   UNL     1      -6.730  11.728  17.858  0.00  0.00    +0.000 C 
BRANCH  12  13
ATOM     13  C   UNL     1      -7.165  12.075  19.261  0.00  0.00    +0.000 A 
ATOM     14  C   UNL     1      -7.467  11.062  20.187  0.00  0.00    +0.000 A 
ATOM     15  C   UNL     1      -7.808  11.381  21.502  0.00  0.00    +0.000 A 
ATOM     16  C   UNL     1      -7.846  12.710  21.914  0.00  0.00    +0.000 A 
ATOM     17  C   UNL     1      -7.552  13.725  21.007  0.00  0.00    +0.000 A 
ATOM     18  C   UNL     1      -7.213  13.410  19.689  0.00  0.00    +0.000 A 
ENDBRANCH  12  13
ENDBRANCH   9  12
ENDBRANCH   5   7
BRANCH   1  21
ATOM     19  C   UNL     1       1.682   8.272  19.510  0.00  0.00    +0.000 C 
ATOM     20  O   UNL     1       1.379   8.152  20.693  0.00  0.00    +0.000 OA
ATOM     21  N   UNL     1       1.202   9.246  18.644  0.00  0.00    +0.000 N 
ATOM     22  H   UNL     1       1.435   9.120  17.664  0.00  0.00    +0.000 HD
BRANCH  19  25
ATOM     23  N   UNL     1       3.709   5.531  18.409  0.00  0.00    +0.000 N 
ATOM     24  C   UNL     1       2.818   6.019  19.309  0.00  0.00    +0.000 A 
ATOM     25  C   UNL     1       2.587   7.313  18.889  0.00  0.00    +0.000 A 
ATOM     26  N   UNL     1       3.349   7.560  17.772  0.00  0.00    +0.000 NA
ATOM     27  N   UNL     1       4.038   6.458  17.492  0.00  0.00    +0.000 NA
BRANCH  23  28
ATOM     28  C   UNL     1       4.292   4.204  18.369  0.00  0.00    +0.000 C 
BRANCH  28  29
ATOM     29  C   UNL     1       3.238   3.130  18.122  0.00  0.00    +0.000 C 
BRANCH  29  30
ATOM     30  O   UNL     1       2.841   2.469  19.341  0.00  0.00    +0.000 OA
BRANCH  30  32
ATOM     31  C   UNL     1       1.345   2.784  21.121  0.00  0.00    +0.000 C 
ATOM     32  C   UNL     1       1.522   2.549  19.654  0.00  0.00    +0.000 C 
ATOM     33  O   UNL     1       0.603   2.409  18.856  0.00  0.00    +0.000 OA
ENDBRANCH  30  32
ENDBRANCH  29  30
ENDBRANCH  28  29
ENDBRANCH  23  28
ENDBRANCH  19  25
ENDBRANCH   1  21
TORSDOF 9
ENDMDL
