MODEL 1
REMARK VINA RESULT:      -8.9      0.000      0.000
REMARK  Name = 
REMARK  4 active torsions:
REMARK  status: ('A' for Active; 'I' for Inactive)
REMARK    1  A    between atoms: C_2  and  C_21
REMARK    2  A    between atoms: N_3  and  C_4
REMARK    3  A    between atoms: C_9  and  C_10
REMARK    4  A    between atoms: C_14  and  N_15
REMARK                            x       y       z     vdW  Elec       q    Type
REMARK                         _______ _______ _______ _____ _____    ______ ____
ROOT
ATOM      1  C   UNL     1       3.403   3.170  19.947  0.00  0.00    +0.000 C 
ATOM      2  C   UNL     1       2.126   2.549  20.476  0.00  0.00    +0.000 C 
ATOM      3  C   UNL     1       1.073   2.395  19.360  0.00  0.00    +0.000 C 
ATOM      4  C   UNL     1       0.892   3.567  18.358  0.00  0.00    +0.000 C 
ATOM      5  O   UNL     1       1.963   4.244  17.610  0.00  0.00    +0.000 OA
ATOM      6  C   UNL     1       3.088   3.596  16.963  0.00  0.00    +0.000 C 
ATOM      7  O   UNL     1       3.205   2.282  17.475  0.00  0.00    +0.000 OA
ATOM      8  C   UNL     1       3.811   2.170  18.775  0.00  0.00    +0.000 C 
ENDROOT
BRANCH   6   9
ATOM      9  C   UNL     1       4.504   4.331  17.073  0.00  0.00    +0.000 A 
ATOM     10  C   UNL     1       5.331   4.316  18.211  0.00  0.00    +0.000 A 
ATOM     11  C   UNL     1       6.737   4.439  18.089  0.00  0.00    +0.000 A 
ATOM     12  C   UNL     1       7.334   4.618  16.843  0.00  0.00    +0.000 A 
ATOM     13  C   UNL     1       6.509   4.820  15.741  0.00  0.00    +0.000 A 
ATOM     14  C   UNL     1       5.105   4.803  15.881  0.00  0.00    +0.000 A 
BRANCH  13  15
ATOM     15  N   UNL     1       7.096   4.854  14.389  0.00  0.00    +0.000 N 
ATOM     16  O   UNL     1       6.587   4.137  13.515  0.00  0.00    +0.000 OA
ATOM     17  O   UNL     1       8.036   5.638  14.191  0.00  0.00    +0.000 OA
ENDBRANCH  13  15
ENDBRANCH   6   9
BRANCH   1  20
ATOM     18  O   UNL     1       2.369   5.595  21.586  0.00  0.00    +0.000 OA
ATOM     19  C   UNL     1       2.584   5.655  20.372  0.00  0.00    +0.000 C 
ATOM     20  N   UNL     1       3.149   4.616  19.660  0.00  0.00    +0.000 N 
ATOM     21  H   UNL     1       3.150   4.850  18.682  0.00  0.00    +0.000 HD
BRANCH  19  22
ATOM     22  C   UNL     1       2.251   6.936  19.584  0.00  0.00    +0.000 A 
ATOM     23  C   UNL     1       1.516   7.942  20.225  0.00  0.00    +0.000 A 
ATOM     24  C   UNL     1       1.212   9.163  19.582  0.00  0.00    +0.000 A 
ATOM     25  C   UNL     1       1.627   9.411  18.281  0.00  0.00    +0.000 A 
ATOM     26  C   UNL     1       2.348   8.417  17.614  0.00  0.00    +0.000 A 
ATOM     27  C   UNL     1       2.647   7.205  18.260  0.00  0.00    +0.000 A 
ENDBRANCH  19  22
ENDBRANCH   1  20
TORSDOF 4
ENDMDL
MODEL 2
REMARK VINA RESULT:      -8.6      2.395      6.101
REMARK  Name = 
REMARK  4 active torsions:
REMARK  status: ('A' for Active; 'I' for Inactive)
REMARK    1  A    between atoms: C_2  and  C_21
REMARK    2  A    between atoms: N_3  and  C_4
REMARK    3  A    between atoms: C_9  and  C_10
REMARK    4  A    between atoms: C_14  and  N_15
REMARK                            x       y       z     vdW  Elec       q    Type
REMARK                         _______ _______ _______ _____ _____    ______ ____
ROOT
ATOM      1  C   UNL     1       2.359   4.382  17.461  0.00  0.00    +0.000 C 
ATOM      2  C   UNL     1       2.588   2.884  17.427  0.00  0.00    +0.000 C 
ATOM      3  C   UNL     1       3.012   2.350  18.809  0.00  0.00    +0.000 C 
ATOM      4  C   UNL     1       4.041   3.175  19.628  0.00  0.00    +0.000 C 
ATOM      5  O   UNL     1       3.966   4.614  19.921  0.00  0.00    +0.000 OA
ATOM      6  C   UNL     1       2.771   5.342  20.306  0.00  0.00    +0.000 C 
ATOM      7  O   UNL     1       1.642   4.550  19.990  0.00  0.00    +0.000 OA
ATOM      8  C   UNL     1       1.258   4.533  18.604  0.00  0.00    +0.000 C 
ENDROOT
BRANCH   6   9
ATOM      9  C   UNL     1       2.581   6.801  19.679  0.00  0.00    +0.000 A 
ATOM     10  C   UNL     1       2.843   7.140  18.339  0.00  0.00    +0.000 A 
ATOM     11  C   UNL     1       2.140   8.194  17.705  0.00  0.00    +0.000 A 
ATOM     12  C   UNL     1       1.199   8.948  18.404  0.00  0.00    +0.000 A 
ATOM     13  C   UNL     1       1.074   8.738  19.775  0.00  0.00    +0.000 A 
ATOM     14  C   UNL     1       1.854   7.758  20.426  0.00  0.00    +0.000 A 
BRANCH  13  15
ATOM     15  N   UNL     1      -0.015   9.400  20.515  0.00  0.00    +0.000 N 
ATOM     16  O   UNL     1      -0.494  10.440  20.040  0.00  0.00    +0.000 OA
ATOM     17  O   UNL     1      -0.424   8.850  21.548  0.00  0.00    +0.000 OA
ENDBRANCH  13  15
ENDBRANCH   6   9
BRANCH   1  20
ATOM     18  O   UNL     1       4.930   4.537  15.729  0.00  0.00    +0.000 OA
ATOM     19  C   UNL     1       4.855   5.034  16.856  0.00  0.00    +0.000 C 
ATOM     20  N   UNL     1       3.682   5.067  17.583  0.00  0.00    +0.000 N 
ATOM     21  H   UNL     1       3.874   5.436  18.499  0.00  0.00    +0.000 HD
BRANCH  19  22
ATOM     22  C   UNL     1       6.092   5.685  17.503  0.00  0.00    +0.000 A 
ATOM     23  C   UNL     1       6.456   6.976  17.097  0.00  0.00    +0.000 A 
ATOM     24  C   UNL     1       7.551   7.656  17.677  0.00  0.00    +0.000 A 
ATOM     25  C   UNL     1       8.316   7.065  18.674  0.00  0.00    +0.000 A 
ATOM     26  C   UNL     1       7.983   5.772  19.085  0.00  0.00    +0.000 A 
ATOM     27  C   UNL     1       6.892   5.101  18.503  0.00  0.00    +0.000 A 
ENDBRANCH  19  22
ENDBRANCH   1  20
TORSDOF 4
ENDMDL
MODEL 3
REMARK VINA RESULT:      -8.4      1.589      1.891
REMARK  Name = 
REMARK  4 active torsions:
REMARK  status: ('A' for Active; 'I' for Inactive)
REMARK    1  A    between atoms: C_2  and  C_21
REMARK    2  A    between atoms: N_3  and  C_4
REMARK    3  A    between atoms: C_9  and  C_10
REMARK    4  A    between atoms: C_14  and  N_15
REMARK                            x       y       z     vdW  Elec       q    Type
REMARK                         _______ _______ _______ _____ _____    ______ ____
ROOT
ATOM      1  C   UNL     1       2.613   3.806  20.295  0.00  0.00    +0.000 C 
ATOM      2  C   UNL     1       1.251   3.166  20.121  0.00  0.00    +0.000 C 
ATOM      3  C   UNL     1       0.913   2.962  18.630  0.00  0.00    +0.000 C 
ATOM      4  C   UNL     1       1.255   4.108  17.640  0.00  0.00    +0.000 C 
ATOM      5  O   UNL     1       2.551   4.795  17.519  0.00  0.00    +0.000 OA
ATOM      6  C   UNL     1       3.856   4.160  17.554  0.00  0.00    +0.000 C 
ATOM      7  O   UNL     1       3.709   2.861  18.095  0.00  0.00    +0.000 OA
ATOM      8  C   UNL     1       3.570   2.791  19.524  0.00  0.00    +0.000 C 
ENDROOT
BRANCH   6   9
ATOM      9  C   UNL     1       5.012   4.931  18.345  0.00  0.00    +0.000 A 
ATOM     10  C   UNL     1       5.721   4.408  19.441  0.00  0.00    +0.000 A 
ATOM     11  C   UNL     1       7.049   4.823  19.712  0.00  0.00    +0.000 A 
ATOM     12  C   UNL     1       7.672   5.788  18.923  0.00  0.00    +0.000 A 
ATOM     13  C   UNL     1       6.910   6.440  17.957  0.00  0.00    +0.000 A 
ATOM     14  C   UNL     1       5.555   6.100  17.760  0.00  0.00    +0.000 A 
BRANCH  13  15
ATOM     15  N   UNL     1       7.571   7.348  17.002  0.00  0.00    +0.000 N 
ATOM     16  O   UNL     1       7.747   8.526  17.346  0.00  0.00    +0.000 OA
ATOM     17  O   UNL     1       7.958   6.868  15.927  0.00  0.00    +0.000 OA
ENDBRANCH  13  15
ENDBRANCH   6   9
BRANCH   1  20
ATOM     18  O   UNL     1       1.676   6.445  21.635  0.00  0.00    +0.000 OA
ATOM     19  C   UNL     1       2.002   6.381  20.447  0.00  0.00    +0.000 C 
ATOM     20  N   UNL     1       2.526   5.239  19.875  0.00  0.00    +0.000 N 
ATOM     21  H   UNL     1       2.636   5.387  18.886  0.00  0.00    +0.000 HD
BRANCH  19  22
ATOM     22  C   UNL     1       1.866   7.614  19.534  0.00  0.00    +0.000 A 
ATOM     23  C   UNL     1       1.155   8.723  20.013  0.00  0.00    +0.000 A 
ATOM     24  C   UNL     1       1.026   9.907  19.251  0.00  0.00    +0.000 A 
ATOM     25  C   UNL     1       1.596  10.014  17.990  0.00  0.00    +0.000 A 
ATOM     26  C   UNL     1       2.296   8.916  17.484  0.00  0.00    +0.000 A 
ATOM     27  C   UNL     1       2.420   7.741  18.247  0.00  0.00    +0.000 A 
ENDBRANCH  19  22
ENDBRANCH   1  20
TORSDOF 4
ENDMDL
MODEL 4
REMARK VINA RESULT:      -8.3      2.432      6.135
REMARK  Name = 
REMARK  4 active torsions:
REMARK  status: ('A' for Active; 'I' for Inactive)
REMARK    1  A    between atoms: C_2  and  C_21
REMARK    2  A    between atoms: N_3  and  C_4
REMARK    3  A    between atoms: C_9  and  C_10
REMARK    4  A    between atoms: C_14  and  N_15
REMARK                            x       y       z     vdW  Elec       q    Type
REMARK                         _______ _______ _______ _____ _____    ______ ____
ROOT
ATOM      1  C   UNL     1       2.328   4.483  17.471  0.00  0.00    +0.000 C 
ATOM      2  C   UNL     1       2.590   2.991  17.435  0.00  0.00    +0.000 C 
ATOM      3  C   UNL     1       3.039   2.466  18.813  0.00  0.00    +0.000 C 
ATOM      4  C   UNL     1       4.059   3.314  19.621  0.00  0.00    +0.000 C 
ATOM      5  O   UNL     1       3.956   4.752  19.913  0.00  0.00    +0.000 OA
ATOM      6  C   UNL     1       2.749   5.454  20.310  0.00  0.00    +0.000 C 
ATOM      7  O   UNL     1       1.634   4.638  20.007  0.00  0.00    +0.000 OA
ATOM      8  C   UNL     1       1.236   4.612  18.625  0.00  0.00    +0.000 C 
ENDROOT
BRANCH   6   9
ATOM      9  C   UNL     1       2.521   6.908  19.685  0.00  0.00    +0.000 A 
ATOM     10  C   UNL     1       2.753   7.249  18.340  0.00  0.00    +0.000 A 
ATOM     11  C   UNL     1       2.019   8.289  17.717  0.00  0.00    +0.000 A 
ATOM     12  C   UNL     1       1.078   9.027  18.432  0.00  0.00    +0.000 A 
ATOM     13  C   UNL     1       0.982   8.818  19.805  0.00  0.00    +0.000 A 
ATOM     14  C   UNL     1       1.791   7.853  20.443  0.00  0.00    +0.000 A 
BRANCH  13  15
ATOM     15  N   UNL     1      -0.105   9.462  20.565  0.00  0.00    +0.000 N 
ATOM     16  O   UNL     1      -0.482   8.920  21.614  0.00  0.00    +0.000 OA
ATOM     17  O   UNL     1      -0.547  10.537  20.135  0.00  0.00    +0.000 OA
ENDBRANCH  13  15
ENDBRANCH   6   9
BRANCH   1  20
ATOM     18  O   UNL     1       4.928   4.589  15.778  0.00  0.00    +0.000 OA
ATOM     19  C   UNL     1       4.824   5.145  16.875  0.00  0.00    +0.000 C 
ATOM     20  N   UNL     1       3.638   5.196  17.578  0.00  0.00    +0.000 N 
ATOM     21  H   UNL     1       3.807   5.618  18.476  0.00  0.00    +0.000 HD
BRANCH  19  22
ATOM     22  C   UNL     1       6.038   5.851  17.507  0.00  0.00    +0.000 A 
ATOM     23  C   UNL     1       6.766   5.173  18.494  0.00  0.00    +0.000 A 
ATOM     24  C   UNL     1       7.917   5.738  19.088  0.00  0.00    +0.000 A 
ATOM     25  C   UNL     1       8.370   6.998  18.719  0.00  0.00    +0.000 A 
ATOM     26  C   UNL     1       7.652   7.701  17.748  0.00  0.00    +0.000 A 
ATOM     27  C   UNL     1       6.507   7.133  17.162  0.00  0.00    +0.000 A 
ENDBRANCH  19  22
ENDBRANCH   1  20
TORSDOF 4
ENDMDL
MODEL 5
REMARK VINA RESULT:      -8.2      9.506     12.298
REMARK  Name = 
REMARK  4 active torsions:
REMARK  status: ('A' for Active; 'I' for Inactive)
REMARK    1  A    between atoms: C_2  and  C_21
REMARK    2  A    between atoms: N_3  and  C_4
REMARK    3  A    between atoms: C_9  and  C_10
REMARK    4  A    between atoms: C_14  and  N_15
REMARK                            x       y       z     vdW  Elec       q    Type
REMARK                         _______ _______ _______ _____ _____    ______ ____
ROOT
ATOM      1  C   UNL     1      -4.230  12.814  23.777  0.00  0.00    +0.000 C 
ATOM      2  C   UNL     1      -3.605  13.863  24.673  0.00  0.00    +0.000 C 
ATOM      3  C   UNL     1      -3.845  15.284  24.126  0.00  0.00    +0.000 C 
ATOM      4  C   UNL     1      -3.688  15.516  22.599  0.00  0.00    +0.000 C 
ATOM      5  O   UNL     1      -4.310  14.720  21.530  0.00  0.00    +0.000 OA
ATOM      6  C   UNL     1      -5.676  14.230  21.521  0.00  0.00    +0.000 C 
ATOM      7  O   UNL     1      -6.188  14.304  22.837  0.00  0.00    +0.000 OA
ATOM      8  C   UNL     1      -5.759  13.266  23.735  0.00  0.00    +0.000 C 
ENDROOT
BRANCH   6   9
ATOM      9  C   UNL     1      -5.910  12.755  20.948  0.00  0.00    +0.000 A 
ATOM     10  C   UNL     1      -7.030  11.952  21.229  0.00  0.00    +0.000 A 
ATOM     11  C   UNL     1      -7.479  10.982  20.300  0.00  0.00    +0.000 A 
ATOM     12  C   UNL     1      -6.799  10.769  19.102  0.00  0.00    +0.000 A 
ATOM     13  C   UNL     1      -5.588  11.427  18.908  0.00  0.00    +0.000 A 
ATOM     14  C   UNL     1      -5.088  12.315  19.883  0.00  0.00    +0.000 A 
BRANCH  13  15
ATOM     15  N   UNL     1      -4.922  11.351  17.595  0.00  0.00    +0.000 N 
ATOM     16  O   UNL     1      -4.099  10.442  17.411  0.00  0.00    +0.000 OA
ATOM     17  O   UNL     1      -5.261  12.173  16.730  0.00  0.00    +0.000 OA
ENDBRANCH  13  15
ENDBRANCH   6   9
BRANCH   1  20
ATOM     18  O   UNL     1      -1.588  11.414  22.942  0.00  0.00    +0.000 OA
ATOM     19  C   UNL     1      -2.199  12.184  22.196  0.00  0.00    +0.000 C 
ATOM     20  N   UNL     1      -3.430  12.720  22.517  0.00  0.00    +0.000 N 
ATOM     21  H   UNL     1      -3.695  13.382  21.808  0.00  0.00    +0.000 HD
BRANCH  19  22
ATOM     22  C   UNL     1      -1.613  12.566  20.823  0.00  0.00    +0.000 A 
ATOM     23  C   UNL     1      -1.044  13.837  20.670  0.00  0.00    +0.000 A 
ATOM     24  C   UNL     1      -0.448  14.242  19.454  0.00  0.00    +0.000 A 
ATOM     25  C   UNL     1      -0.408  13.392  18.357  0.00  0.00    +0.000 A 
ATOM     26  C   UNL     1      -0.982  12.125  18.479  0.00  0.00    +0.000 A 
ATOM     27  C   UNL     1      -1.575  11.729  19.692  0.00  0.00    +0.000 A 
ENDBRANCH  19  22
ENDBRANCH   1  20
TORSDOF 4
ENDMDL
MODEL 6
REMARK VINA RESULT:      -8.1      1.625      2.096
REMARK  Name = 
REMARK  4 active torsions:
REMARK  status: ('A' for Active; 'I' for Inactive)
REMARK    1  A    between atoms: C_2  and  C_21
REMARK    2  A    between atoms: N_3  and  C_4
REMARK    3  A    between atoms: C_9  and  C_10
REMARK    4  A    between atoms: C_14  and  N_15
REMARK                            x       y       z     vdW  Elec       q    Type
REMARK                         _______ _______ _______ _____ _____    ______ ____
ROOT
ATOM      1  C   UNL     1       2.730   3.742  20.227  0.00  0.00    +0.000 C 
ATOM      2  C   UNL     1       1.377   3.090  20.026  0.00  0.00    +0.000 C 
ATOM      3  C   UNL     1       1.034   2.957  18.529  0.00  0.00    +0.000 C 
ATOM      4  C   UNL     1       1.354   4.157  17.597  0.00  0.00    +0.000 C 
ATOM      5  O   UNL     1       2.637   4.869  17.505  0.00  0.00    +0.000 OA
ATOM      6  C   UNL     1       3.952   4.254  17.501  0.00  0.00    +0.000 C 
ATOM      7  O   UNL     1       3.828   2.927  17.976  0.00  0.00    +0.000 OA
ATOM      8  C   UNL     1       3.699   2.782  19.400  0.00  0.00    +0.000 C 
ENDROOT
BRANCH   6   9
ATOM      9  C   UNL     1       5.101   5.002  18.325  0.00  0.00    +0.000 A 
ATOM     10  C   UNL     1       5.814   4.440  19.400  0.00  0.00    +0.000 A 
ATOM     11  C   UNL     1       7.137   4.854  19.689  0.00  0.00    +0.000 A 
ATOM     12  C   UNL     1       7.752   5.856  18.942  0.00  0.00    +0.000 A 
ATOM     13  C   UNL     1       6.986   6.541  18.003  0.00  0.00    +0.000 A 
ATOM     14  C   UNL     1       5.634   6.198  17.789  0.00  0.00    +0.000 A 
BRANCH  13  15
ATOM     15  N   UNL     1       7.640   7.494  17.087  0.00  0.00    +0.000 N 
ATOM     16  O   UNL     1       8.086   7.059  16.016  0.00  0.00    +0.000 OA
ATOM     17  O   UNL     1       7.661   8.688  17.420  0.00  0.00    +0.000 OA
ENDBRANCH  13  15
ENDBRANCH   6   9
BRANCH   1  20
ATOM     18  O   UNL     1       1.538   6.254  21.607  0.00  0.00    +0.000 OA
ATOM     19  C   UNL     1       1.986   6.275  20.457  0.00  0.00    +0.000 C 
ATOM     20  N   UNL     1       2.619   5.192  19.881  0.00  0.00    +0.000 N 
ATOM     21  H   UNL     1       2.822   5.405  18.918  0.00  0.00    +0.000 HD
BRANCH  19  22
ATOM     22  C   UNL     1       1.886   7.555  19.606  0.00  0.00    +0.000 A 
ATOM     23  C   UNL     1       2.515   7.574  18.354  0.00  0.00    +0.000 A 
ATOM     24  C   UNL     1       2.430   8.696  17.498  0.00  0.00    +0.000 A 
ATOM     25  C   UNL     1       1.719   9.829  17.869  0.00  0.00    +0.000 A 
ATOM     26  C   UNL     1       1.095   9.840  19.119  0.00  0.00    +0.000 A 
ATOM     27  C   UNL     1       1.185   8.721  19.966  0.00  0.00    +0.000 A 
ENDBRANCH  19  22
ENDBRANCH   1  20
TORSDOF 4
ENDMDL
MODEL 7
REMARK VINA RESULT:      -8.1      9.253     11.383
REMARK  Name = 
REMARK  4 active torsions:
REMARK  status: ('A' for Active; 'I' for Inactive)
REMARK    1  A    between atoms: C_2  and  C_21
REMARK    2  A    between atoms: N_3  and  C_4
REMARK    3  A    between atoms: C_9  and  C_10
REMARK    4  A    between atoms: C_14  and  N_15
REMARK                            x       y       z     vdW  Elec       q    Type
REMARK                         _______ _______ _______ _____ _____    ______ ____
ROOT
ATOM      1  C   UNL     1       9.796  11.852  18.616  0.00  0.00    +0.000 C 
ATOM      2  C   UNL     1      10.833  12.212  17.570  0.00  0.00    +0.000 C 
ATOM      3  C   UNL     1      11.719  13.384  18.039  0.00  0.00    +0.000 C 
ATOM      4  C   UNL     1      11.033  14.579  18.753  0.00  0.00    +0.000 C 
ATOM      5  O   UNL     1      10.098  14.495  19.886  0.00  0.00    +0.000 OA
ATOM      6  C   UNL     1      10.234  13.622  21.037  0.00  0.00    +0.000 C 
ATOM      7  O   UNL     1      11.176  12.613  20.727  0.00  0.00    +0.000 OA
ATOM      8  C   UNL     1      10.695  11.543  19.896  0.00  0.00    +0.000 C 
ENDROOT
BRANCH   6   9
ATOM      9  C   UNL     1       8.896  12.940  21.587  0.00  0.00    +0.000 A 
ATOM     10  C   UNL     1       8.852  11.761  22.353  0.00  0.00    +0.000 A 
ATOM     11  C   UNL     1       7.802  11.533  23.276  0.00  0.00    +0.000 A 
ATOM     12  C   UNL     1       6.764  12.452  23.420  0.00  0.00    +0.000 A 
ATOM     13  C   UNL     1       6.707  13.524  22.534  0.00  0.00    +0.000 A 
ATOM     14  C   UNL     1       7.698  13.692  21.544  0.00  0.00    +0.000 A 
BRANCH  13  15
ATOM     15  N   UNL     1       5.720  14.597  22.754  0.00  0.00    +0.000 N 
ATOM     16  O   UNL     1       4.626  14.290  23.249  0.00  0.00    +0.000 OA
ATOM     17  O   UNL     1       6.062  15.756  22.477  0.00  0.00    +0.000 OA
ENDBRANCH  13  15
ENDBRANCH   6   9
BRANCH   1  20
ATOM     18  O   UNL     1       7.401  12.676  16.822  0.00  0.00    +0.000 OA
ATOM     19  C   UNL     1       7.771  13.348  17.789  0.00  0.00    +0.000 C 
ATOM     20  N   UNL     1       8.761  12.930  18.656  0.00  0.00    +0.000 N 
ATOM     21  H   UNL     1       8.957  13.668  19.311  0.00  0.00    +0.000 HD
BRANCH  19  22
ATOM     22  C   UNL     1       7.105  14.702  18.097  0.00  0.00    +0.000 A 
ATOM     23  C   UNL     1       5.720  14.731  18.308  0.00  0.00    +0.000 A 
ATOM     24  C   UNL     1       5.044  15.928  18.640  0.00  0.00    +0.000 A 
ATOM     25  C   UNL     1       5.731  17.129  18.764  0.00  0.00    +0.000 A 
ATOM     26  C   UNL     1       7.110  17.128  18.543  0.00  0.00    +0.000 A 
ATOM     27  C   UNL     1       7.776  15.934  18.213  0.00  0.00    +0.000 A 
ENDBRANCH  19  22
ENDBRANCH   1  20
TORSDOF 4
ENDMDL
MODEL 8
REMARK VINA RESULT:      -8.1      9.992     12.513
REMARK  Name = 
REMARK  4 active torsions:
REMARK  status: ('A' for Active; 'I' for Inactive)
REMARK    1  A    between atoms: C_2  and  C_21
REMARK    2  A    between atoms: N_3  and  C_4
REMARK    3  A    between atoms: C_9  and  C_10
REMARK    4  A    between atoms: C_14  and  N_15
REMARK                            x       y       z     vdW  Elec       q    Type
REMARK                         _______ _______ _______ _____ _____    ______ ____
ROOT
ATOM      1  C   UNL     1      -7.095  12.509  22.744  0.00  0.00    +0.000 C 
ATOM      2  C   UNL     1      -7.682  13.449  23.777  0.00  0.00    +0.000 C 
ATOM      3  C   UNL     1      -7.550  14.921  23.336  0.00  0.00    +0.000 C 
ATOM      4  C   UNL     1      -6.212  15.373  22.690  0.00  0.00    +0.000 C 
ATOM      5  O   UNL     1      -5.514  14.707  21.579  0.00  0.00    +0.000 OA
ATOM      6  C   UNL     1      -6.140  14.160  20.389  0.00  0.00    +0.000 C 
ATOM      7  O   UNL     1      -7.526  14.023  20.633  0.00  0.00    +0.000 OA
ATOM      8  C   UNL     1      -7.912  12.890  21.429  0.00  0.00    +0.000 C 
ENDROOT
BRANCH   6   9
ATOM      9  C   UNL     1      -5.562  12.771  19.845  0.00  0.00    +0.000 A 
ATOM     10  C   UNL     1      -6.304  11.821  19.120  0.00  0.00    +0.000 A 
ATOM     11  C   UNL     1      -5.671  10.959  18.192  0.00  0.00    +0.000 A 
ATOM     12  C   UNL     1      -4.291  11.001  18.002  0.00  0.00    +0.000 A 
ATOM     13  C   UNL     1      -3.535  11.806  18.850  0.00  0.00    +0.000 A 
ATOM     14  C   UNL     1      -4.159  12.586  19.847  0.00  0.00    +0.000 A 
BRANCH  13  15
ATOM     15  N   UNL     1      -2.099  11.998  18.580  0.00  0.00    +0.000 N 
ATOM     16  O   UNL     1      -1.579  11.320  17.683  0.00  0.00    +0.000 OA
ATOM     17  O   UNL     1      -1.503  12.866  19.235  0.00  0.00    +0.000 OA
ENDBRANCH  13  15
ENDBRANCH   6   9
BRANCH   1  20
ATOM     18  O   UNL     1      -4.879  11.933  24.841  0.00  0.00    +0.000 OA
ATOM     19  C   UNL     1      -4.646  12.476  23.757  0.00  0.00    +0.000 C 
ATOM     20  N   UNL     1      -5.605  12.632  22.776  0.00  0.00    +0.000 N 
ATOM     21  H   UNL     1      -5.218  13.173  22.022  0.00  0.00    +0.000 HD
BRANCH  19  22
ATOM     22  C   UNL     1      -3.230  12.987  23.431  0.00  0.00    +0.000 A 
ATOM     23  C   UNL     1      -2.918  14.320  23.727  0.00  0.00    +0.000 A 
ATOM     24  C   UNL     1      -1.627  14.848  23.498  0.00  0.00    +0.000 A 
ATOM     25  C   UNL     1      -0.615  14.063  22.962  0.00  0.00    +0.000 A 
ATOM     26  C   UNL     1      -0.906  12.734  22.643  0.00  0.00    +0.000 A 
ATOM     27  C   UNL     1      -2.193  12.216  22.874  0.00  0.00    +0.000 A 
ENDBRANCH  19  22
ENDBRANCH   1  20
TORSDOF 4
ENDMDL
MODEL 9
REMARK VINA RESULT:      -8.0      8.103     11.544
REMARK  Name = 
REMARK  4 active torsions:
REMARK  status: ('A' for Active; 'I' for Inactive)
REMARK    1  A    between atoms: C_2  and  C_21
REMARK    2  A    between atoms: N_3  and  C_4
REMARK    3  A    between atoms: C_9  and  C_10
REMARK    4  A    between atoms: C_14  and  N_15
REMARK                            x       y       z     vdW  Elec       q    Type
REMARK                         _______ _______ _______ _____ _____    ______ ____
ROOT
ATOM      1  C   UNL     1       0.732  12.552  20.879  0.00  0.00    +0.000 C 
ATOM      2  C   UNL     1       1.883  12.979  19.990  0.00  0.00    +0.000 C 
ATOM      3  C   UNL     1       1.569  14.302  19.263  0.00  0.00    +0.000 C 
ATOM      4  C   UNL     1       0.147  14.490  18.669  0.00  0.00    +0.000 C 
ATOM      5  O   UNL     1      -1.125  14.276  19.374  0.00  0.00    +0.000 OA
ATOM      6  C   UNL     1      -1.420  14.680  20.737  0.00  0.00    +0.000 C 
ATOM      7  O   UNL     1      -0.200  14.960  21.396  0.00  0.00    +0.000 OA
ATOM      8  C   UNL     1       0.550  13.815  21.835  0.00  0.00    +0.000 C 
ENDROOT
BRANCH   6   9
ATOM      9  C   UNL     1      -2.274  13.659  21.623  0.00  0.00    +0.000 A 
ATOM     10  C   UNL     1      -2.142  13.498  23.014  0.00  0.00    +0.000 A 
ATOM     11  C   UNL     1      -3.240  13.077  23.805  0.00  0.00    +0.000 A 
ATOM     12  C   UNL     1      -4.467  12.772  23.220  0.00  0.00    +0.000 A 
ATOM     13  C   UNL     1      -4.546  12.750  21.830  0.00  0.00    +0.000 A 
ATOM     14  C   UNL     1      -3.421  13.068  21.041  0.00  0.00    +0.000 A 
BRANCH  13  15
ATOM     15  N   UNL     1      -5.859  12.590  21.179  0.00  0.00    +0.000 N 
ATOM     16  O   UNL     1      -6.108  13.293  20.189  0.00  0.00    +0.000 OA
ATOM     17  O   UNL     1      -6.622  11.723  21.631  0.00  0.00    +0.000 OA
ENDBRANCH  13  15
ENDBRANCH   6   9
BRANCH   1  20
ATOM     18  O   UNL     1      -0.438   9.788  20.085  0.00  0.00    +0.000 OA
ATOM     19  C   UNL     1      -0.829  10.846  19.584  0.00  0.00    +0.000 C 
ATOM     20  N   UNL     1      -0.393  12.084  20.013  0.00  0.00    +0.000 N 
ATOM     21  H   UNL     1      -0.774  12.793  19.410  0.00  0.00    +0.000 HD
BRANCH  19  22
ATOM     22  C   UNL     1      -1.871  10.832  18.451  0.00  0.00    +0.000 A 
ATOM     23  C   UNL     1      -1.630  10.023  17.332  0.00  0.00    +0.000 A 
ATOM     24  C   UNL     1      -2.561   9.924  16.273  0.00  0.00    +0.000 A 
ATOM     25  C   UNL     1      -3.755  10.633  16.298  0.00  0.00    +0.000 A 
ATOM     26  C   UNL     1      -4.011  11.458  17.395  0.00  0.00    +0.000 A 
ATOM     27  C   UNL     1      -3.080  11.553  18.445  0.00  0.00    +0.000 A 
ENDBRANCH  19  22
ENDBRANCH   1  20
TORSDOF 4
ENDMDL
