MODEL 1
REMARK VINA RESULT:      -7.0      0.000      0.000
REMARK  Name = 
REMARK  10 active torsions:
REMARK  status: ('A' for Active; 'I' for Inactive)
REMARK    1  A    between atoms: C_1  and  C_2
REMARK    2  A    between atoms: C_2  and  O_3
REMARK    3  A    between atoms: O_3  and  C_4
REMARK    4  A    between atoms: C_9  and  N_10
REMARK    5  A    between atoms: N_10  and  C_11
REMARK    6  A    between atoms: N_10  and  S_21
REMARK    7  A    between atoms: C_11  and  C_12
REMARK    8  A    between atoms: N_14  and  C_15
REMARK    9  A    between atoms: S_21  and  C_24
REMARK   10  A    between atoms: C_27  and  C_28
REMARK                            x       y       z     vdW  Elec       q    Type
REMARK                         _______ _______ _______ _____ _____    ______ ____
ROOT
ATOM      1  N   UNL     1       3.918   5.312  19.150  0.00  0.00    +0.000 N 
ENDROOT
BRANCH   1   7
ATOM      2  C   UNL     1       2.094   3.540  19.051  0.00  0.00    +0.000 A 
ATOM      3  C   UNL     1       1.225   2.703  19.783  0.00  0.00    +0.000 A 
ATOM      4  C   UNL     1       1.068   2.844  21.159  0.00  0.00    +0.000 A 
ATOM      5  C   UNL     1       1.806   3.798  21.833  0.00  0.00    +0.000 A 
ATOM      6  C   UNL     1       2.744   4.568  21.139  0.00  0.00    +0.000 A 
ATOM      7  C   UNL     1       2.930   4.436  19.749  0.00  0.00    +0.000 A 
BRANCH   2   8
ATOM      8  O   UNL     1       2.134   3.489  17.671  0.00  0.00    +0.000 OA
BRANCH   8  10
ATOM      9  C   UNL     1       3.568   1.524  17.922  0.00  0.00    +0.000 C 
ATOM     10  C   UNL     1       2.424   2.171  17.162  0.00  0.00    +0.000 C 
ENDBRANCH   8  10
ENDBRANCH   2   8
ENDBRANCH   1   7
BRANCH   1  11
ATOM     11  S   UNL     1       5.522   4.729  19.073  0.00  0.00    +0.000 S 
ATOM     12  O   UNL     1       6.438   5.671  19.677  0.00  0.00    +0.000 OA
ATOM     13  O   UNL     1       5.512   3.344  19.491  0.00  0.00    +0.000 OA
BRANCH  11  14
ATOM     14  C   UNL     1       5.890   4.703  17.321  0.00  0.00    +0.000 A 
ATOM     15  C   UNL     1       7.216   4.677  16.884  0.00  0.00    +0.000 A 
ATOM     16  C   UNL     1       7.489   4.601  15.516  0.00  0.00    +0.000 A 
ATOM     17  C   UNL     1       6.448   4.540  14.581  0.00  0.00    +0.000 A 
ATOM     18  C   UNL     1       6.733   4.481  13.108  0.00  0.00    +0.000 C 
ATOM     19  C   UNL     1       5.122   4.517  15.033  0.00  0.00    +0.000 A 
ATOM     20  C   UNL     1       4.842   4.586  16.399  0.00  0.00    +0.000 A 
ENDBRANCH  11  14
ENDBRANCH   1  11
BRANCH   1  21
ATOM     21  C   UNL     1       3.744   6.777  19.182  0.00  0.00    +0.000 C 
BRANCH  21  22
ATOM     22  C   UNL     1       2.419   7.352  18.624  0.00  0.00    +0.000 C 
ATOM     23  O   UNL     1       1.866   6.963  17.608  0.00  0.00    +0.000 OA
ATOM     24  N   UNL     1       1.891   8.345  19.461  0.00  0.00    +0.000 N 
ATOM     25  H   UNL     1       2.230   8.325  20.415  0.00  0.00    +0.000 HD
BRANCH  24  26
ATOM     26  C   UNL     1       0.599   9.024  19.281  0.00  0.00    +0.000 C 
ATOM     27  C   UNL     1       0.059   9.505  20.646  0.00  0.00    +0.000 C 
ATOM     28  C   UNL     1       0.881  10.663  21.220  0.00  0.00    +0.000 C 
ATOM     29  C   UNL     1       0.944  11.839  20.251  0.00  0.00    +0.000 C 
ATOM     30  C   UNL     1       1.430  11.407  18.871  0.00  0.00    +0.000 C 
ATOM     31  C   UNL     1       0.633  10.224  18.317  0.00  0.00    +0.000 C 
ENDBRANCH  24  26
ENDBRANCH  21  22
ENDBRANCH   1  21
TORSDOF 8
ENDMDL
MODEL 2
REMARK VINA RESULT:      -6.9      4.932      8.402
REMARK  Name = 
REMARK  10 active torsions:
REMARK  status: ('A' for Active; 'I' for Inactive)
REMARK    1  A    between atoms: C_1  and  C_2
REMARK    2  A    between atoms: C_2  and  O_3
REMARK    3  A    between atoms: O_3  and  C_4
REMARK    4  A    between atoms: C_9  and  N_10
REMARK    5  A    between atoms: N_10  and  C_11
REMARK    6  A    between atoms: N_10  and  S_21
REMARK    7  A    between atoms: C_11  and  C_12
REMARK    8  A    between atoms: N_14  and  C_15
REMARK    9  A    between atoms: S_21  and  C_24
REMARK   10  A    between atoms: C_27  and  C_28
REMARK                            x       y       z     vdW  Elec       q    Type
REMARK                         _______ _______ _______ _____ _____    ______ ____
ROOT
ATOM      1  N   UNL     1      -0.410  11.886  19.413  0.00  0.00    +0.000 N 
ENDROOT
BRANCH   1   7
ATOM      2  C   UNL     1      -2.638  11.482  18.252  0.00  0.00    +0.000 A 
ATOM      3  C   UNL     1      -4.044  11.571  18.340  0.00  0.00    +0.000 A 
ATOM      4  C   UNL     1      -4.667  12.250  19.384  0.00  0.00    +0.000 A 
ATOM      5  C   UNL     1      -3.895  12.818  20.380  0.00  0.00    +0.000 A 
ATOM      6  C   UNL     1      -2.507  12.654  20.361  0.00  0.00    +0.000 A 
ATOM      7  C   UNL     1      -1.855  11.962  19.322  0.00  0.00    +0.000 A 
BRANCH   2   8
ATOM      8  O   UNL     1      -2.029  10.934  17.139  0.00  0.00    +0.000 OA
BRANCH   8  10
ATOM      9  C   UNL     1      -2.889   9.816  15.142  0.00  0.00    +0.000 C 
ATOM     10  C   UNL     1      -2.797  11.109  15.931  0.00  0.00    +0.000 C 
ENDBRANCH   8  10
ENDBRANCH   2   8
ENDBRANCH   1   7
BRANCH   1  11
ATOM     11  S   UNL     1       0.236  10.933  20.676  0.00  0.00    +0.000 S 
ATOM     12  O   UNL     1       1.287  11.647  21.367  0.00  0.00    +0.000 OA
ATOM     13  O   UNL     1      -0.871  10.362  21.412  0.00  0.00    +0.000 OA
BRANCH  11  14
ATOM     14  C   UNL     1       1.015   9.561  19.830  0.00  0.00    +0.000 A 
ATOM     15  C   UNL     1       1.301   9.649  18.467  0.00  0.00    +0.000 A 
ATOM     16  C   UNL     1       1.959   8.593  17.831  0.00  0.00    +0.000 A 
ATOM     17  C   UNL     1       2.342   7.453  18.549  0.00  0.00    +0.000 A 
ATOM     18  C   UNL     1       3.029   6.304  17.869  0.00  0.00    +0.000 C 
ATOM     19  C   UNL     1       2.093   7.396  19.927  0.00  0.00    +0.000 A 
ATOM     20  C   UNL     1       1.443   8.451  20.570  0.00  0.00    +0.000 A 
ENDBRANCH  11  14
ENDBRANCH   1  11
BRANCH   1  21
ATOM     21  C   UNL     1       0.436  12.986  18.911  0.00  0.00    +0.000 C 
BRANCH  21  22
ATOM     22  C   UNL     1       0.359  14.343  19.654  0.00  0.00    +0.000 C 
ATOM     23  O   UNL     1       0.188  14.468  20.856  0.00  0.00    +0.000 OA
ATOM     24  N   UNL     1       0.570  15.422  18.785  0.00  0.00    +0.000 N 
ATOM     25  H   UNL     1       1.045  15.190  17.921  0.00  0.00    +0.000 HD
BRANCH  24  26
ATOM     26  C   UNL     1       0.665  16.836  19.178  0.00  0.00    +0.000 C 
ATOM     27  C   UNL     1       1.998  17.438  18.678  0.00  0.00    +0.000 C 
ATOM     28  C   UNL     1       2.030  17.590  17.155  0.00  0.00    +0.000 C 
ATOM     29  C   UNL     1       0.866  18.437  16.653  0.00  0.00    +0.000 C 
ATOM     30  C   UNL     1      -0.475  17.911  17.158  0.00  0.00    +0.000 C 
ATOM     31  C   UNL     1      -0.490  17.721  18.675  0.00  0.00    +0.000 C 
ENDBRANCH  24  26
ENDBRANCH  21  22
ENDBRANCH   1  21
TORSDOF 8
ENDMDL
MODEL 3
REMARK VINA RESULT:      -6.9      0.630      1.178
REMARK  Name = 
REMARK  10 active torsions:
REMARK  status: ('A' for Active; 'I' for Inactive)
REMARK    1  A    between atoms: C_1  and  C_2
REMARK    2  A    between atoms: C_2  and  O_3
REMARK    3  A    between atoms: O_3  and  C_4
REMARK    4  A    between atoms: C_9  and  N_10
REMARK    5  A    between atoms: N_10  and  C_11
REMARK    6  A    between atoms: N_10  and  S_21
REMARK    7  A    between atoms: C_11  and  C_12
REMARK    8  A    between atoms: N_14  and  C_15
REMARK    9  A    between atoms: S_21  and  C_24
REMARK   10  A    between atoms: C_27  and  C_28
REMARK                            x       y       z     vdW  Elec       q    Type
REMARK                         _______ _______ _______ _____ _____    ______ ____
ROOT
ATOM      1  N   UNL     1       3.902   5.379  19.250  0.00  0.00    +0.000 N 
ENDROOT
BRANCH   1   7
ATOM      2  C   UNL     1       2.045   3.660  18.985  0.00  0.00    +0.000 A 
ATOM      3  C   UNL     1       1.158   2.776  19.636  0.00  0.00    +0.000 A 
ATOM      4  C   UNL     1       0.998   2.792  21.019  0.00  0.00    +0.000 A 
ATOM      5  C   UNL     1       1.753   3.666  21.779  0.00  0.00    +0.000 A 
ATOM      6  C   UNL     1       2.708   4.478  21.159  0.00  0.00    +0.000 A 
ATOM      7  C   UNL     1       2.896   4.471  19.764  0.00  0.00    +0.000 A 
BRANCH   2   8
ATOM      8  O   UNL     1       2.088   3.735  17.606  0.00  0.00    +0.000 OA
BRANCH   8  10
ATOM      9  C   UNL     1       3.598   1.812  17.600  0.00  0.00    +0.000 C 
ATOM     10  C   UNL     1       2.379   2.469  16.979  0.00  0.00    +0.000 C 
ENDBRANCH   8  10
ENDBRANCH   2   8
ENDBRANCH   1   7
BRANCH   1  11
ATOM     11  S   UNL     1       5.505   4.792  19.171  0.00  0.00    +0.000 S 
ATOM     12  O   UNL     1       6.423   5.729  19.780  0.00  0.00    +0.000 OA
ATOM     13  O   UNL     1       5.491   3.405  19.583  0.00  0.00    +0.000 OA
BRANCH  11  14
ATOM     14  C   UNL     1       5.875   4.773  17.420  0.00  0.00    +0.000 A 
ATOM     15  C   UNL     1       4.897   5.137  16.493  0.00  0.00    +0.000 A 
ATOM     16  C   UNL     1       5.215   5.171  15.132  0.00  0.00    +0.000 A 
ATOM     17  C   UNL     1       6.506   4.854  14.692  0.00  0.00    +0.000 A 
ATOM     18  C   UNL     1       6.850   4.866  13.230  0.00  0.00    +0.000 C 
ATOM     19  C   UNL     1       7.493   4.537  15.635  0.00  0.00    +0.000 A 
ATOM     20  C   UNL     1       7.183   4.508  16.996  0.00  0.00    +0.000 A 
ENDBRANCH  11  14
ENDBRANCH   1  11
BRANCH   1  21
ATOM     21  C   UNL     1       3.735   6.839  19.377  0.00  0.00    +0.000 C 
BRANCH  21  22
ATOM     22  C   UNL     1       2.356   7.437  19.002  0.00  0.00    +0.000 C 
ATOM     23  O   UNL     1       1.859   7.393  17.889  0.00  0.00    +0.000 OA
ATOM     24  N   UNL     1       1.710   7.989  20.117  0.00  0.00    +0.000 N 
ATOM     25  H   UNL     1       2.042   7.654  21.014  0.00  0.00    +0.000 HD
BRANCH  24  26
ATOM     26  C   UNL     1       0.349   8.546  20.134  0.00  0.00    +0.000 C 
ATOM     27  C   UNL     1      -0.244   8.454  21.558  0.00  0.00    +0.000 C 
ATOM     28  C   UNL     1       0.441   9.415  22.534  0.00  0.00    +0.000 C 
ATOM     29  C   UNL     1       0.370  10.857  22.042  0.00  0.00    +0.000 C 
ATOM     30  C   UNL     1       0.903  10.994  20.619  0.00  0.00    +0.000 C 
ATOM     31  C   UNL     1       0.247  10.005  19.654  0.00  0.00    +0.000 C 
ENDBRANCH  24  26
ENDBRANCH  21  22
ENDBRANCH   1  21
TORSDOF 8
ENDMDL
MODEL 4
REMARK VINA RESULT:      -6.8      4.644      8.518
REMARK  Name = 
REMARK  10 active torsions:
REMARK  status: ('A' for Active; 'I' for Inactive)
REMARK    1  A    between atoms: C_1  and  C_2
REMARK    2  A    between atoms: C_2  and  O_3
REMARK    3  A    between atoms: O_3  and  C_4
REMARK    4  A    between atoms: C_9  and  N_10
REMARK    5  A    between atoms: N_10  and  C_11
REMARK    6  A    between atoms: N_10  and  S_21
REMARK    7  A    between atoms: C_11  and  C_12
REMARK    8  A    between atoms: N_14  and  C_15
REMARK    9  A    between atoms: S_21  and  C_24
REMARK   10  A    between atoms: C_27  and  C_28
REMARK                            x       y       z     vdW  Elec       q    Type
REMARK                         _______ _______ _______ _____ _____    ______ ____
ROOT
ATOM      1  N   UNL     1      -0.682  11.102  19.823  0.00  0.00    +0.000 N 
ENDROOT
BRANCH   1   7
ATOM      2  C   UNL     1      -0.960  13.625  20.012  0.00  0.00    +0.000 A 
ATOM      3  C   UNL     1      -0.391  14.893  19.767  0.00  0.00    +0.000 A 
ATOM      4  C   UNL     1       0.759  15.038  18.996  0.00  0.00    +0.000 A 
ATOM      5  C   UNL     1       1.383  13.914  18.488  0.00  0.00    +0.000 A 
ATOM      6  C   UNL     1       0.889  12.644  18.804  0.00  0.00    +0.000 A 
ATOM      7  C   UNL     1      -0.265  12.471  19.592  0.00  0.00    +0.000 A 
BRANCH   2   8
ATOM      8  O   UNL     1      -2.178  13.504  20.653  0.00  0.00    +0.000 OA
BRANCH   8  10
ATOM      9  C   UNL     1      -2.793  12.308  22.695  0.00  0.00    +0.000 C 
ATOM     10  C   UNL     1      -2.060  13.491  22.091  0.00  0.00    +0.000 C 
ENDBRANCH   8  10
ENDBRANCH   2   8
ENDBRANCH   1   7
BRANCH   1  11
ATOM     11  S   UNL     1       0.244  10.189  20.931  0.00  0.00    +0.000 S 
ATOM     12  O   UNL     1       1.207  11.030  21.607  0.00  0.00    +0.000 OA
ATOM     13  O   UNL     1      -0.664   9.356  21.689  0.00  0.00    +0.000 OA
BRANCH  11  14
ATOM     14  C   UNL     1       1.178   9.067  19.894  0.00  0.00    +0.000 A 
ATOM     15  C   UNL     1       1.575   9.461  18.615  0.00  0.00    +0.000 A 
ATOM     16  C   UNL     1       2.351   8.597  17.838  0.00  0.00    +0.000 A 
ATOM     17  C   UNL     1       2.743   7.347  18.333  0.00  0.00    +0.000 A 
ATOM     18  C   UNL     1       3.557   6.404  17.495  0.00  0.00    +0.000 C 
ATOM     19  C   UNL     1       2.380   6.982  19.636  0.00  0.00    +0.000 A 
ATOM     20  C   UNL     1       1.611   7.843  20.420  0.00  0.00    +0.000 A 
ENDBRANCH  11  14
ENDBRANCH   1  11
BRANCH   1  21
ATOM     21  C   UNL     1      -1.405  10.348  18.781  0.00  0.00    +0.000 C 
BRANCH  21  22
ATOM     22  C   UNL     1      -2.508  11.097  17.991  0.00  0.00    +0.000 C 
ATOM     23  O   UNL     1      -2.488  11.293  16.787  0.00  0.00    +0.000 OA
ATOM     24  N   UNL     1      -3.572  11.477  18.821  0.00  0.00    +0.000 N 
ATOM     25  H   UNL     1      -3.643  10.961  19.689  0.00  0.00    +0.000 HD
BRANCH  24  26
ATOM     26  C   UNL     1      -4.822  12.112  18.378  0.00  0.00    +0.000 C 
ATOM     27  C   UNL     1      -5.824  11.036  17.903  0.00  0.00    +0.000 C 
ATOM     28  C   UNL     1      -6.360  10.192  19.062  0.00  0.00    +0.000 C 
ATOM     29  C   UNL     1      -7.012  11.060  20.133  0.00  0.00    +0.000 C 
ATOM     30  C   UNL     1      -6.076  12.170  20.605  0.00  0.00    +0.000 C 
ATOM     31  C   UNL     1      -5.510  12.986  19.442  0.00  0.00    +0.000 C 
ENDBRANCH  24  26
ENDBRANCH  21  22
ENDBRANCH   1  21
TORSDOF 8
ENDMDL
MODEL 5
REMARK VINA RESULT:      -6.8      4.124      7.753
REMARK  Name = 
REMARK  10 active torsions:
REMARK  status: ('A' for Active; 'I' for Inactive)
REMARK    1  A    between atoms: C_1  and  C_2
REMARK    2  A    between atoms: C_2  and  O_3
REMARK    3  A    between atoms: O_3  and  C_4
REMARK    4  A    between atoms: C_9  and  N_10
REMARK    5  A    between atoms: N_10  and  C_11
REMARK    6  A    between atoms: N_10  and  S_21
REMARK    7  A    between atoms: C_11  and  C_12
REMARK    8  A    between atoms: N_14  and  C_15
REMARK    9  A    between atoms: S_21  and  C_24
REMARK   10  A    between atoms: C_27  and  C_28
REMARK                            x       y       z     vdW  Elec       q    Type
REMARK                         _______ _______ _______ _____ _____    ______ ____
ROOT
ATOM      1  N   UNL     1       0.458  10.947  19.829  0.00  0.00    +0.000 N 
ENDROOT
BRANCH   1   7
ATOM      2  C   UNL     1      -1.935  11.808  19.754  0.00  0.00    +0.000 A 
ATOM      3  C   UNL     1      -3.125  11.915  19.001  0.00  0.00    +0.000 A 
ATOM      4  C   UNL     1      -3.300  11.211  17.813  0.00  0.00    +0.000 A 
ATOM      5  C   UNL     1      -2.272  10.418  17.335  0.00  0.00    +0.000 A 
ATOM      6  C   UNL     1      -1.052  10.380  18.016  0.00  0.00    +0.000 A 
ATOM      7  C   UNL     1      -0.846  11.093  19.214  0.00  0.00    +0.000 A 
BRANCH   2   8
ATOM      8  O   UNL     1      -1.829  12.395  21.000  0.00  0.00    +0.000 OA
BRANCH   8  10
ATOM      9  C   UNL     1      -2.948  13.252  22.998  0.00  0.00    +0.000 C 
ATOM     10  C   UNL     1      -3.108  12.683  21.600  0.00  0.00    +0.000 C 
ENDBRANCH   8  10
ENDBRANCH   2   8
ENDBRANCH   1   7
BRANCH   1  11
ATOM     11  S   UNL     1       0.671   9.620  20.884  0.00  0.00    +0.000 S 
ATOM     12  O   UNL     1       1.557   9.970  21.972  0.00  0.00    +0.000 OA
ATOM     13  O   UNL     1      -0.633   9.052  21.152  0.00  0.00    +0.000 OA
BRANCH  11  14
ATOM     14  C   UNL     1       1.531   8.407  19.888  0.00  0.00    +0.000 A 
ATOM     15  C   UNL     1       1.978   8.741  18.608  0.00  0.00    +0.000 A 
ATOM     16  C   UNL     1       2.697   7.802  17.863  0.00  0.00    +0.000 A 
ATOM     17  C   UNL     1       2.982   6.536  18.390  0.00  0.00    +0.000 A 
ATOM     18  C   UNL     1       3.734   5.515  17.587  0.00  0.00    +0.000 C 
ATOM     19  C   UNL     1       2.570   6.230  19.694  0.00  0.00    +0.000 A 
ATOM     20  C   UNL     1       1.858   7.165  20.446  0.00  0.00    +0.000 A 
ENDBRANCH  11  14
ENDBRANCH   1  11
BRANCH   1  21
ATOM     21  C   UNL     1       1.318  12.123  20.059  0.00  0.00    +0.000 C 
BRANCH  21  22
ATOM     22  C   UNL     1       2.167  12.633  18.868  0.00  0.00    +0.000 C 
ATOM     23  O   UNL     1       2.519  11.948  17.922  0.00  0.00    +0.000 OA
ATOM     24  N   UNL     1       2.438  14.005  18.974  0.00  0.00    +0.000 N 
ATOM     25  H   UNL     1       1.813  14.519  19.583  0.00  0.00    +0.000 HD
BRANCH  24  26
ATOM     26  C   UNL     1       3.129  14.824  17.967  0.00  0.00    +0.000 C 
ATOM     27  C   UNL     1       2.700  16.303  18.102  0.00  0.00    +0.000 C 
ATOM     28  C   UNL     1       3.242  16.950  19.379  0.00  0.00    +0.000 C 
ATOM     29  C   UNL     1       4.761  16.850  19.456  0.00  0.00    +0.000 C 
ATOM     30  C   UNL     1       5.241  15.412  19.283  0.00  0.00    +0.000 C 
ATOM     31  C   UNL     1       4.666  14.754  18.028  0.00  0.00    +0.000 C 
ENDBRANCH  24  26
ENDBRANCH  21  22
ENDBRANCH   1  21
TORSDOF 8
ENDMDL
MODEL 6
REMARK VINA RESULT:      -6.8      0.548      1.178
REMARK  Name = 
REMARK  10 active torsions:
REMARK  status: ('A' for Active; 'I' for Inactive)
REMARK    1  A    between atoms: C_1  and  C_2
REMARK    2  A    between atoms: C_2  and  O_3
REMARK    3  A    between atoms: O_3  and  C_4
REMARK    4  A    between atoms: C_9  and  N_10
REMARK    5  A    between atoms: N_10  and  C_11
REMARK    6  A    between atoms: N_10  and  S_21
REMARK    7  A    between atoms: C_11  and  C_12
REMARK    8  A    between atoms: N_14  and  C_15
REMARK    9  A    between atoms: S_21  and  C_24
REMARK   10  A    between atoms: C_27  and  C_28
REMARK                            x       y       z     vdW  Elec       q    Type
REMARK                         _______ _______ _______ _____ _____    ______ ____
ROOT
ATOM      1  N   UNL     1       3.836   5.275  19.211  0.00  0.00    +0.000 N 
ENDROOT
BRANCH   1   7
ATOM      2  C   UNL     1       2.046   3.476  19.022  0.00  0.00    +0.000 A 
ATOM      3  C   UNL     1       1.175   2.605  19.712  0.00  0.00    +0.000 A 
ATOM      4  C   UNL     1       0.983   2.707  21.087  0.00  0.00    +0.000 A 
ATOM      5  C   UNL     1       1.688   3.655  21.803  0.00  0.00    +0.000 A 
ATOM      6  C   UNL     1       2.629   4.459  21.151  0.00  0.00    +0.000 A 
ATOM      7  C   UNL     1       2.850   4.367  19.764  0.00  0.00    +0.000 A 
BRANCH   2   8
ATOM      8  O   UNL     1       2.119   3.462  17.643  0.00  0.00    +0.000 OA
BRANCH   8  10
ATOM      9  C   UNL     1       3.598   1.535  17.927  0.00  0.00    +0.000 C 
ATOM     10  C   UNL     1       2.490   2.174  17.110  0.00  0.00    +0.000 C 
ENDBRANCH   8  10
ENDBRANCH   2   8
ENDBRANCH   1   7
BRANCH   1  11
ATOM     11  S   UNL     1       5.448   4.715  19.142  0.00  0.00    +0.000 S 
ATOM     12  O   UNL     1       6.353   5.692  19.707  0.00  0.00    +0.000 OA
ATOM     13  O   UNL     1       5.464   3.345  19.607  0.00  0.00    +0.000 OA
BRANCH  11  14
ATOM     14  C   UNL     1       5.805   4.635  17.390  0.00  0.00    +0.000 A 
ATOM     15  C   UNL     1       4.769   4.721  16.459  0.00  0.00    +0.000 A 
ATOM     16  C   UNL     1       5.066   4.712  15.093  0.00  0.00    +0.000 A 
ATOM     17  C   UNL     1       6.393   4.629  14.651  0.00  0.00    +0.000 A 
ATOM     18  C   UNL     1       6.719   4.596  13.186  0.00  0.00    +0.000 C 
ATOM     19  C   UNL     1       7.428   4.592  15.594  0.00  0.00    +0.000 A 
ATOM     20  C   UNL     1       7.138   4.607  16.960  0.00  0.00    +0.000 A 
ENDBRANCH  11  14
ENDBRANCH   1  11
BRANCH   1  21
ATOM     21  C   UNL     1       3.643   6.736  19.289  0.00  0.00    +0.000 C 
BRANCH  21  22
ATOM     22  C   UNL     1       2.655   7.381  18.285  0.00  0.00    +0.000 C 
ATOM     23  O   UNL     1       2.021   6.768  17.442  0.00  0.00    +0.000 OA
ATOM     24  N   UNL     1       2.527   8.761  18.498  0.00  0.00    +0.000 N 
ATOM     25  H   UNL     1       2.807   9.080  19.418  0.00  0.00    +0.000 HD
BRANCH  24  26
ATOM     26  C   UNL     1       1.600   9.657  17.791  0.00  0.00    +0.000 C 
ATOM     27  C   UNL     1       0.165   9.467  18.330  0.00  0.00    +0.000 C 
ATOM     28  C   UNL     1       0.005  10.003  19.756  0.00  0.00    +0.000 C 
ATOM     29  C   UNL     1       0.396  11.474  19.848  0.00  0.00    +0.000 C 
ATOM     30  C   UNL     1       1.792  11.723  19.285  0.00  0.00    +0.000 C 
ATOM     31  C   UNL     1       1.961  11.151  17.877  0.00  0.00    +0.000 C 
ENDBRANCH  24  26
ENDBRANCH  21  22
ENDBRANCH   1  21
TORSDOF 8
ENDMDL
MODEL 7
REMARK VINA RESULT:      -6.7      4.927      8.488
REMARK  Name = 
REMARK  10 active torsions:
REMARK  status: ('A' for Active; 'I' for Inactive)
REMARK    1  A    between atoms: C_1  and  C_2
REMARK    2  A    between atoms: C_2  and  O_3
REMARK    3  A    between atoms: O_3  and  C_4
REMARK    4  A    between atoms: C_9  and  N_10
REMARK    5  A    between atoms: N_10  and  C_11
REMARK    6  A    between atoms: N_10  and  S_21
REMARK    7  A    between atoms: C_11  and  C_12
REMARK    8  A    between atoms: N_14  and  C_15
REMARK    9  A    between atoms: S_21  and  C_24
REMARK   10  A    between atoms: C_27  and  C_28
REMARK                            x       y       z     vdW  Elec       q    Type
REMARK                         _______ _______ _______ _____ _____    ______ ____
ROOT
ATOM      1  N   UNL     1      -0.286  11.686  18.961  0.00  0.00    +0.000 N 
ENDROOT
BRANCH   1   7
ATOM      2  C   UNL     1      -2.794  12.037  19.213  0.00  0.00    +0.000 A 
ATOM      3  C   UNL     1      -4.081  11.727  18.722  0.00  0.00    +0.000 A 
ATOM      4  C   UNL     1      -4.277  10.728  17.772  0.00  0.00    +0.000 A 
ATOM      5  C   UNL     1      -3.185  10.049  17.266  0.00  0.00    +0.000 A 
ATOM      6  C   UNL     1      -1.895  10.411  17.667  0.00  0.00    +0.000 A 
ATOM      7  C   UNL     1      -1.670  11.426  18.618  0.00  0.00    +0.000 A 
BRANCH   2   8
ATOM      8  O   UNL     1      -2.627  12.926  20.257  0.00  0.00    +0.000 OA
BRANCH   8  10
ATOM      9  C   UNL     1      -2.892  12.658  22.673  0.00  0.00    +0.000 C 
ATOM     10  C   UNL     1      -3.580  12.732  21.322  0.00  0.00    +0.000 C 
ENDBRANCH   8  10
ENDBRANCH   2   8
ENDBRANCH   1   7
BRANCH   1  11
ATOM     11  S   UNL     1       0.342  10.859  20.318  0.00  0.00    +0.000 S 
ATOM     12  O   UNL     1       1.376  11.641  20.958  0.00  0.00    +0.000 OA
ATOM     13  O   UNL     1      -0.775  10.350  21.084  0.00  0.00    +0.000 OA
BRANCH  11  14
ATOM     14  C   UNL     1       1.143   9.420  19.617  0.00  0.00    +0.000 A 
ATOM     15  C   UNL     1       1.570   9.433  18.288  0.00  0.00    +0.000 A 
ATOM     16  C   UNL     1       2.244   8.324  17.769  0.00  0.00    +0.000 A 
ATOM     17  C   UNL     1       2.502   7.205  18.572  0.00  0.00    +0.000 A 
ATOM     18  C   UNL     1       3.205   6.000  18.016  0.00  0.00    +0.000 C 
ATOM     19  C   UNL     1       2.112   7.222  19.917  0.00  0.00    +0.000 A 
ATOM     20  C   UNL     1       1.445   8.329  20.443  0.00  0.00    +0.000 A 
ENDBRANCH  11  14
ENDBRANCH   1  11
BRANCH   1  21
ATOM     21  C   UNL     1       0.347  12.973  18.616  0.00  0.00    +0.000 C 
BRANCH  21  22
ATOM     22  C   UNL     1      -0.021  14.205  19.479  0.00  0.00    +0.000 C 
ATOM     23  O   UNL     1      -0.014  14.226  20.699  0.00  0.00    +0.000 OA
ATOM     24  N   UNL     1      -0.309  15.326  18.687  0.00  0.00    +0.000 N 
ATOM     25  H   UNL     1       0.059  15.290  17.744  0.00  0.00    +0.000 HD
BRANCH  24  26
ATOM     26  C   UNL     1      -0.595  16.679  19.185  0.00  0.00    +0.000 C 
ATOM     27  C   UNL     1       0.711  17.358  19.657  0.00  0.00    +0.000 C 
ATOM     28  C   UNL     1       1.639  17.702  18.489  0.00  0.00    +0.000 C 
ATOM     29  C   UNL     1       0.943  18.591  17.464  0.00  0.00    +0.000 C 
ATOM     30  C   UNL     1      -0.378  17.986  16.999  0.00  0.00    +0.000 C 
ATOM     31  C   UNL     1      -1.287  17.605  18.168  0.00  0.00    +0.000 C 
ENDBRANCH  24  26
ENDBRANCH  21  22
ENDBRANCH   1  21
TORSDOF 8
ENDMDL
MODEL 8
REMARK VINA RESULT:      -6.7      4.013      7.545
REMARK  Name = 
REMARK  10 active torsions:
REMARK  status: ('A' for Active; 'I' for Inactive)
REMARK    1  A    between atoms: C_1  and  C_2
REMARK    2  A    between atoms: C_2  and  O_3
REMARK    3  A    between atoms: O_3  and  C_4
REMARK    4  A    between atoms: C_9  and  N_10
REMARK    5  A    between atoms: N_10  and  C_11
REMARK    6  A    between atoms: N_10  and  S_21
REMARK    7  A    between atoms: C_11  and  C_12
REMARK    8  A    between atoms: N_14  and  C_15
REMARK    9  A    between atoms: S_21  and  C_24
REMARK   10  A    between atoms: C_27  and  C_28
REMARK                            x       y       z     vdW  Elec       q    Type
REMARK                         _______ _______ _______ _____ _____    ______ ____
ROOT
ATOM      1  N   UNL     1       0.559  10.793  20.003  0.00  0.00    +0.000 N 
ENDROOT
BRANCH   1   7
ATOM      2  C   UNL     1      -1.730  11.891  19.821  0.00  0.00    +0.000 A 
ATOM      3  C   UNL     1      -2.915  12.024  19.066  0.00  0.00    +0.000 A 
ATOM      4  C   UNL     1      -3.186  11.190  17.984  0.00  0.00    +0.000 A 
ATOM      5  C   UNL     1      -2.258  10.234  17.615  0.00  0.00    +0.000 A 
ATOM      6  C   UNL     1      -1.036  10.155  18.290  0.00  0.00    +0.000 A 
ATOM      7  C   UNL     1      -0.734  10.996  19.379  0.00  0.00    +0.000 A 
BRANCH   2   8
ATOM      8  O   UNL     1      -1.538  12.624  20.976  0.00  0.00    +0.000 OA
BRANCH   8  10
ATOM      9  C   UNL     1      -1.572  11.525  23.160  0.00  0.00    +0.000 C 
ATOM     10  C   UNL     1      -2.381  12.195  22.065  0.00  0.00    +0.000 C 
ENDBRANCH   8  10
ENDBRANCH   2   8
ENDBRANCH   1   7
BRANCH   1  11
ATOM     11  S   UNL     1       0.723   9.425  21.013  0.00  0.00    +0.000 S 
ATOM     12  O   UNL     1       1.545   9.735  22.162  0.00  0.00    +0.000 OA
ATOM     13  O   UNL     1      -0.589   8.840  21.186  0.00  0.00    +0.000 OA
BRANCH  11  14
ATOM     14  C   UNL     1       1.646   8.259  20.018  0.00  0.00    +0.000 A 
ATOM     15  C   UNL     1       1.862   6.960  20.481  0.00  0.00    +0.000 A 
ATOM     16  C   UNL     1       2.537   6.042  19.671  0.00  0.00    +0.000 A 
ATOM     17  C   UNL     1       2.988   6.410  18.397  0.00  0.00    +0.000 A 
ATOM     18  C   UNL     1       3.733   5.437  17.529  0.00  0.00    +0.000 C 
ATOM     19  C   UNL     1       2.723   7.702  17.923  0.00  0.00    +0.000 A 
ATOM     20  C   UNL     1       2.044   8.621  18.725  0.00  0.00    +0.000 A 
ENDBRANCH  11  14
ENDBRANCH   1  11
BRANCH   1  21
ATOM     21  C   UNL     1       1.448  11.937  20.283  0.00  0.00    +0.000 C 
BRANCH  21  22
ATOM     22  C   UNL     1       1.571  13.031  19.193  0.00  0.00    +0.000 C 
ATOM     23  O   UNL     1       2.109  12.874  18.109  0.00  0.00    +0.000 OA
ATOM     24  N   UNL     1       0.934  14.219  19.576  0.00  0.00    +0.000 N 
ATOM     25  H   UNL     1       0.239  14.116  20.306  0.00  0.00    +0.000 HD
BRANCH  24  26
ATOM     26  C   UNL     1       0.775  15.418  18.740  0.00  0.00    +0.000 C 
ATOM     27  C   UNL     1      -0.471  16.215  19.187  0.00  0.00    +0.000 C 
ATOM     28  C   UNL     1      -0.274  16.878  20.554  0.00  0.00    +0.000 C 
ATOM     29  C   UNL     1       0.947  17.790  20.562  0.00  0.00    +0.000 C 
ATOM     30  C   UNL     1       2.199  17.061  20.083  0.00  0.00    +0.000 C 
ATOM     31  C   UNL     1       1.988  16.366  18.738  0.00  0.00    +0.000 C 
ENDBRANCH  24  26
ENDBRANCH  21  22
ENDBRANCH   1  21
TORSDOF 8
ENDMDL
MODEL 9
REMARK VINA RESULT:      -6.7      5.293      9.396
REMARK  Name = 
REMARK  10 active torsions:
REMARK  status: ('A' for Active; 'I' for Inactive)
REMARK    1  A    between atoms: C_1  and  C_2
REMARK    2  A    between atoms: C_2  and  O_3
REMARK    3  A    between atoms: O_3  and  C_4
REMARK    4  A    between atoms: C_9  and  N_10
REMARK    5  A    between atoms: N_10  and  C_11
REMARK    6  A    between atoms: N_10  and  S_21
REMARK    7  A    between atoms: C_11  and  C_12
REMARK    8  A    between atoms: N_14  and  C_15
REMARK    9  A    between atoms: S_21  and  C_24
REMARK   10  A    between atoms: C_27  and  C_28
REMARK                            x       y       z     vdW  Elec       q    Type
REMARK                         _______ _______ _______ _____ _____    ______ ____
ROOT
ATOM      1  N   UNL     1       0.951  11.641  19.031  0.00  0.00    +0.000 N 
ENDROOT
BRANCH   1   7
ATOM      2  C   UNL     1       1.348   9.565  20.447  0.00  0.00    +0.000 A 
ATOM      3  C   UNL     1       1.660   8.188  20.457  0.00  0.00    +0.000 A 
ATOM      4  C   UNL     1       2.080   7.529  19.304  0.00  0.00    +0.000 A 
ATOM      5  C   UNL     1       2.156   8.227  18.113  0.00  0.00    +0.000 A 
ATOM      6  C   UNL     1       1.755   9.566  18.066  0.00  0.00    +0.000 A 
ATOM      7  C   UNL     1       1.316  10.250  19.215  0.00  0.00    +0.000 A 
BRANCH   2   8
ATOM      8  O   UNL     1       1.074  10.239  21.622  0.00  0.00    +0.000 OA
BRANCH   8  10
ATOM      9  C   UNL     1      -0.784   9.970  23.190  0.00  0.00    +0.000 C 
ATOM     10  C   UNL     1       0.507   9.390  22.642  0.00  0.00    +0.000 C 
ENDBRANCH   8  10
ENDBRANCH   2   8
ENDBRANCH   1   7
BRANCH   1  11
ATOM     11  S   UNL     1      -0.710  11.985  18.830  0.00  0.00    +0.000 S 
ATOM     12  O   UNL     1      -0.903  12.996  17.814  0.00  0.00    +0.000 OA
ATOM     13  O   UNL     1      -1.419  10.726  18.758  0.00  0.00    +0.000 OA
BRANCH  11  14
ATOM     14  C   UNL     1      -1.192  12.723  20.388  0.00  0.00    +0.000 A 
ATOM     15  C   UNL     1      -2.543  12.831  20.724  0.00  0.00    +0.000 A 
ATOM     16  C   UNL     1      -2.904  13.358  21.967  0.00  0.00    +0.000 A 
ATOM     17  C   UNL     1      -1.925  13.768  22.882  0.00  0.00    +0.000 A 
ATOM     18  C   UNL     1      -2.305  14.357  24.210  0.00  0.00    +0.000 C 
ATOM     19  C   UNL     1      -0.573  13.610  22.553  0.00  0.00    +0.000 A 
ATOM     20  C   UNL     1      -0.205  13.078  21.316  0.00  0.00    +0.000 A 
ENDBRANCH  11  14
ENDBRANCH   1  11
BRANCH   1  21
ATOM     21  C   UNL     1       1.905  12.597  18.435  0.00  0.00    +0.000 C 
BRANCH  21  22
ATOM     22  C   UNL     1       2.188  13.905  19.216  0.00  0.00    +0.000 C 
ATOM     23  O   UNL     1       3.060  14.036  20.059  0.00  0.00    +0.000 OA
ATOM     24  N   UNL     1       1.354  14.951  18.794  0.00  0.00    +0.000 N 
ATOM     25  H   UNL     1       0.943  14.827  17.877  0.00  0.00    +0.000 HD
BRANCH  24  26
ATOM     26  C   UNL     1       1.427  16.346  19.253  0.00  0.00    +0.000 C 
ATOM     27  C   UNL     1       0.960  17.299  18.130  0.00  0.00    +0.000 C 
ATOM     28  C   UNL     1      -0.545  17.191  17.867  0.00  0.00    +0.000 C 
ATOM     29  C   UNL     1      -1.354  17.456  19.132  0.00  0.00    +0.000 C 
ATOM     30  C   UNL     1      -0.900  16.570  20.288  0.00  0.00    +0.000 C 
ATOM     31  C   UNL     1       0.610  16.648  20.522  0.00  0.00    +0.000 C 
ENDBRANCH  24  26
ENDBRANCH  21  22
ENDBRANCH   1  21
TORSDOF 8
ENDMDL
