MODEL 1
REMARK VINA RESULT:      -8.2      0.000      0.000
REMARK  Name = 
REMARK  7 active torsions:
REMARK  status: ('A' for Active; 'I' for Inactive)
REMARK    1  A    between atoms: C_5  and  O_6
REMARK    2  A    between atoms: O_6  and  C_7
REMARK    3  A    between atoms: C_12  and  C_13
REMARK    4  A    between atoms: C_16  and  O_17
REMARK    5  A    between atoms: O_17  and  C_18
REMARK    6  A    between atoms: C_18  and  C_19
REMARK    7  A    between atoms: C_19  and  N_20
REMARK                            x       y       z     vdW  Elec       q    Type
REMARK                         _______ _______ _______ _____ _____    ______ ____
ROOT
ATOM      1  C   UNL     1       5.969   5.238  16.989  0.00  0.00    +0.000 A 
ATOM      2  C   UNL     1       6.828   4.639  17.929  0.00  0.00    +0.000 A 
ATOM      3  C   UNL     1       7.747   5.399  18.655  0.00  0.00    +0.000 A 
ATOM      4  C   UNL     1       7.833   6.758  18.360  0.00  0.00    +0.000 A 
ATOM      5  N   UNL     1       8.623   7.722  18.901  0.00  0.00    +0.000 NA
ATOM      6  C   UNL     1       8.283   8.815  18.246  0.00  0.00    +0.000 A 
ATOM      7  O   UNL     1       7.314   8.636  17.290  0.00  0.00    +0.000 OA
ATOM      8  C   UNL     1       7.023   7.302  17.378  0.00  0.00    +0.000 A 
ATOM      9  C   UNL     1       6.080   6.593  16.650  0.00  0.00    +0.000 A 
ENDROOT
BRANCH   6  10
ATOM     10  C   UNL     1       8.793  10.154  18.462  0.00  0.00    +0.000 A 
ATOM     11  C   UNL     1       9.640  10.354  19.560  0.00  0.00    +0.000 A 
ATOM     12  C   UNL     1      10.133  11.617  19.866  0.00  0.00    +0.000 A 
ATOM     13  C   UNL     1       9.785  12.710  19.077  0.00  0.00    +0.000 A 
ATOM     14  C   UNL     1       8.960  12.520  17.965  0.00  0.00    +0.000 A 
ATOM     15  C   UNL     1       8.466  11.248  17.655  0.00  0.00    +0.000 A 
BRANCH  13  16
ATOM     16  O   UNL     1      10.192  13.998  19.288  0.00  0.00    +0.000 OA
BRANCH  16  17
ATOM     17  C   UNL     1       9.504  14.739  20.300  0.00  0.00    +0.000 C 
BRANCH  17  18
ATOM     18  C   UNL     1       8.680  15.878  19.668  0.00  0.00    +0.000 C 
BRANCH  18  19
ATOM     19  N   UNL     1       7.755  16.548  20.601  0.00  0.00    +0.000 NA
ATOM     20  C   UNL     1       6.779  15.627  21.221  0.00  0.00    +0.000 C 
ATOM     21  C   UNL     1       5.756  15.071  20.219  0.00  0.00    +0.000 C 
ATOM     22  O   UNL     1       5.027  16.135  19.594  0.00  0.00    +0.000 OA
ATOM     23  C   UNL     1       5.909  17.058  18.941  0.00  0.00    +0.000 C 
ATOM     24  C   UNL     1       6.984  17.604  19.901  0.00  0.00    +0.000 C 
ENDBRANCH  18  19
ENDBRANCH  17  18
ENDBRANCH  16  17
ENDBRANCH  13  16
ENDBRANCH   6  10
BRANCH   1  25
ATOM     25  O   UNL     1       4.974   4.533  16.338  0.00  0.00    +0.000 OA
BRANCH  25  30
ATOM     26 CL   UNL     1       0.356   2.545  19.388  0.00  0.00    +0.000 Cl
ATOM     27  C   UNL     1       1.748   3.108  18.550  0.00  0.00    +0.000 A 
ATOM     28  C   UNL     1       2.667   2.188  18.045  0.00  0.00    +0.000 A 
ATOM     29  C   UNL     1       3.786   2.646  17.352  0.00  0.00    +0.000 A 
ATOM     30  C   UNL     1       3.949   4.013  17.100  0.00  0.00    +0.000 A 
ATOM     31  C   UNL     1       3.048   4.931  17.643  0.00  0.00    +0.000 A 
ATOM     32  C   UNL     1       1.946   4.478  18.370  0.00  0.00    +0.000 A 
ENDBRANCH  25  30
ENDBRANCH   1  25
TORSDOF 7
ENDMDL
MODEL 2
REMARK VINA RESULT:      -8.0      1.766      2.712
REMARK  Name = 
REMARK  7 active torsions:
REMARK  status: ('A' for Active; 'I' for Inactive)
REMARK    1  A    between atoms: C_5  and  O_6
REMARK    2  A    between atoms: O_6  and  C_7
REMARK    3  A    between atoms: C_12  and  C_13
REMARK    4  A    between atoms: C_16  and  O_17
REMARK    5  A    between atoms: O_17  and  C_18
REMARK    6  A    between atoms: C_18  and  C_19
REMARK    7  A    between atoms: C_19  and  N_20
REMARK                            x       y       z     vdW  Elec       q    Type
REMARK                         _______ _______ _______ _____ _____    ______ ____
ROOT
ATOM      1  C   UNL     1       5.778   5.309  16.985  0.00  0.00    +0.000 A 
ATOM      2  C   UNL     1       6.693   4.673  17.845  0.00  0.00    +0.000 A 
ATOM      3  C   UNL     1       7.674   5.400  18.521  0.00  0.00    +0.000 A 
ATOM      4  C   UNL     1       7.759   6.766  18.257  0.00  0.00    +0.000 A 
ATOM      5  N   UNL     1       8.601   7.703  18.765  0.00  0.00    +0.000 NA
ATOM      6  C   UNL     1       8.231   8.818  18.165  0.00  0.00    +0.000 A 
ATOM      7  O   UNL     1       7.192   8.679  17.278  0.00  0.00    +0.000 OA
ATOM      8  C   UNL     1       6.889   7.347  17.351  0.00  0.00    +0.000 A 
ATOM      9  C   UNL     1       5.885   6.671  16.676  0.00  0.00    +0.000 A 
ENDROOT
BRANCH   6  10
ATOM     10  C   UNL     1       8.776  10.144  18.378  0.00  0.00    +0.000 A 
ATOM     11  C   UNL     1       8.292  11.181  17.570  0.00  0.00    +0.000 A 
ATOM     12  C   UNL     1       8.796  12.471  17.677  0.00  0.00    +0.000 A 
ATOM     13  C   UNL     1       9.803  12.751  18.597  0.00  0.00    +0.000 A 
ATOM     14  C   UNL     1      10.280  11.731  19.425  0.00  0.00    +0.000 A 
ATOM     15  C   UNL     1       9.769  10.432  19.320  0.00  0.00    +0.000 A 
BRANCH  13  16
ATOM     16  O   UNL     1      10.389  13.972  18.780  0.00  0.00    +0.000 OA
BRANCH  16  17
ATOM     17  C   UNL     1       9.516  15.091  18.959  0.00  0.00    +0.000 C 
BRANCH  17  18
ATOM     18  C   UNL     1      10.146  16.118  19.920  0.00  0.00    +0.000 C 
BRANCH  18  19
ATOM     19  N   UNL     1       9.851  17.524  19.584  0.00  0.00    +0.000 NA
ATOM     20  C   UNL     1       9.578  17.737  18.147  0.00  0.00    +0.000 C 
ATOM     21  C   UNL     1      10.814  17.527  17.261  0.00  0.00    +0.000 C 
ATOM     22  O   UNL     1      11.872  18.413  17.647  0.00  0.00    +0.000 OA
ATOM     23  C   UNL     1      12.217  18.242  19.028  0.00  0.00    +0.000 C 
ATOM     24  C   UNL     1      10.993  18.397  19.951  0.00  0.00    +0.000 C 
ENDBRANCH  18  19
ENDBRANCH  17  18
ENDBRANCH  16  17
ENDBRANCH  13  16
ENDBRANCH   6  10
BRANCH   1  25
ATOM     25  O   UNL     1       4.728   4.635  16.391  0.00  0.00    +0.000 OA
BRANCH  25  30
ATOM     26 CL   UNL     1       0.461   2.755  19.973  0.00  0.00    +0.000 Cl
ATOM     27  C   UNL     1       1.659   3.326  18.879  0.00  0.00    +0.000 A 
ATOM     28  C   UNL     1       1.831   4.698  18.701  0.00  0.00    +0.000 A 
ATOM     29  C   UNL     1       2.813   5.159  17.827  0.00  0.00    +0.000 A 
ATOM     30  C   UNL     1       3.671   4.254  17.190  0.00  0.00    +0.000 A 
ATOM     31  C   UNL     1       3.467   2.881  17.340  0.00  0.00    +0.000 A 
ATOM     32  C   UNL     1       2.459   2.416  18.187  0.00  0.00    +0.000 A 
ENDBRANCH  25  30
ENDBRANCH   1  25
TORSDOF 7
ENDMDL
MODEL 3
REMARK VINA RESULT:      -7.9      1.683      2.320
REMARK  Name = 
REMARK  7 active torsions:
REMARK  status: ('A' for Active; 'I' for Inactive)
REMARK    1  A    between atoms: C_5  and  O_6
REMARK    2  A    between atoms: O_6  and  C_7
REMARK    3  A    between atoms: C_12  and  C_13
REMARK    4  A    between atoms: C_16  and  O_17
REMARK    5  A    between atoms: O_17  and  C_18
REMARK    6  A    between atoms: C_18  and  C_19
REMARK    7  A    between atoms: C_19  and  N_20
REMARK                            x       y       z     vdW  Elec       q    Type
REMARK                         _______ _______ _______ _____ _____    ______ ____
ROOT
ATOM      1  C   UNL     1       6.188   5.317  17.094  0.00  0.00    +0.000 A 
ATOM      2  C   UNL     1       6.990   4.824  18.140  0.00  0.00    +0.000 A 
ATOM      3  C   UNL     1       7.845   5.666  18.855  0.00  0.00    +0.000 A 
ATOM      4  C   UNL     1       7.927   6.995  18.445  0.00  0.00    +0.000 A 
ATOM      5  N   UNL     1       8.662   8.021  18.950  0.00  0.00    +0.000 NA
ATOM      6  C   UNL     1       8.349   9.043  18.178  0.00  0.00    +0.000 A 
ATOM      7  O   UNL     1       7.451   8.759  17.179  0.00  0.00    +0.000 OA
ATOM      8  C   UNL     1       7.178   7.432  17.366  0.00  0.00    +0.000 A 
ATOM      9  C   UNL     1       6.299   6.639  16.644  0.00  0.00    +0.000 A 
ENDROOT
BRANCH   6  10
ATOM     10  C   UNL     1       8.820  10.408  18.306  0.00  0.00    +0.000 A 
ATOM     11  C   UNL     1       8.106  11.406  17.630  0.00  0.00    +0.000 A 
ATOM     12  C   UNL     1       8.519  12.732  17.662  0.00  0.00    +0.000 A 
ATOM     13  C   UNL     1       9.664  13.088  18.370  0.00  0.00    +0.000 A 
ATOM     14  C   UNL     1      10.374  12.105  19.066  0.00  0.00    +0.000 A 
ATOM     15  C   UNL     1       9.955  10.771  19.039  0.00  0.00    +0.000 A 
BRANCH  13  16
ATOM     16  O   UNL     1      10.178  14.351  18.459  0.00  0.00    +0.000 OA
BRANCH  16  17
ATOM     17  C   UNL     1       9.246  15.418  18.658  0.00  0.00    +0.000 C 
BRANCH  17  18
ATOM     18  C   UNL     1       9.356  15.969  20.094  0.00  0.00    +0.000 C 
BRANCH  18  19
ATOM     19  N   UNL     1      10.439  15.367  20.894  0.00  0.00    +0.000 NA
ATOM     20  C   UNL     1       9.947  14.518  21.999  0.00  0.00    +0.000 C 
ATOM     21  C   UNL     1       9.242  15.317  23.105  0.00  0.00    +0.000 C 
ATOM     22  O   UNL     1      10.121  16.302  23.660  0.00  0.00    +0.000 OA
ATOM     23  C   UNL     1      10.617  17.188  22.647  0.00  0.00    +0.000 C 
ATOM     24  C   UNL     1      11.292  16.422  21.493  0.00  0.00    +0.000 C 
ENDBRANCH  18  19
ENDBRANCH  17  18
ENDBRANCH  16  17
ENDBRANCH  13  16
ENDBRANCH   6  10
BRANCH   1  25
ATOM     25  O   UNL     1       5.252   4.535  16.445  0.00  0.00    +0.000 OA
BRANCH  25  30
ATOM     26 CL   UNL     1       0.417   2.839  19.330  0.00  0.00    +0.000 Cl
ATOM     27  C   UNL     1       1.870   3.318  18.543  0.00  0.00    +0.000 A 
ATOM     28  C   UNL     1       2.778   2.346  18.125  0.00  0.00    +0.000 A 
ATOM     29  C   UNL     1       3.947   2.735  17.473  0.00  0.00    +0.000 A 
ATOM     30  C   UNL     1       4.172   4.083  17.173  0.00  0.00    +0.000 A 
ATOM     31  C   UNL     1       3.279   5.055  17.631  0.00  0.00    +0.000 A 
ATOM     32  C   UNL     1       2.126   4.671  18.317  0.00  0.00    +0.000 A 
ENDBRANCH  25  30
ENDBRANCH   1  25
TORSDOF 7
ENDMDL
MODEL 4
REMARK VINA RESULT:      -7.7      3.922     10.645
REMARK  Name = 
REMARK  7 active torsions:
REMARK  status: ('A' for Active; 'I' for Inactive)
REMARK    1  A    between atoms: C_5  and  O_6
REMARK    2  A    between atoms: O_6  and  C_7
REMARK    3  A    between atoms: C_12  and  C_13
REMARK    4  A    between atoms: C_16  and  O_17
REMARK    5  A    between atoms: O_17  and  C_18
REMARK    6  A    between atoms: C_18  and  C_19
REMARK    7  A    between atoms: C_19  and  N_20
REMARK                            x       y       z     vdW  Elec       q    Type
REMARK                         _______ _______ _______ _____ _____    ______ ____
ROOT
ATOM      1  C   UNL     1      10.118  12.040  19.631  0.00  0.00    +0.000 A 
ATOM      2  C   UNL     1       9.520  12.658  18.516  0.00  0.00    +0.000 A 
ATOM      3  C   UNL     1       8.671  11.948  17.665  0.00  0.00    +0.000 A 
ATOM      4  C   UNL     1       8.497  10.588  17.918  0.00  0.00    +0.000 A 
ATOM      5  N   UNL     1       7.741   9.668  17.266  0.00  0.00    +0.000 NA
ATOM      6  C   UNL     1       7.954   8.551  17.935  0.00  0.00    +0.000 A 
ATOM      7  O   UNL     1       8.818   8.670  18.995  0.00  0.00    +0.000 OA
ATOM      8  C   UNL     1       9.158   9.995  18.981  0.00  0.00    +0.000 A 
ATOM      9  C   UNL     1       9.989  10.665  19.865  0.00  0.00    +0.000 A 
ENDROOT
BRANCH   6  10
ATOM     10  C   UNL     1       7.349   7.258  17.687  0.00  0.00    +0.000 A 
ATOM     11  C   UNL     1       6.233   7.217  16.841  0.00  0.00    +0.000 A 
ATOM     12  C   UNL     1       5.565   6.025  16.589  0.00  0.00    +0.000 A 
ATOM     13  C   UNL     1       6.000   4.844  17.185  0.00  0.00    +0.000 A 
ATOM     14  C   UNL     1       7.125   4.867  18.014  0.00  0.00    +0.000 A 
ATOM     15  C   UNL     1       7.801   6.066  18.264  0.00  0.00    +0.000 A 
BRANCH  13  16
ATOM     16  O   UNL     1       5.416   3.619  17.029  0.00  0.00    +0.000 OA
BRANCH  16  17
ATOM     17  C   UNL     1       4.042   3.501  17.407  0.00  0.00    +0.000 C 
BRANCH  17  18
ATOM     18  C   UNL     1       3.861   3.845  18.899  0.00  0.00    +0.000 C 
BRANCH  18  19
ATOM     19  N   UNL     1       2.649   4.631  19.198  0.00  0.00    +0.000 NA
ATOM     20  C   UNL     1       2.458   4.884  20.642  0.00  0.00    +0.000 C 
ATOM     21  C   UNL     1       2.129   3.613  21.438  0.00  0.00    +0.000 C 
ATOM     22  O   UNL     1       0.939   2.992  20.936  0.00  0.00    +0.000 OA
ATOM     23  C   UNL     1       1.061   2.686  19.540  0.00  0.00    +0.000 C 
ATOM     24  C   UNL     1       1.438   3.927  18.709  0.00  0.00    +0.000 C 
ENDBRANCH  18  19
ENDBRANCH  17  18
ENDBRANCH  16  17
ENDBRANCH  13  16
ENDBRANCH   6  10
BRANCH   1  25
ATOM     25  O   UNL     1      10.870  12.742  20.553  0.00  0.00    +0.000 OA
BRANCH  25  30
ATOM     26 CL   UNL     1       8.163  16.365  24.311  0.00  0.00    +0.000 Cl
ATOM     27  C   UNL     1       8.915  15.333  23.159  0.00  0.00    +0.000 A 
ATOM     28  C   UNL     1       9.812  15.869  22.236  0.00  0.00    +0.000 A 
ATOM     29  C   UNL     1      10.433  15.029  21.314  0.00  0.00    +0.000 A 
ATOM     30  C   UNL     1      10.218  13.647  21.363  0.00  0.00    +0.000 A 
ATOM     31  C   UNL     1       9.288  13.121  22.263  0.00  0.00    +0.000 A 
ATOM     32  C   UNL     1       8.636  13.965  23.162  0.00  0.00    +0.000 A 
ENDBRANCH  25  30
ENDBRANCH   1  25
TORSDOF 7
ENDMDL
MODEL 5
REMARK VINA RESULT:      -7.7      1.445      1.944
REMARK  Name = 
REMARK  7 active torsions:
REMARK  status: ('A' for Active; 'I' for Inactive)
REMARK    1  A    between atoms: C_5  and  O_6
REMARK    2  A    between atoms: O_6  and  C_7
REMARK    3  A    between atoms: C_12  and  C_13
REMARK    4  A    between atoms: C_16  and  O_17
REMARK    5  A    between atoms: O_17  and  C_18
REMARK    6  A    between atoms: C_18  and  C_19
REMARK    7  A    between atoms: C_19  and  N_20
REMARK                            x       y       z     vdW  Elec       q    Type
REMARK                         _______ _______ _______ _____ _____    ______ ____
ROOT
ATOM      1  C   UNL     1       4.645   4.561  16.520  0.00  0.00    +0.000 A 
ATOM      2  C   UNL     1       5.829   4.023  15.981  0.00  0.00    +0.000 A 
ATOM      3  C   UNL     1       7.041   4.711  16.069  0.00  0.00    +0.000 A 
ATOM      4  C   UNL     1       7.019   5.982  16.643  0.00  0.00    +0.000 A 
ATOM      5  N   UNL     1       8.031   6.861  16.856  0.00  0.00    +0.000 NA
ATOM      6  C   UNL     1       7.439   7.892  17.427  0.00  0.00    +0.000 A 
ATOM      7  O   UNL     1       6.084   7.756  17.601  0.00  0.00    +0.000 OA
ATOM      8  C   UNL     1       5.823   6.511  17.097  0.00  0.00    +0.000 A 
ATOM      9  C   UNL     1       4.603   5.855  17.054  0.00  0.00    +0.000 A 
ENDROOT
BRANCH   6  10
ATOM     10  C   UNL     1       8.072   9.104  17.909  0.00  0.00    +0.000 A 
ATOM     11  C   UNL     1       8.892   8.999  19.041  0.00  0.00    +0.000 A 
ATOM     12  C   UNL     1       9.497  10.121  19.595  0.00  0.00    +0.000 A 
ATOM     13  C   UNL     1       9.291  11.375  19.028  0.00  0.00    +0.000 A 
ATOM     14  C   UNL     1       8.494  11.490  17.886  0.00  0.00    +0.000 A 
ATOM     15  C   UNL     1       7.887  10.361  17.325  0.00  0.00    +0.000 A 
BRANCH  13  16
ATOM     16  O   UNL     1       9.816  12.548  19.493  0.00  0.00    +0.000 OA
BRANCH  16  17
ATOM     17  C   UNL     1       8.936  13.412  20.217  0.00  0.00    +0.000 C 
BRANCH  17  18
ATOM     18  C   UNL     1       8.949  14.829  19.610  0.00  0.00    +0.000 C 
BRANCH  18  19
ATOM     19  N   UNL     1       8.250  15.844  20.421  0.00  0.00    +0.000 NA
ATOM     20  C   UNL     1       6.804  15.930  20.130  0.00  0.00    +0.000 C 
ATOM     21  C   UNL     1       6.502  16.485  18.730  0.00  0.00    +0.000 C 
ATOM     22  O   UNL     1       7.065  17.793  18.570  0.00  0.00    +0.000 OA
ATOM     23  C   UNL     1       8.480  17.784  18.806  0.00  0.00    +0.000 C 
ATOM     24  C   UNL     1       8.830  17.189  20.184  0.00  0.00    +0.000 C 
ENDBRANCH  18  19
ENDBRANCH  17  18
ENDBRANCH  16  17
ENDBRANCH  13  16
ENDBRANCH   6  10
BRANCH   1  25
ATOM     25  O   UNL     1       3.457   3.856  16.549  0.00  0.00    +0.000 OA
BRANCH  25  30
ATOM     26 CL   UNL     1       1.505   2.652  21.964  0.00  0.00    +0.000 Cl
ATOM     27  C   UNL     1       2.028   2.959  20.354  0.00  0.00    +0.000 A 
ATOM     28  C   UNL     1       1.212   3.691  19.493  0.00  0.00    +0.000 A 
ATOM     29  C   UNL     1       1.644   3.953  18.194  0.00  0.00    +0.000 A 
ATOM     30  C   UNL     1       2.919   3.549  17.781  0.00  0.00    +0.000 A 
ATOM     31  C   UNL     1       3.715   2.781  18.634  0.00  0.00    +0.000 A 
ATOM     32  C   UNL     1       3.268   2.485  19.923  0.00  0.00    +0.000 A 
ENDBRANCH  25  30
ENDBRANCH   1  25
TORSDOF 7
ENDMDL
MODEL 6
REMARK VINA RESULT:      -7.7      1.876      2.569
REMARK  Name = 
REMARK  7 active torsions:
REMARK  status: ('A' for Active; 'I' for Inactive)
REMARK    1  A    between atoms: C_5  and  O_6
REMARK    2  A    between atoms: O_6  and  C_7
REMARK    3  A    between atoms: C_12  and  C_13
REMARK    4  A    between atoms: C_16  and  O_17
REMARK    5  A    between atoms: O_17  and  C_18
REMARK    6  A    between atoms: C_18  and  C_19
REMARK    7  A    between atoms: C_19  and  N_20
REMARK                            x       y       z     vdW  Elec       q    Type
REMARK                         _______ _______ _______ _____ _____    ______ ____
ROOT
ATOM      1  C   UNL     1       4.665   4.668  16.448  0.00  0.00    +0.000 A 
ATOM      2  C   UNL     1       5.844   4.155  15.877  0.00  0.00    +0.000 A 
ATOM      3  C   UNL     1       7.056   4.842  15.978  0.00  0.00    +0.000 A 
ATOM      4  C   UNL     1       7.037   6.089  16.601  0.00  0.00    +0.000 A 
ATOM      5  N   UNL     1       8.050   6.962  16.838  0.00  0.00    +0.000 NA
ATOM      6  C   UNL     1       7.461   7.969  17.455  0.00  0.00    +0.000 A 
ATOM      7  O   UNL     1       6.109   7.822  17.638  0.00  0.00    +0.000 OA
ATOM      8  C   UNL     1       5.845   6.597  17.089  0.00  0.00    +0.000 A 
ATOM      9  C   UNL     1       4.626   5.940  17.033  0.00  0.00    +0.000 A 
ENDROOT
BRANCH   6  10
ATOM     10  C   UNL     1       8.098   9.162  17.977  0.00  0.00    +0.000 A 
ATOM     11  C   UNL     1       7.855  10.369  17.309  0.00  0.00    +0.000 A 
ATOM     12  C   UNL     1       8.464  11.550  17.715  0.00  0.00    +0.000 A 
ATOM     13  C   UNL     1       9.336  11.546  18.801  0.00  0.00    +0.000 A 
ATOM     14  C   UNL     1       9.570  10.353  19.489  0.00  0.00    +0.000 A 
ATOM     15  C   UNL     1       8.953   9.164  19.083  0.00  0.00    +0.000 A 
BRANCH  13  16
ATOM     16  O   UNL     1      10.006  12.637  19.280  0.00  0.00    +0.000 OA
BRANCH  16  17
ATOM     17  C   UNL     1       9.217  13.765  19.666  0.00  0.00    +0.000 C 
BRANCH  17  18
ATOM     18  C   UNL     1       9.635  15.015  18.867  0.00  0.00    +0.000 C 
BRANCH  18  19
ATOM     19  N   UNL     1       9.851  16.220  19.691  0.00  0.00    +0.000 NA
ATOM     20  C   UNL     1       8.654  17.081  19.792  0.00  0.00    +0.000 C 
ATOM     21  C   UNL     1       8.285  17.757  18.463  0.00  0.00    +0.000 C 
ATOM     22  O   UNL     1       9.370  18.559  17.982  0.00  0.00    +0.000 OA
ATOM     23  C   UNL     1      10.565  17.781  17.827  0.00  0.00    +0.000 C 
ATOM     24  C   UNL     1      10.945  17.047  19.127  0.00  0.00    +0.000 C 
ENDBRANCH  18  19
ENDBRANCH  17  18
ENDBRANCH  16  17
ENDBRANCH  13  16
ENDBRANCH   6  10
BRANCH   1  25
ATOM     25  O   UNL     1       3.478   3.960  16.463  0.00  0.00    +0.000 OA
BRANCH  25  30
ATOM     26 CL   UNL     1       1.487   2.696  21.849  0.00  0.00    +0.000 Cl
ATOM     27  C   UNL     1       2.019   3.024  20.247  0.00  0.00    +0.000 A 
ATOM     28  C   UNL     1       1.246   3.838  19.419  0.00  0.00    +0.000 A 
ATOM     29  C   UNL     1       1.686   4.116  18.126  0.00  0.00    +0.000 A 
ATOM     30  C   UNL     1       2.930   3.645  17.688  0.00  0.00    +0.000 A 
ATOM     31  C   UNL     1       3.679   2.798  18.507  0.00  0.00    +0.000 A 
ATOM     32  C   UNL     1       3.223   2.487  19.789  0.00  0.00    +0.000 A 
ENDBRANCH  25  30
ENDBRANCH   1  25
TORSDOF 7
ENDMDL
MODEL 7
REMARK VINA RESULT:      -7.7      1.039      1.393
REMARK  Name = 
REMARK  7 active torsions:
REMARK  status: ('A' for Active; 'I' for Inactive)
REMARK    1  A    between atoms: C_5  and  O_6
REMARK    2  A    between atoms: O_6  and  C_7
REMARK    3  A    between atoms: C_12  and  C_13
REMARK    4  A    between atoms: C_16  and  O_17
REMARK    5  A    between atoms: O_17  and  C_18
REMARK    6  A    between atoms: C_18  and  C_19
REMARK    7  A    between atoms: C_19  and  N_20
REMARK                            x       y       z     vdW  Elec       q    Type
REMARK                         _______ _______ _______ _____ _____    ______ ____
ROOT
ATOM      1  C   UNL     1       6.309   5.308  17.415  0.00  0.00    +0.000 A 
ATOM      2  C   UNL     1       7.201   4.882  18.416  0.00  0.00    +0.000 A 
ATOM      3  C   UNL     1       8.082   5.777  19.028  0.00  0.00    +0.000 A 
ATOM      4  C   UNL     1       8.095   7.089  18.557  0.00  0.00    +0.000 A 
ATOM      5  N   UNL     1       8.835   8.154  18.961  0.00  0.00    +0.000 NA
ATOM      6  C   UNL     1       8.435   9.133  18.172  0.00  0.00    +0.000 A 
ATOM      7  O   UNL     1       7.474   8.781  17.257  0.00  0.00    +0.000 OA
ATOM      8  C   UNL     1       7.254   7.457  17.520  0.00  0.00    +0.000 A 
ATOM      9  C   UNL     1       6.348   6.611  16.901  0.00  0.00    +0.000 A 
ENDROOT
BRANCH   6  10
ATOM     10  C   UNL     1       8.875  10.514  18.206  0.00  0.00    +0.000 A 
ATOM     11  C   UNL     1      10.043  10.803  18.925  0.00  0.00    +0.000 A 
ATOM     12  C   UNL     1      10.506  12.107  19.048  0.00  0.00    +0.000 A 
ATOM     13  C   UNL     1       9.805  13.154  18.455  0.00  0.00    +0.000 A 
ATOM     14  C   UNL     1       8.651  12.877  17.717  0.00  0.00    +0.000 A 
ATOM     15  C   UNL     1       8.187  11.563  17.589  0.00  0.00    +0.000 A 
BRANCH  13  16
ATOM     16  O   UNL     1      10.151  14.474  18.521  0.00  0.00    +0.000 OA
BRANCH  16  17
ATOM     17  C   UNL     1      10.548  14.978  19.800  0.00  0.00    +0.000 C 
BRANCH  17  18
ATOM     18  C   UNL     1       9.468  15.921  20.367  0.00  0.00    +0.000 C 
BRANCH  18  19
ATOM     19  N   UNL     1       8.394  16.258  19.413  0.00  0.00    +0.000 NA
ATOM     20  C   UNL     1       8.395  17.679  19.010  0.00  0.00    +0.000 C 
ATOM     21  C   UNL     1       8.014  18.630  20.154  0.00  0.00    +0.000 C 
ATOM     22  O   UNL     1       6.713  18.315  20.664  0.00  0.00    +0.000 OA
ATOM     23  C   UNL     1       6.642  16.953  21.107  0.00  0.00    +0.000 C 
ATOM     24  C   UNL     1       7.064  15.966  20.002  0.00  0.00    +0.000 C 
ENDBRANCH  18  19
ENDBRANCH  17  18
ENDBRANCH  16  17
ENDBRANCH  13  16
ENDBRANCH   6  10
BRANCH   1  25
ATOM     25  O   UNL     1       5.351   4.474  16.871  0.00  0.00    +0.000 OA
BRANCH  25  30
ATOM     26 CL   UNL     1       0.540   3.029  19.928  0.00  0.00    +0.000 Cl
ATOM     27  C   UNL     1       1.978   3.471  19.095  0.00  0.00    +0.000 A 
ATOM     28  C   UNL     1       3.123   2.688  19.234  0.00  0.00    +0.000 A 
ATOM     29  C   UNL     1       4.282   3.039  18.545  0.00  0.00    +0.000 A 
ATOM     30  C   UNL     1       4.276   4.125  17.662  0.00  0.00    +0.000 A 
ATOM     31  C   UNL     1       3.139   4.930  17.559  0.00  0.00    +0.000 A 
ATOM     32  C   UNL     1       1.988   4.602  18.276  0.00  0.00    +0.000 A 
ENDBRANCH  25  30
ENDBRANCH   1  25
TORSDOF 7
ENDMDL
MODEL 8
REMARK VINA RESULT:      -7.6      1.857      2.114
REMARK  Name = 
REMARK  7 active torsions:
REMARK  status: ('A' for Active; 'I' for Inactive)
REMARK    1  A    between atoms: C_5  and  O_6
REMARK    2  A    between atoms: O_6  and  C_7
REMARK    3  A    between atoms: C_12  and  C_13
REMARK    4  A    between atoms: C_16  and  O_17
REMARK    5  A    between atoms: O_17  and  C_18
REMARK    6  A    between atoms: C_18  and  C_19
REMARK    7  A    between atoms: C_19  and  N_20
REMARK                            x       y       z     vdW  Elec       q    Type
REMARK                         _______ _______ _______ _____ _____    ______ ____
ROOT
ATOM      1  C   UNL     1       6.293   5.378  17.548  0.00  0.00    +0.000 A 
ATOM      2  C   UNL     1       7.201   5.016  18.561  0.00  0.00    +0.000 A 
ATOM      3  C   UNL     1       8.082   5.950  19.110  0.00  0.00    +0.000 A 
ATOM      4  C   UNL     1       8.078   7.233  18.566  0.00  0.00    +0.000 A 
ATOM      5  N   UNL     1       8.815   8.325  18.900  0.00  0.00    +0.000 NA
ATOM      6  C   UNL     1       8.398   9.255  18.063  0.00  0.00    +0.000 A 
ATOM      7  O   UNL     1       7.428   8.846  17.181  0.00  0.00    +0.000 OA
ATOM      8  C   UNL     1       7.222   7.537  17.521  0.00  0.00    +0.000 A 
ATOM      9  C   UNL     1       6.316   6.650  16.962  0.00  0.00    +0.000 A 
ENDROOT
BRANCH   6  10
ATOM     10  C   UNL     1       8.827  10.638  18.014  0.00  0.00    +0.000 A 
ATOM     11  C   UNL     1      10.134  10.926  18.432  0.00  0.00    +0.000 A 
ATOM     12  C   UNL     1      10.608  12.232  18.462  0.00  0.00    +0.000 A 
ATOM     13  C   UNL     1       9.779  13.282  18.077  0.00  0.00    +0.000 A 
ATOM     14  C   UNL     1       8.481  13.007  17.637  0.00  0.00    +0.000 A 
ATOM     15  C   UNL     1       8.005  11.692  17.602  0.00  0.00    +0.000 A 
BRANCH  13  16
ATOM     16  O   UNL     1      10.125  14.604  18.081  0.00  0.00    +0.000 OA
BRANCH  16  17
ATOM     17  C   UNL     1      10.705  15.119  19.283  0.00  0.00    +0.000 C 
BRANCH  17  18
ATOM     18  C   UNL     1       9.656  15.166  20.411  0.00  0.00    +0.000 C 
BRANCH  18  19
ATOM     19  N   UNL     1      10.068  14.482  21.652  0.00  0.00    +0.000 NA
ATOM     20  C   UNL     1       9.430  13.161  21.831  0.00  0.00    +0.000 C 
ATOM     21  C   UNL     1       7.919  13.253  22.092  0.00  0.00    +0.000 C 
ATOM     22  O   UNL     1       7.652  14.038  23.261  0.00  0.00    +0.000 OA
ATOM     23  C   UNL     1       8.217  15.351  23.148  0.00  0.00    +0.000 C 
ATOM     24  C   UNL     1       9.725  15.305  22.838  0.00  0.00    +0.000 C 
ENDBRANCH  18  19
ENDBRANCH  17  18
ENDBRANCH  16  17
ENDBRANCH  13  16
ENDBRANCH   6  10
BRANCH   1  25
ATOM     25  O   UNL     1       5.335   4.508  17.065  0.00  0.00    +0.000 OA
BRANCH  25  30
ATOM     26 CL   UNL     1       0.544   3.155  20.196  0.00  0.00    +0.000 Cl
ATOM     27  C   UNL     1       1.940   3.618  19.303  0.00  0.00    +0.000 A 
ATOM     28  C   UNL     1       3.125   3.907  19.978  0.00  0.00    +0.000 A 
ATOM     29  C   UNL     1       4.259   4.266  19.252  0.00  0.00    +0.000 A 
ATOM     30  C   UNL     1       4.230   4.262  17.853  0.00  0.00    +0.000 A 
ATOM     31  C   UNL     1       3.030   4.012  17.183  0.00  0.00    +0.000 A 
ATOM     32  C   UNL     1       1.883   3.689  17.910  0.00  0.00    +0.000 A 
ENDBRANCH  25  30
ENDBRANCH   1  25
TORSDOF 7
ENDMDL
MODEL 9
REMARK VINA RESULT:      -7.6      7.413     11.877
REMARK  Name = 
REMARK  7 active torsions:
REMARK  status: ('A' for Active; 'I' for Inactive)
REMARK    1  A    between atoms: C_5  and  O_6
REMARK    2  A    between atoms: O_6  and  C_7
REMARK    3  A    between atoms: C_12  and  C_13
REMARK    4  A    between atoms: C_16  and  O_17
REMARK    5  A    between atoms: O_17  and  C_18
REMARK    6  A    between atoms: C_18  and  C_19
REMARK    7  A    between atoms: C_19  and  N_20
REMARK                            x       y       z     vdW  Elec       q    Type
REMARK                         _______ _______ _______ _____ _____    ______ ____
ROOT
ATOM      1  C   UNL     1      -2.014  12.600  21.355  0.00  0.00    +0.000 A 
ATOM      2  C   UNL     1      -1.734  12.055  22.621  0.00  0.00    +0.000 A 
ATOM      3  C   UNL     1      -0.838  10.994  22.770  0.00  0.00    +0.000 A 
ATOM      4  C   UNL     1      -0.289  10.450  21.611  0.00  0.00    +0.000 A 
ATOM      5  N   UNL     1       0.598   9.431  21.459  0.00  0.00    +0.000 NA
ATOM      6  C   UNL     1       0.763   9.349  20.153  0.00  0.00    +0.000 A 
ATOM      7  O   UNL     1       0.031  10.249  19.420  0.00  0.00    +0.000 OA
ATOM      8  C   UNL     1      -0.641  10.964  20.374  0.00  0.00    +0.000 A 
ATOM      9  C   UNL     1      -1.505  12.029  20.181  0.00  0.00    +0.000 A 
ENDROOT
BRANCH   6  10
ATOM     10  C   UNL     1       1.649   8.448  19.443  0.00  0.00    +0.000 A 
ATOM     11  C   UNL     1       2.027   7.266  20.093  0.00  0.00    +0.000 A 
ATOM     12  C   UNL     1       2.912   6.371  19.502  0.00  0.00    +0.000 A 
ATOM     13  C   UNL     1       3.441   6.645  18.244  0.00  0.00    +0.000 A 
ATOM     14  C   UNL     1       3.055   7.810  17.575  0.00  0.00    +0.000 A 
ATOM     15  C   UNL     1       2.161   8.708  18.168  0.00  0.00    +0.000 A 
BRANCH  13  16
ATOM     16  O   UNL     1       4.330   5.854  17.572  0.00  0.00    +0.000 OA
BRANCH  16  17
ATOM     17  C   UNL     1       4.473   4.506  18.028  0.00  0.00    +0.000 C 
BRANCH  17  18
ATOM     18  C   UNL     1       3.326   3.629  17.488  0.00  0.00    +0.000 C 
BRANCH  18  19
ATOM     19  N   UNL     1       3.230   2.299  18.119  0.00  0.00    +0.000 NA
ATOM     20  C   UNL     1       1.840   1.818  18.262  0.00  0.00    +0.000 C 
ATOM     21  C   UNL     1       1.023   2.631  19.278  0.00  0.00    +0.000 C 
ATOM     22  O   UNL     1       1.640   2.595  20.570  0.00  0.00    +0.000 OA
ATOM     23  C   UNL     1       2.989   3.080  20.518  0.00  0.00    +0.000 C 
ATOM     24  C   UNL     1       3.832   2.322  19.475  0.00  0.00    +0.000 C 
ENDBRANCH  18  19
ENDBRANCH  17  18
ENDBRANCH  16  17
ENDBRANCH  13  16
ENDBRANCH   6  10
BRANCH   1  25
ATOM     25  O   UNL     1      -2.807  13.719  21.187  0.00  0.00    +0.000 OA
BRANCH  25  30
ATOM     26 CL   UNL     1      -7.755  13.687  24.365  0.00  0.00    +0.000 Cl
ATOM     27  C   UNL     1      -6.327  13.759  23.409  0.00  0.00    +0.000 A 
ATOM     28  C   UNL     1      -5.312  14.652  23.754  0.00  0.00    +0.000 A 
ATOM     29  C   UNL     1      -4.149  14.698  22.988  0.00  0.00    +0.000 A 
ATOM     30  C   UNL     1      -3.968  13.803  21.927  0.00  0.00    +0.000 A 
ATOM     31  C   UNL     1      -5.004  12.941  21.561  0.00  0.00    +0.000 A 
ATOM     32  C   UNL     1      -6.185  12.919  22.304  0.00  0.00    +0.000 A 
ENDBRANCH  25  30
ENDBRANCH   1  25
TORSDOF 7
ENDMDL
