MODEL 1
REMARK VINA RESULT:      -7.8      0.000      0.000
REMARK  Name = 
REMARK  5 active torsions:
REMARK  status: ('A' for Active; 'I' for Inactive)
REMARK    1  A    between atoms: C_1  and  C_2
REMARK    2  A    between atoms: C_4  and  C_5
REMARK    3  A    between atoms: N_13  and  C_14
REMARK    4  A    between atoms: C_17  and  C_18
REMARK    5  A    between atoms: C_20  and  C_21
REMARK                            x       y       z     vdW  Elec       q    Type
REMARK                         _______ _______ _______ _____ _____    ______ ____
ROOT
ATOM      1  C   UNL     1      -0.552  11.407  19.036  0.00  0.00    +0.000 C 
ATOM      2  C   UNL     1      -0.575  10.639  20.503  0.00  0.00    +0.000 C 
ATOM      3  C   UNL     1      -1.406  11.870  20.945  0.00  0.00    +0.000 C 
ATOM      4  C   UNL     1      -1.470  11.859  22.415  0.00  0.00    +0.000 C 
ATOM      5  N   UNL     1      -0.522  11.153  22.912  0.00  0.00    +0.000 NA
ATOM      6  N   UNL     1       0.177  10.687  21.830  0.00  0.00    +0.000 N 
ATOM      7  S   UNL     1       0.854   9.208  22.277  0.00  0.00    +0.000 S 
ATOM      8  O   UNL     1       2.269   9.302  22.940  0.00  0.00    +0.000 OA
ATOM      9  N   UNL     1       0.930   8.625  20.745  0.00  0.00    +0.000 N 
ATOM     10  C   UNL     1       0.575   9.647  19.867  0.00  0.00    +0.000 C 
ATOM     11  O   UNL     1       1.111   9.733  18.760  0.00  0.00    +0.000 OA
ENDROOT
BRANCH   9  12
ATOM     12  C   UNL     1       1.621   7.446  20.334  0.00  0.00    +0.000 A 
ATOM     13  C   UNL     1       1.426   6.253  21.049  0.00  0.00    +0.000 A 
ATOM     14  C   UNL     1       2.055   5.064  20.685  0.00  0.00    +0.000 A 
ATOM     15  C   UNL     1       2.928   5.028  19.596  0.00  0.00    +0.000 A 
ATOM     16  C   UNL     1       3.189   6.206  18.882  0.00  0.00    +0.000 A 
ATOM     17  C   UNL     1       2.542   7.409  19.275  0.00  0.00    +0.000 A 
BRANCH  16  18
ATOM     18  C   UNL     1       4.123   6.264  17.691  0.00  0.00    +0.000 C 
ATOM     19  F   UNL     1       3.956   5.271  16.784  0.00  0.00    +0.000 F 
ATOM     20  F   UNL     1       3.992   7.425  16.998  0.00  0.00    +0.000 F 
ATOM     21  F   UNL     1       5.427   6.198  18.075  0.00  0.00    +0.000 F 
ENDBRANCH  16  18
BRANCH  15  22
ATOM     22  C   UNL     1       3.518   3.763  19.275  0.00  0.00    +0.000 C 
ATOM     23  N   UNL     1       4.027   2.745  19.054  0.00  0.00    +0.000 NA
ENDBRANCH  15  22
ENDBRANCH   9  12
BRANCH   4  24
ATOM     24  C   UNL     1      -2.504  12.658  23.153  0.00  0.00    +0.000 C 
ATOM     25  F   UNL     1      -3.303  13.353  22.296  0.00  0.00    +0.000 F 
ATOM     26  F   UNL     1      -3.333  11.871  23.887  0.00  0.00    +0.000 F 
ATOM     27  F   UNL     1      -1.965  13.573  23.998  0.00  0.00    +0.000 F 
ENDBRANCH   4  24
TORSDOF 4
ENDMDL
MODEL 2
REMARK VINA RESULT:      -7.7      0.066      1.033
REMARK  Name = 
REMARK  5 active torsions:
REMARK  status: ('A' for Active; 'I' for Inactive)
REMARK    1  A    between atoms: C_1  and  C_2
REMARK    2  A    between atoms: C_4  and  C_5
REMARK    3  A    between atoms: N_13  and  C_14
REMARK    4  A    between atoms: C_17  and  C_18
REMARK    5  A    between atoms: C_20  and  C_21
REMARK                            x       y       z     vdW  Elec       q    Type
REMARK                         _______ _______ _______ _____ _____    ______ ____
ROOT
ATOM      1  C   UNL     1      -0.515  11.390  19.006  0.00  0.00    +0.000 C 
ATOM      2  C   UNL     1      -0.548  10.620  20.472  0.00  0.00    +0.000 C 
ATOM      3  C   UNL     1      -1.386  11.848  20.909  0.00  0.00    +0.000 C 
ATOM      4  C   UNL     1      -1.461  11.835  22.379  0.00  0.00    +0.000 C 
ATOM      5  N   UNL     1      -0.515  11.131  22.882  0.00  0.00    +0.000 NA
ATOM      6  N   UNL     1       0.194  10.669  21.804  0.00  0.00    +0.000 N 
ATOM      7  S   UNL     1       0.872   9.192  22.255  0.00  0.00    +0.000 S 
ATOM      8  O   UNL     1       2.282   9.289  22.929  0.00  0.00    +0.000 OA
ATOM      9  N   UNL     1       0.962   8.611  20.722  0.00  0.00    +0.000 N 
ATOM     10  C   UNL     1       0.610   9.633  19.843  0.00  0.00    +0.000 C 
ATOM     11  O   UNL     1       1.155   9.722  18.740  0.00  0.00    +0.000 OA
ENDROOT
BRANCH   9  12
ATOM     12  C   UNL     1       1.659   7.434  20.316  0.00  0.00    +0.000 A 
ATOM     13  C   UNL     1       1.466   6.241  21.030  0.00  0.00    +0.000 A 
ATOM     14  C   UNL     1       2.102   5.054  20.670  0.00  0.00    +0.000 A 
ATOM     15  C   UNL     1       2.980   5.021  19.585  0.00  0.00    +0.000 A 
ATOM     16  C   UNL     1       3.239   6.200  18.872  0.00  0.00    +0.000 A 
ATOM     17  C   UNL     1       2.585   7.400  19.261  0.00  0.00    +0.000 A 
BRANCH  16  18
ATOM     18  C   UNL     1       4.178   6.261  17.685  0.00  0.00    +0.000 C 
ATOM     19  F   UNL     1       5.494   6.145  17.990  0.00  0.00    +0.000 F 
ATOM     20  F   UNL     1       3.919   5.282  16.780  0.00  0.00    +0.000 F 
ATOM     21  F   UNL     1       4.057   7.439  17.013  0.00  0.00    +0.000 F 
ENDBRANCH  16  18
BRANCH  15  22
ATOM     22  C   UNL     1       3.576   3.759  19.267  0.00  0.00    +0.000 C 
ATOM     23  N   UNL     1       4.032   2.735  18.966  0.00  0.00    +0.000 NA
ENDBRANCH  15  22
ENDBRANCH   9  12
BRANCH   4  24
ATOM     24  C   UNL     1      -2.503  12.629  23.110  0.00  0.00    +0.000 C 
ATOM     25  F   UNL     1      -3.237  11.841  23.945  0.00  0.00    +0.000 F 
ATOM     26  F   UNL     1      -1.957  13.597  23.891  0.00  0.00    +0.000 F 
ATOM     27  F   UNL     1      -3.390  13.234  22.280  0.00  0.00    +0.000 F 
ENDBRANCH   4  24
TORSDOF 4
ENDMDL
MODEL 3
REMARK VINA RESULT:      -7.6      1.664      2.212
REMARK  Name = 
REMARK  5 active torsions:
REMARK  status: ('A' for Active; 'I' for Inactive)
REMARK    1  A    between atoms: C_1  and  C_2
REMARK    2  A    between atoms: C_4  and  C_5
REMARK    3  A    between atoms: N_13  and  C_14
REMARK    4  A    between atoms: C_17  and  C_18
REMARK    5  A    between atoms: C_20  and  C_21
REMARK                            x       y       z     vdW  Elec       q    Type
REMARK                         _______ _______ _______ _____ _____    ______ ____
ROOT
ATOM      1  C   UNL     1      -0.705  12.696  19.414  0.00  0.00    +0.000 C 
ATOM      2  C   UNL     1      -0.825  11.512  20.566  0.00  0.00    +0.000 C 
ATOM      3  C   UNL     1      -1.748  12.533  21.277  0.00  0.00    +0.000 C 
ATOM      4  C   UNL     1      -1.944  12.068  22.660  0.00  0.00    +0.000 C 
ATOM      5  N   UNL     1      -1.013  11.258  23.010  0.00  0.00    +0.000 NA
ATOM      6  N   UNL     1      -0.199  11.161  21.912  0.00  0.00    +0.000 N 
ATOM      7  S   UNL     1       0.503   9.628  21.951  0.00  0.00    +0.000 S 
ATOM      8  O   UNL     1       1.847   9.535  22.749  0.00  0.00    +0.000 OA
ATOM      9  N   UNL     1       0.744   9.547  20.330  0.00  0.00    +0.000 N 
ATOM     10  C   UNL     1       0.423  10.785  19.776  0.00  0.00    +0.000 C 
ATOM     11  O   UNL     1       1.052  11.217  18.807  0.00  0.00    +0.000 OA
ENDROOT
BRANCH   9  12
ATOM     12  C   UNL     1       1.523   8.564  19.650  0.00  0.00    +0.000 A 
ATOM     13  C   UNL     1       2.047   8.860  18.382  0.00  0.00    +0.000 A 
ATOM     14  C   UNL     1       2.833   7.949  17.677  0.00  0.00    +0.000 A 
ATOM     15  C   UNL     1       3.106   6.688  18.209  0.00  0.00    +0.000 A 
ATOM     16  C   UNL     1       2.564   6.332  19.452  0.00  0.00    +0.000 A 
ATOM     17  C   UNL     1       1.760   7.273  20.150  0.00  0.00    +0.000 A 
BRANCH  16  18
ATOM     18  C   UNL     1       2.802   4.987  20.106  0.00  0.00    +0.000 C 
ATOM     19  F   UNL     1       2.167   3.943  19.518  0.00  0.00    +0.000 F 
ATOM     20  F   UNL     1       4.120   4.656  20.124  0.00  0.00    +0.000 F 
ATOM     21  F   UNL     1       2.394   4.983  21.404  0.00  0.00    +0.000 F 
ENDBRANCH  16  18
BRANCH  15  22
ATOM     22  C   UNL     1       3.937   5.819  17.432  0.00  0.00    +0.000 C 
ATOM     23  N   UNL     1       4.610   5.082  16.842  0.00  0.00    +0.000 NA
ENDBRANCH  15  22
ENDBRANCH   9  12
BRANCH   4  24
ATOM     24  C   UNL     1      -3.076  12.582  23.499  0.00  0.00    +0.000 C 
ATOM     25  F   UNL     1      -4.101  13.043  22.727  0.00  0.00    +0.000 F 
ATOM     26  F   UNL     1      -3.609  11.617  24.292  0.00  0.00    +0.000 F 
ATOM     27  F   UNL     1      -2.715  13.612  24.306  0.00  0.00    +0.000 F 
ENDBRANCH   4  24
TORSDOF 4
ENDMDL
MODEL 4
REMARK VINA RESULT:      -7.6      1.742      2.428
REMARK  Name = 
REMARK  5 active torsions:
REMARK  status: ('A' for Active; 'I' for Inactive)
REMARK    1  A    between atoms: C_1  and  C_2
REMARK    2  A    between atoms: C_4  and  C_5
REMARK    3  A    between atoms: N_13  and  C_14
REMARK    4  A    between atoms: C_17  and  C_18
REMARK    5  A    between atoms: C_20  and  C_21
REMARK                            x       y       z     vdW  Elec       q    Type
REMARK                         _______ _______ _______ _____ _____    ______ ____
ROOT
ATOM      1  C   UNL     1      -0.707  12.947  19.567  0.00  0.00    +0.000 C 
ATOM      2  C   UNL     1      -0.933  11.689  20.620  0.00  0.00    +0.000 C 
ATOM      3  C   UNL     1      -1.883  12.681  21.336  0.00  0.00    +0.000 C 
ATOM      4  C   UNL     1      -2.186  12.126  22.665  0.00  0.00    +0.000 C 
ATOM      5  N   UNL     1      -1.299  11.270  23.020  0.00  0.00    +0.000 NA
ATOM      6  N   UNL     1      -0.411  11.229  21.977  0.00  0.00    +0.000 N 
ATOM      7  S   UNL     1       0.255   9.680  21.956  0.00  0.00    +0.000 S 
ATOM      8  O   UNL     1       1.536   9.497  22.837  0.00  0.00    +0.000 OA
ATOM      9  N   UNL     1       0.609   9.706  20.354  0.00  0.00    +0.000 N 
ATOM     10  C   UNL     1       0.353  10.987  19.868  0.00  0.00    +0.000 C 
ATOM     11  O   UNL     1       1.059  11.469  18.979  0.00  0.00    +0.000 OA
ENDROOT
BRANCH   9  12
ATOM     12  C   UNL     1       1.414   8.753  19.661  0.00  0.00    +0.000 A 
ATOM     13  C   UNL     1       1.937   9.083  18.401  0.00  0.00    +0.000 A 
ATOM     14  C   UNL     1       2.747   8.203  17.685  0.00  0.00    +0.000 A 
ATOM     15  C   UNL     1       3.047   6.940  18.197  0.00  0.00    +0.000 A 
ATOM     16  C   UNL     1       2.508   6.550  19.431  0.00  0.00    +0.000 A 
ATOM     17  C   UNL     1       1.679   7.460  20.141  0.00  0.00    +0.000 A 
BRANCH  16  18
ATOM     18  C   UNL     1       2.775   5.200  20.063  0.00  0.00    +0.000 C 
ATOM     19  F   UNL     1       4.084   4.855  20.147  0.00  0.00    +0.000 F 
ATOM     20  F   UNL     1       2.290   5.126  21.330  0.00  0.00    +0.000 F 
ATOM     21  F   UNL     1       2.174   4.195  19.369  0.00  0.00    +0.000 F 
ENDBRANCH  16  18
BRANCH  15  22
ATOM     22  C   UNL     1       3.903   6.104  17.410  0.00  0.00    +0.000 C 
ATOM     23  N   UNL     1       4.631   5.462  16.775  0.00  0.00    +0.000 NA
ENDBRANCH  15  22
ENDBRANCH   9  12
BRANCH   4  24
ATOM     24  C   UNL     1      -3.364  12.609  23.458  0.00  0.00    +0.000 C 
ATOM     25  F   UNL     1      -3.102  13.800  24.066  0.00  0.00    +0.000 F 
ATOM     26  F   UNL     1      -4.458  12.817  22.680  0.00  0.00    +0.000 F 
ATOM     27  F   UNL     1      -3.730  11.751  24.444  0.00  0.00    +0.000 F 
ENDBRANCH   4  24
TORSDOF 4
ENDMDL
MODEL 5
REMARK VINA RESULT:      -7.5      1.687      2.301
REMARK  Name = 
REMARK  5 active torsions:
REMARK  status: ('A' for Active; 'I' for Inactive)
REMARK    1  A    between atoms: C_1  and  C_2
REMARK    2  A    between atoms: C_4  and  C_5
REMARK    3  A    between atoms: N_13  and  C_14
REMARK    4  A    between atoms: C_17  and  C_18
REMARK    5  A    between atoms: C_20  and  C_21
REMARK                            x       y       z     vdW  Elec       q    Type
REMARK                         _______ _______ _______ _____ _____    ______ ____
ROOT
ATOM      1  C   UNL     1      -0.463  12.071  19.158  0.00  0.00    +0.000 C 
ATOM      2  C   UNL     1      -0.557  11.054  20.462  0.00  0.00    +0.000 C 
ATOM      3  C   UNL     1      -1.417  12.189  21.072  0.00  0.00    +0.000 C 
ATOM      4  C   UNL     1      -1.557  11.916  22.511  0.00  0.00    +0.000 C 
ATOM      5  N   UNL     1      -0.631  11.130  22.923  0.00  0.00    +0.000 NA
ATOM      6  N   UNL     1       0.126  10.863  21.813  0.00  0.00    +0.000 N 
ATOM      7  S   UNL     1       0.788   9.326  22.024  0.00  0.00    +0.000 S 
ATOM      8  O   UNL     1       2.167   9.296  22.765  0.00  0.00    +0.000 OA
ATOM      9  N   UNL     1       0.947   9.025  20.418  0.00  0.00    +0.000 N 
ATOM     10  C   UNL     1       0.631  10.188  19.719  0.00  0.00    +0.000 C 
ATOM     11  O   UNL     1       1.223  10.468  18.674  0.00  0.00    +0.000 OA
ENDROOT
BRANCH   9  12
ATOM     12  C   UNL     1       1.665   7.935  19.841  0.00  0.00    +0.000 A 
ATOM     13  C   UNL     1       2.326   8.121  18.617  0.00  0.00    +0.000 A 
ATOM     14  C   UNL     1       3.061   7.103  18.013  0.00  0.00    +0.000 A 
ATOM     15  C   UNL     1       3.144   5.842  18.606  0.00  0.00    +0.000 A 
ATOM     16  C   UNL     1       2.461   5.597  19.805  0.00  0.00    +0.000 A 
ATOM     17  C   UNL     1       1.713   6.648  20.400  0.00  0.00    +0.000 A 
BRANCH  16  18
ATOM     18  C   UNL     1       2.490   4.261  20.518  0.00  0.00    +0.000 C 
ATOM     19  F   UNL     1       2.202   4.312  21.842  0.00  0.00    +0.000 F 
ATOM     20  F   UNL     1       1.609   3.378  19.981  0.00  0.00    +0.000 F 
ATOM     21  F   UNL     1       3.715   3.674  20.430  0.00  0.00    +0.000 F 
ENDBRANCH  16  18
BRANCH  15  22
ATOM     22  C   UNL     1       3.936   4.856  17.933  0.00  0.00    +0.000 C 
ATOM     23  N   UNL     1       4.539   4.024  17.394  0.00  0.00    +0.000 NA
ENDBRANCH  15  22
ENDBRANCH   9  12
BRANCH   4  24
ATOM     24  C   UNL     1      -2.632  12.574  23.325  0.00  0.00    +0.000 C 
ATOM     25  F   UNL     1      -2.115  13.507  24.174  0.00  0.00    +0.000 F 
ATOM     26  F   UNL     1      -3.535  13.228  22.551  0.00  0.00    +0.000 F 
ATOM     27  F   UNL     1      -3.323  11.699  24.099  0.00  0.00    +0.000 F 
ENDBRANCH   4  24
TORSDOF 4
ENDMDL
MODEL 6
REMARK VINA RESULT:      -7.4      1.917      2.708
REMARK  Name = 
REMARK  5 active torsions:
REMARK  status: ('A' for Active; 'I' for Inactive)
REMARK    1  A    between atoms: C_1  and  C_2
REMARK    2  A    between atoms: C_4  and  C_5
REMARK    3  A    between atoms: N_13  and  C_14
REMARK    4  A    between atoms: C_17  and  C_18
REMARK    5  A    between atoms: C_20  and  C_21
REMARK                            x       y       z     vdW  Elec       q    Type
REMARK                         _______ _______ _______ _____ _____    ______ ____
ROOT
ATOM      1  C   UNL     1      -1.155  13.407  20.115  0.00  0.00    +0.000 C 
ATOM      2  C   UNL     1      -1.402  12.046  21.026  0.00  0.00    +0.000 C 
ATOM      3  C   UNL     1      -2.399  12.948  21.796  0.00  0.00    +0.000 C 
ATOM      4  C   UNL     1      -2.747  12.257  23.048  0.00  0.00    +0.000 C 
ATOM      5  N   UNL     1      -1.861  11.382  23.354  0.00  0.00    +0.000 NA
ATOM      6  N   UNL     1      -0.929  11.458  22.352  0.00  0.00    +0.000 N 
ATOM      7  S   UNL     1      -0.237   9.928  22.203  0.00  0.00    +0.000 S 
ATOM      8  O   UNL     1       1.010   9.674  23.116  0.00  0.00    +0.000 OA
ATOM      9  N   UNL     1       0.183  10.121  20.629  0.00  0.00    +0.000 N 
ATOM     10  C   UNL     1      -0.074  11.440  20.263  0.00  0.00    +0.000 C 
ATOM     11  O   UNL     1       0.659  12.019  19.458  0.00  0.00    +0.000 OA
ENDROOT
BRANCH   9  12
ATOM     12  C   UNL     1       1.032   9.253  19.879  0.00  0.00    +0.000 A 
ATOM     13  C   UNL     1       1.543   9.688  18.646  0.00  0.00    +0.000 A 
ATOM     14  C   UNL     1       2.394   8.895  17.878  0.00  0.00    +0.000 A 
ATOM     15  C   UNL     1       2.751   7.616  18.308  0.00  0.00    +0.000 A 
ATOM     16  C   UNL     1       2.228   7.122  19.511  0.00  0.00    +0.000 A 
ATOM     17  C   UNL     1       1.357   7.945  20.275  0.00  0.00    +0.000 A 
BRANCH  16  18
ATOM     18  C   UNL     1       2.556   5.747  20.055  0.00  0.00    +0.000 C 
ATOM     19  F   UNL     1       2.080   5.495  21.300  0.00  0.00    +0.000 F 
ATOM     20  F   UNL     1       2.066   4.756  19.264  0.00  0.00    +0.000 F 
ATOM     21  F   UNL     1       3.900   5.545  20.126  0.00  0.00    +0.000 F 
ENDBRANCH  16  18
BRANCH  15  22
ATOM     22  C   UNL     1       3.646   6.873  17.472  0.00  0.00    +0.000 C 
ATOM     23  N   UNL     1       4.409   6.300  16.813  0.00  0.00    +0.000 NA
ENDBRANCH  15  22
ENDBRANCH   9  12
BRANCH   4  24
ATOM     24  C   UNL     1      -3.966  12.643  23.834  0.00  0.00    +0.000 C 
ATOM     25  F   UNL     1      -3.828  13.878  24.394  0.00  0.00    +0.000 F 
ATOM     26  F   UNL     1      -5.080  12.703  23.060  0.00  0.00    +0.000 F 
ATOM     27  F   UNL     1      -4.231  11.790  24.856  0.00  0.00    +0.000 F 
ENDBRANCH   4  24
TORSDOF 4
ENDMDL
MODEL 7
REMARK VINA RESULT:      -7.4      1.764      2.294
REMARK  Name = 
REMARK  5 active torsions:
REMARK  status: ('A' for Active; 'I' for Inactive)
REMARK    1  A    between atoms: C_1  and  C_2
REMARK    2  A    between atoms: C_4  and  C_5
REMARK    3  A    between atoms: N_13  and  C_14
REMARK    4  A    between atoms: C_17  and  C_18
REMARK    5  A    between atoms: C_20  and  C_21
REMARK                            x       y       z     vdW  Elec       q    Type
REMARK                         _______ _______ _______ _____ _____    ______ ____
ROOT
ATOM      1  C   UNL     1      -0.597  11.585  19.017  0.00  0.00    +0.000 C 
ATOM      2  C   UNL     1      -0.588  10.710  20.423  0.00  0.00    +0.000 C 
ATOM      3  C   UNL     1      -1.443  11.885  20.962  0.00  0.00    +0.000 C 
ATOM      4  C   UNL     1      -1.492  11.764  22.427  0.00  0.00    +0.000 C 
ATOM      5  N   UNL     1      -0.522  11.046  22.863  0.00  0.00    +0.000 NA
ATOM      6  N   UNL     1       0.177  10.678  21.743  0.00  0.00    +0.000 N 
ATOM      7  S   UNL     1       0.892   9.187  22.074  0.00  0.00    +0.000 S 
ATOM      8  O   UNL     1       2.312   9.266  22.731  0.00  0.00    +0.000 OA
ATOM      9  N   UNL     1       0.967   8.721  20.502  0.00  0.00    +0.000 N 
ATOM     10  C   UNL     1       0.579   9.796  19.706  0.00  0.00    +0.000 C 
ATOM     11  O   UNL     1       1.102   9.976  18.603  0.00  0.00    +0.000 OA
ENDROOT
BRANCH   9  12
ATOM     12  C   UNL     1       1.680   7.592  20.000  0.00  0.00    +0.000 A 
ATOM     13  C   UNL     1       2.573   7.765  18.930  0.00  0.00    +0.000 A 
ATOM     14  C   UNL     1       3.314   6.706  18.409  0.00  0.00    +0.000 A 
ATOM     15  C   UNL     1       3.172   5.418  18.929  0.00  0.00    +0.000 A 
ATOM     16  C   UNL     1       2.258   5.190  19.967  0.00  0.00    +0.000 A 
ATOM     17  C   UNL     1       1.508   6.283  20.478  0.00  0.00    +0.000 A 
BRANCH  16  18
ATOM     18  C   UNL     1       2.034   3.828  20.591  0.00  0.00    +0.000 C 
ATOM     19  F   UNL     1       3.117   3.297  21.211  0.00  0.00    +0.000 F 
ATOM     20  F   UNL     1       1.047   3.852  21.523  0.00  0.00    +0.000 F 
ATOM     21  F   UNL     1       1.654   2.909  19.661  0.00  0.00    +0.000 F 
ENDBRANCH  16  18
BRANCH  15  22
ATOM     22  C   UNL     1       3.985   4.389  18.353  0.00  0.00    +0.000 C 
ATOM     23  N   UNL     1       4.601   3.534  17.868  0.00  0.00    +0.000 NA
ENDBRANCH  15  22
ENDBRANCH   9  12
BRANCH   4  24
ATOM     24  C   UNL     1      -2.536  12.480  23.231  0.00  0.00    +0.000 C 
ATOM     25  F   UNL     1      -3.453  13.091  22.428  0.00  0.00    +0.000 F 
ATOM     26  F   UNL     1      -3.240  11.636  24.029  0.00  0.00    +0.000 F 
ATOM     27  F   UNL     1      -2.022  13.451  24.027  0.00  0.00    +0.000 F 
ENDBRANCH   4  24
TORSDOF 4
ENDMDL
MODEL 8
REMARK VINA RESULT:      -7.2      2.551      3.451
REMARK  Name = 
REMARK  5 active torsions:
REMARK  status: ('A' for Active; 'I' for Inactive)
REMARK    1  A    between atoms: C_1  and  C_2
REMARK    2  A    between atoms: C_4  and  C_5
REMARK    3  A    between atoms: N_13  and  C_14
REMARK    4  A    between atoms: C_17  and  C_18
REMARK    5  A    between atoms: C_20  and  C_21
REMARK                            x       y       z     vdW  Elec       q    Type
REMARK                         _______ _______ _______ _____ _____    ______ ____
ROOT
ATOM      1  C   UNL     1       0.753   9.014  22.417  0.00  0.00    +0.000 C 
ATOM      2  C   UNL     1       1.041   9.820  20.999  0.00  0.00    +0.000 C 
ATOM      3  C   UNL     1       0.329  10.993  21.718  0.00  0.00    +0.000 C 
ATOM      4  C   UNL     1       0.009  12.009  20.702  0.00  0.00    +0.000 C 
ATOM      5  N   UNL     1      -0.004  11.496  19.527  0.00  0.00    +0.000 NA
ATOM      6  N   UNL     1       0.297  10.172  19.715  0.00  0.00    +0.000 N 
ATOM      7  S   UNL     1       1.073   9.638  18.316  0.00  0.00    +0.000 S 
ATOM      8  O   UNL     1       0.121   9.091  17.199  0.00  0.00    +0.000 OA
ATOM      9  N   UNL     1       1.894   8.433  19.068  0.00  0.00    +0.000 N 
ATOM     10  C   UNL     1       1.441   8.346  20.383  0.00  0.00    +0.000 C 
ATOM     11  O   UNL     1       1.373   7.252  20.948  0.00  0.00    +0.000 OA
ENDROOT
BRANCH   9  12
ATOM     12  C   UNL     1       2.626   7.392  18.422  0.00  0.00    +0.000 A 
ATOM     13  C   UNL     1       3.775   7.718  17.683  0.00  0.00    +0.000 A 
ATOM     14  C   UNL     1       4.543   6.745  17.047  0.00  0.00    +0.000 A 
ATOM     15  C   UNL     1       4.175   5.399  17.108  0.00  0.00    +0.000 A 
ATOM     16  C   UNL     1       3.010   5.033  17.795  0.00  0.00    +0.000 A 
ATOM     17  C   UNL     1       2.238   6.043  18.431  0.00  0.00    +0.000 A 
BRANCH  16  18
ATOM     18  C   UNL     1       2.530   3.601  17.912  0.00  0.00    +0.000 C 
ATOM     19  F   UNL     1       2.308   2.974  16.730  0.00  0.00    +0.000 F 
ATOM     20  F   UNL     1       3.416   2.821  18.584  0.00  0.00    +0.000 F 
ATOM     21  F   UNL     1       1.358   3.521  18.598  0.00  0.00    +0.000 F 
ENDBRANCH  16  18
BRANCH  15  22
ATOM     22  C   UNL     1       5.029   4.459  16.446  0.00  0.00    +0.000 C 
ATOM     23  N   UNL     1       5.761   3.725  15.925  0.00  0.00    +0.000 NA
ENDBRANCH  15  22
ENDBRANCH   9  12
BRANCH   4  24
ATOM     24  C   UNL     1      -0.315  13.421  21.091  0.00  0.00    +0.000 C 
ATOM     25  F   UNL     1      -1.642  13.572  21.364  0.00  0.00    +0.000 F 
ATOM     26  F   UNL     1       0.346  13.810  22.213  0.00  0.00    +0.000 F 
ATOM     27  F   UNL     1      -0.022  14.321  20.119  0.00  0.00    +0.000 F 
ENDBRANCH   4  24
TORSDOF 4
ENDMDL
MODEL 9
REMARK VINA RESULT:      -7.0      2.404      3.226
REMARK  Name = 
REMARK  5 active torsions:
REMARK  status: ('A' for Active; 'I' for Inactive)
REMARK    1  A    between atoms: C_1  and  C_2
REMARK    2  A    between atoms: C_4  and  C_5
REMARK    3  A    between atoms: N_13  and  C_14
REMARK    4  A    between atoms: C_17  and  C_18
REMARK    5  A    between atoms: C_20  and  C_21
REMARK                            x       y       z     vdW  Elec       q    Type
REMARK                         _______ _______ _______ _____ _____    ______ ____
ROOT
ATOM      1  C   UNL     1       0.486   9.264  22.651  0.00  0.00    +0.000 C 
ATOM      2  C   UNL     1       0.774  10.064  21.229  0.00  0.00    +0.000 C 
ATOM      3  C   UNL     1       0.056  11.238  21.941  0.00  0.00    +0.000 C 
ATOM      4  C   UNL     1      -0.266  12.247  20.919  0.00  0.00    +0.000 C 
ATOM      5  N   UNL     1      -0.275  11.729  19.746  0.00  0.00    +0.000 NA
ATOM      6  N   UNL     1       0.031  10.407  19.942  0.00  0.00    +0.000 N 
ATOM      7  S   UNL     1       0.812   9.868  18.547  0.00  0.00    +0.000 S 
ATOM      8  O   UNL     1      -0.135   9.312  17.431  0.00  0.00    +0.000 OA
ATOM      9  N   UNL     1       1.637   8.671  19.308  0.00  0.00    +0.000 N 
ATOM     10  C   UNL     1       1.181   8.589  20.622  0.00  0.00    +0.000 C 
ATOM     11  O   UNL     1       1.116   7.497  21.192  0.00  0.00    +0.000 OA
ENDROOT
BRANCH   9  12
ATOM     12  C   UNL     1       2.374   7.630  18.668  0.00  0.00    +0.000 A 
ATOM     13  C   UNL     1       3.485   7.962  17.877  0.00  0.00    +0.000 A 
ATOM     14  C   UNL     1       4.258   6.990  17.244  0.00  0.00    +0.000 A 
ATOM     15  C   UNL     1       3.931   5.638  17.362  0.00  0.00    +0.000 A 
ATOM     16  C   UNL     1       2.803   5.263  18.104  0.00  0.00    +0.000 A 
ATOM     17  C   UNL     1       2.026   6.271  18.736  0.00  0.00    +0.000 A 
BRANCH  16  18
ATOM     18  C   UNL     1       2.370   3.823  18.285  0.00  0.00    +0.000 C 
ATOM     19  F   UNL     1       1.212   3.655  18.970  0.00  0.00    +0.000 F 
ATOM     20  F   UNL     1       2.191   3.192  17.095  0.00  0.00    +0.000 F 
ATOM     21  F   UNL     1       3.305   3.100  18.959  0.00  0.00    +0.000 F 
ENDBRANCH  16  18
BRANCH  15  22
ATOM     22  C   UNL     1       4.787   4.700  16.699  0.00  0.00    +0.000 C 
ATOM     23  N   UNL     1       5.474   3.909  16.201  0.00  0.00    +0.000 NA
ENDBRANCH  15  22
ENDBRANCH   9  12
BRANCH   4  24
ATOM     24  C   UNL     1      -0.597  13.660  21.300  0.00  0.00    +0.000 C 
ATOM     25  F   UNL     1      -0.443  14.510  20.246  0.00  0.00    +0.000 F 
ATOM     26  F   UNL     1      -1.886  13.795  21.706  0.00  0.00    +0.000 F 
ATOM     27  F   UNL     1       0.191  14.141  22.295  0.00  0.00    +0.000 F 
ENDBRANCH   4  24
TORSDOF 4
ENDMDL
