MODEL 1
REMARK VINA RESULT:      -7.1      0.000      0.000
REMARK  Name = 
REMARK  9 active torsions:
REMARK  status: ('A' for Active; 'I' for Inactive)
REMARK    1  A    between atoms: C_1  and  C_2
REMARK    2  A    between atoms: C_2  and  C_3
REMARK    3  A    between atoms: C_3  and  S_4
REMARK    4  A    between atoms: S_4  and  C_5
REMARK    5  A    between atoms: N_8  and  C_9
REMARK    6  A    between atoms: C_14  and  O_15
REMARK    7  A    between atoms: O_15  and  C_16
REMARK    8  A    between atoms: N_22  and  C_23
REMARK    9  A    between atoms: C_23  and  C_24
REMARK                            x       y       z     vdW  Elec       q    Type
REMARK                         _______ _______ _______ _____ _____    ______ ____
ROOT
ATOM      1  C   UNL     1       2.630   4.298  17.895  0.00  0.00    +0.000 A 
ATOM      2  N   UNL     1       2.353   5.422  18.564  0.00  0.00    +0.000 NA
ATOM      3  C   UNL     1       3.282   6.400  18.544  0.00  0.00    +0.000 A 
ATOM      4  N   UNL     1       3.070   7.605  19.247  0.00  0.00    +0.000 N 
ATOM      5  C   UNL     1       4.471   6.285  17.823  0.00  0.00    +0.000 A 
ATOM      6  N   UNL     1       5.419   7.340  17.830  0.00  0.00    +0.000 NA
ATOM      7  C   UNL     1       6.459   7.185  17.073  0.00  0.00    +0.000 A 
ATOM      8  C   UNL     1       6.716   5.965  16.226  0.00  0.00    +0.000 A 
ATOM      9  O   UNL     1       7.717   5.979  15.522  0.00  0.00    +0.000 OA
ATOM     10  N   UNL     1       5.803   4.936  16.344  0.00  0.00    +0.000 N 
ATOM     11  C   UNL     1       4.635   5.092  17.133  0.00  0.00    +0.000 A 
ATOM     12  N   UNL     1       3.745   4.087  17.179  0.00  0.00    +0.000 NA
ATOM     13  H   UNL     1       3.929   8.118  19.396  0.00  0.00    +0.000 HD
ENDROOT
BRANCH   4  14
ATOM     14  C   UNL     1       1.876   8.162  19.719  0.00  0.00    +0.000 A 
ATOM     15  C   UNL     1       1.334   7.654  20.919  0.00  0.00    +0.000 A 
ATOM     16  C   UNL     1       0.211   8.221  21.521  0.00  0.00    +0.000 A 
ATOM     17  C   UNL     1      -0.382   9.330  20.945  0.00  0.00    +0.000 A 
ATOM     18  C   UNL     1       0.131   9.852  19.756  0.00  0.00    +0.000 A 
ATOM     19  C   UNL     1       1.240   9.267  19.124  0.00  0.00    +0.000 A 
BRANCH  19  20
ATOM     20  O   UNL     1       1.633   9.968  18.011  0.00  0.00    +0.000 OA
ATOM     21  C   UNL     1       1.987  11.332  18.173  0.00  0.00    +0.000 C 
ENDBRANCH  19  20
ENDBRANCH   4  14
BRANCH   1  22
ATOM     22  S   UNL     1       1.511   2.931  18.043  0.00  0.00    +0.000 S 
BRANCH  22  23
ATOM     23  C   UNL     1       0.729   3.344  19.635  0.00  0.00    +0.000 C 
BRANCH  23  25
ATOM     24  C   UNL     1       2.222   3.535  21.673  0.00  0.00    +0.000 C 
ATOM     25  C   UNL     1       1.451   2.595  20.755  0.00  0.00    +0.000 C 
ENDBRANCH  23  25
ENDBRANCH  22  23
ENDBRANCH   1  22
BRANCH  10  26
ATOM     26  C   UNL     1       6.039   3.671  15.670  0.00  0.00    +0.000 C 
BRANCH  26  27
ATOM     27  C   UNL     1       5.947   3.729  14.161  0.00  0.00    +0.000 A 
ATOM     28  C   UNL     1       7.094   3.876  13.369  0.00  0.00    +0.000 A 
ATOM     29  C   UNL     1       7.011   3.803  11.977  0.00  0.00    +0.000 A 
ATOM     30  C   UNL     1       5.782   3.579  11.362  0.00  0.00    +0.000 A 
ATOM     31  C   UNL     1       4.629   3.455  12.136  0.00  0.00    +0.000 A 
ATOM     32  C   UNL     1       4.709   3.538  13.527  0.00  0.00    +0.000 A 
ENDBRANCH  26  27
ENDBRANCH  10  26
TORSDOF 7
ENDMDL
MODEL 2
REMARK VINA RESULT:      -7.0      5.777     11.678
REMARK  Name = 
REMARK  9 active torsions:
REMARK  status: ('A' for Active; 'I' for Inactive)
REMARK    1  A    between atoms: C_1  and  C_2
REMARK    2  A    between atoms: C_2  and  C_3
REMARK    3  A    between atoms: C_3  and  S_4
REMARK    4  A    between atoms: S_4  and  C_5
REMARK    5  A    between atoms: N_8  and  C_9
REMARK    6  A    between atoms: C_14  and  O_15
REMARK    7  A    between atoms: O_15  and  C_16
REMARK    8  A    between atoms: N_22  and  C_23
REMARK    9  A    between atoms: C_23  and  C_24
REMARK                            x       y       z     vdW  Elec       q    Type
REMARK                         _______ _______ _______ _____ _____    ______ ____
ROOT
ATOM      1  C   UNL     1      -2.968  11.322  18.900  0.00  0.00    +0.000 A 
ATOM      2  N   UNL     1      -1.719  10.847  18.935  0.00  0.00    +0.000 NA
ATOM      3  C   UNL     1      -0.856  11.436  19.787  0.00  0.00    +0.000 A 
ATOM      4  N   UNL     1       0.486  11.004  19.861  0.00  0.00    +0.000 N 
ATOM      5  C   UNL     1      -1.238  12.471  20.640  0.00  0.00    +0.000 A 
ATOM      6  N   UNL     1      -0.296  13.061  21.521  0.00  0.00    +0.000 NA
ATOM      7  C   UNL     1      -0.752  13.961  22.333  0.00  0.00    +0.000 A 
ATOM      8  C   UNL     1      -2.188  14.415  22.375  0.00  0.00    +0.000 A 
ATOM      9  O   UNL     1      -2.485  15.239  23.231  0.00  0.00    +0.000 OA
ATOM     10  N   UNL     1      -3.028  13.872  21.424  0.00  0.00    +0.000 N 
ATOM     11  C   UNL     1      -2.569  12.857  20.548  0.00  0.00    +0.000 A 
ATOM     12  N   UNL     1      -3.433  12.315  19.673  0.00  0.00    +0.000 NA
ATOM     13  H   UNL     1       1.085  11.690  20.299  0.00  0.00    +0.000 HD
ENDROOT
BRANCH   4  14
ATOM     14  C   UNL     1       1.056   9.795  19.445  0.00  0.00    +0.000 A 
ATOM     15  C   UNL     1       1.643   9.743  18.162  0.00  0.00    +0.000 A 
ATOM     16  C   UNL     1       2.330   8.618  17.710  0.00  0.00    +0.000 A 
ATOM     17  C   UNL     1       2.468   7.524  18.545  0.00  0.00    +0.000 A 
ATOM     18  C   UNL     1       1.895   7.546  19.818  0.00  0.00    +0.000 A 
ATOM     19  C   UNL     1       1.171   8.661  20.270  0.00  0.00    +0.000 A 
BRANCH  19  20
ATOM     20  O   UNL     1       0.752   8.517  21.569  0.00  0.00    +0.000 OA
ATOM     21  C   UNL     1       1.396   9.292  22.567  0.00  0.00    +0.000 C 
ENDBRANCH  19  20
ENDBRANCH   4  14
BRANCH   1  22
ATOM     22  S   UNL     1      -4.079  10.687  17.673  0.00  0.00    +0.000 S 
BRANCH  22  23
ATOM     23  C   UNL     1      -5.247  12.080  17.564  0.00  0.00    +0.000 C 
BRANCH  23  25
ATOM     24  C   UNL     1      -6.585  10.300  18.772  0.00  0.00    +0.000 C 
ATOM     25  C   UNL     1      -6.638  11.600  17.979  0.00  0.00    +0.000 C 
ENDBRANCH  23  25
ENDBRANCH  22  23
ENDBRANCH   1  22
BRANCH  10  26
ATOM     26  C   UNL     1      -4.395  14.349  21.302  0.00  0.00    +0.000 C 
BRANCH  26  27
ATOM     27  C   UNL     1      -5.426  13.515  22.030  0.00  0.00    +0.000 A 
ATOM     28  C   UNL     1      -5.356  13.322  23.417  0.00  0.00    +0.000 A 
ATOM     29  C   UNL     1      -6.379  12.656  24.094  0.00  0.00    +0.000 A 
ATOM     30  C   UNL     1      -7.485  12.180  23.394  0.00  0.00    +0.000 A 
ATOM     31  C   UNL     1      -7.557  12.343  22.012  0.00  0.00    +0.000 A 
ATOM     32  C   UNL     1      -6.530  12.999  21.332  0.00  0.00    +0.000 A 
ENDBRANCH  26  27
ENDBRANCH  10  26
TORSDOF 7
ENDMDL
MODEL 3
REMARK VINA RESULT:      -6.9      5.934     11.720
REMARK  Name = 
REMARK  9 active torsions:
REMARK  status: ('A' for Active; 'I' for Inactive)
REMARK    1  A    between atoms: C_1  and  C_2
REMARK    2  A    between atoms: C_2  and  C_3
REMARK    3  A    between atoms: C_3  and  S_4
REMARK    4  A    between atoms: S_4  and  C_5
REMARK    5  A    between atoms: N_8  and  C_9
REMARK    6  A    between atoms: C_14  and  O_15
REMARK    7  A    between atoms: O_15  and  C_16
REMARK    8  A    between atoms: N_22  and  C_23
REMARK    9  A    between atoms: C_23  and  C_24
REMARK                            x       y       z     vdW  Elec       q    Type
REMARK                         _______ _______ _______ _____ _____    ______ ____
ROOT
ATOM      1  C   UNL     1      -2.955  11.821  19.112  0.00  0.00    +0.000 A 
ATOM      2  N   UNL     1      -1.737  11.276  19.184  0.00  0.00    +0.000 NA
ATOM      3  C   UNL     1      -0.900  11.754  20.127  0.00  0.00    +0.000 A 
ATOM      4  N   UNL     1       0.411  11.244  20.248  0.00  0.00    +0.000 N 
ATOM      5  C   UNL     1      -1.281  12.745  21.031  0.00  0.00    +0.000 A 
ATOM      6  N   UNL     1      -0.366  13.218  22.007  0.00  0.00    +0.000 NA
ATOM      7  C   UNL     1      -0.825  14.082  22.856  0.00  0.00    +0.000 A 
ATOM      8  C   UNL     1      -2.236  14.612  22.847  0.00  0.00    +0.000 A 
ATOM      9  O   UNL     1      -2.543  15.388  23.742  0.00  0.00    +0.000 OA
ATOM     10  N   UNL     1      -3.042  14.185  21.810  0.00  0.00    +0.000 N 
ATOM     11  C   UNL     1      -2.581  13.210  20.890  0.00  0.00    +0.000 A 
ATOM     12  N   UNL     1      -3.415  12.782  19.928  0.00  0.00    +0.000 NA
ATOM     13  H   UNL     1       1.017  11.862  20.770  0.00  0.00    +0.000 HD
ENDROOT
BRANCH   4  14
ATOM     14  C   UNL     1       0.943  10.038  19.778  0.00  0.00    +0.000 A 
ATOM     15  C   UNL     1       1.365   9.977  18.432  0.00  0.00    +0.000 A 
ATOM     16  C   UNL     1       2.008   8.855  17.910  0.00  0.00    +0.000 A 
ATOM     17  C   UNL     1       2.266   7.774  18.733  0.00  0.00    +0.000 A 
ATOM     18  C   UNL     1       1.857   7.805  20.068  0.00  0.00    +0.000 A 
ATOM     19  C   UNL     1       1.178   8.916  20.595  0.00  0.00    +0.000 A 
BRANCH  19  20
ATOM     20  O   UNL     1       0.928   8.783  21.938  0.00  0.00    +0.000 OA
ATOM     21  C   UNL     1      -0.424   8.799  22.368  0.00  0.00    +0.000 C 
ENDBRANCH  19  20
ENDBRANCH   4  14
BRANCH   1  22
ATOM     22  S   UNL     1      -4.018  11.338  17.778  0.00  0.00    +0.000 S 
BRANCH  22  23
ATOM     23  C   UNL     1      -3.354   9.674  17.443  0.00  0.00    +0.000 C 
BRANCH  23  25
ATOM     24  C   UNL     1      -3.045  10.935  15.268  0.00  0.00    +0.000 C 
ATOM     25  C   UNL     1      -2.937   9.590  15.975  0.00  0.00    +0.000 C 
ENDBRANCH  23  25
ENDBRANCH  22  23
ENDBRANCH   1  22
BRANCH  10  26
ATOM     26  C   UNL     1      -4.372  14.745  21.644  0.00  0.00    +0.000 C 
BRANCH  26  27
ATOM     27  C   UNL     1      -5.489  13.918  22.242  0.00  0.00    +0.000 A 
ATOM     28  C   UNL     1      -6.552  13.457  21.453  0.00  0.00    +0.000 A 
ATOM     29  C   UNL     1      -7.510  12.593  21.986  0.00  0.00    +0.000 A 
ATOM     30  C   UNL     1      -7.413  12.175  23.311  0.00  0.00    +0.000 A 
ATOM     31  C   UNL     1      -6.375  12.644  24.114  0.00  0.00    +0.000 A 
ATOM     32  C   UNL     1      -5.423  13.516  23.585  0.00  0.00    +0.000 A 
ENDBRANCH  26  27
ENDBRANCH  10  26
TORSDOF 7
ENDMDL
MODEL 4
REMARK VINA RESULT:      -6.8      5.576     11.346
REMARK  Name = 
REMARK  9 active torsions:
REMARK  status: ('A' for Active; 'I' for Inactive)
REMARK    1  A    between atoms: C_1  and  C_2
REMARK    2  A    between atoms: C_2  and  C_3
REMARK    3  A    between atoms: C_3  and  S_4
REMARK    4  A    between atoms: S_4  and  C_5
REMARK    5  A    between atoms: N_8  and  C_9
REMARK    6  A    between atoms: C_14  and  O_15
REMARK    7  A    between atoms: O_15  and  C_16
REMARK    8  A    between atoms: N_22  and  C_23
REMARK    9  A    between atoms: C_23  and  C_24
REMARK                            x       y       z     vdW  Elec       q    Type
REMARK                         _______ _______ _______ _____ _____    ______ ____
ROOT
ATOM      1  C   UNL     1      -2.856  10.881  18.311  0.00  0.00    +0.000 A 
ATOM      2  N   UNL     1      -1.594  10.469  18.470  0.00  0.00    +0.000 NA
ATOM      3  C   UNL     1      -0.835  11.132  19.366  0.00  0.00    +0.000 A 
ATOM      4  N   UNL     1       0.514  10.768  19.571  0.00  0.00    +0.000 N 
ATOM      5  C   UNL     1      -1.335  12.178  20.140  0.00  0.00    +0.000 A 
ATOM      6  N   UNL     1      -0.499  12.847  21.070  0.00  0.00    +0.000 NA
ATOM      7  C   UNL     1      -1.063  13.754  21.803  0.00  0.00    +0.000 A 
ATOM      8  C   UNL     1      -2.516  14.140  21.704  0.00  0.00    +0.000 A 
ATOM      9  O   UNL     1      -2.923  14.981  22.496  0.00  0.00    +0.000 OA
ATOM     10  N   UNL     1      -3.247  13.520  20.710  0.00  0.00    +0.000 N 
ATOM     11  C   UNL     1      -2.669  12.496  19.920  0.00  0.00    +0.000 A 
ATOM     12  N   UNL     1      -3.429  11.880  18.999  0.00  0.00    +0.000 NA
ATOM     13  H   UNL     1       1.042  11.498  20.029  0.00  0.00    +0.000 HD
ENDROOT
BRANCH   4  14
ATOM     14  C   UNL     1       1.171   9.573  19.257  0.00  0.00    +0.000 A 
ATOM     15  C   UNL     1       1.737   9.444  17.969  0.00  0.00    +0.000 A 
ATOM     16  C   UNL     1       2.504   8.337  17.608  0.00  0.00    +0.000 A 
ATOM     17  C   UNL     1       2.744   7.342  18.538  0.00  0.00    +0.000 A 
ATOM     18  C   UNL     1       2.194   7.442  19.818  0.00  0.00    +0.000 A 
ATOM     19  C   UNL     1       1.392   8.535  20.181  0.00  0.00    +0.000 A 
BRANCH  19  20
ATOM     20  O   UNL     1       1.009   8.484  21.498  0.00  0.00    +0.000 OA
ATOM     21  C   UNL     1      -0.378   8.419  21.787  0.00  0.00    +0.000 C 
ENDBRANCH  19  20
ENDBRANCH   4  14
BRANCH   1  22
ATOM     22  S   UNL     1      -3.827  10.146  17.023  0.00  0.00    +0.000 S 
BRANCH  22  23
ATOM     23  C   UNL     1      -2.995  10.856  15.566  0.00  0.00    +0.000 C 
BRANCH  23  25
ATOM     24  C   UNL     1      -2.649   9.521  13.441  0.00  0.00    +0.000 C 
ATOM     25  C   UNL     1      -3.641  10.295  14.299  0.00  0.00    +0.000 C 
ENDBRANCH  23  25
ENDBRANCH  22  23
ENDBRANCH   1  22
BRANCH  10  26
ATOM     26  C   UNL     1      -4.618  13.926  20.454  0.00  0.00    +0.000 C 
BRANCH  26  27
ATOM     27  C   UNL     1      -5.665  13.145  21.218  0.00  0.00    +0.000 A 
ATOM     28  C   UNL     1      -5.905  13.392  22.577  0.00  0.00    +0.000 A 
ATOM     29  C   UNL     1      -6.955  12.756  23.240  0.00  0.00    +0.000 A 
ATOM     30  C   UNL     1      -7.780  11.869  22.551  0.00  0.00    +0.000 A 
ATOM     31  C   UNL     1      -7.539  11.596  21.206  0.00  0.00    +0.000 A 
ATOM     32  C   UNL     1      -6.482  12.224  20.545  0.00  0.00    +0.000 A 
ENDBRANCH  26  27
ENDBRANCH  10  26
TORSDOF 7
ENDMDL
MODEL 5
REMARK VINA RESULT:      -6.6      6.157      9.800
REMARK  Name = 
REMARK  9 active torsions:
REMARK  status: ('A' for Active; 'I' for Inactive)
REMARK    1  A    between atoms: C_1  and  C_2
REMARK    2  A    between atoms: C_2  and  C_3
REMARK    3  A    between atoms: C_3  and  S_4
REMARK    4  A    between atoms: S_4  and  C_5
REMARK    5  A    between atoms: N_8  and  C_9
REMARK    6  A    between atoms: C_14  and  O_15
REMARK    7  A    between atoms: O_15  and  C_16
REMARK    8  A    between atoms: N_22  and  C_23
REMARK    9  A    between atoms: C_23  and  C_24
REMARK                            x       y       z     vdW  Elec       q    Type
REMARK                         _______ _______ _______ _____ _____    ______ ____
ROOT
ATOM      1  C   UNL     1      -3.394  11.748  18.534  0.00  0.00    +0.000 A 
ATOM      2  N   UNL     1      -4.138  12.390  19.439  0.00  0.00    +0.000 NA
ATOM      3  C   UNL     1      -3.517  12.825  20.555  0.00  0.00    +0.000 A 
ATOM      4  N   UNL     1      -4.242  13.491  21.566  0.00  0.00    +0.000 N 
ATOM      5  C   UNL     1      -2.147  12.663  20.757  0.00  0.00    +0.000 A 
ATOM      6  N   UNL     1      -1.535  13.137  21.946  0.00  0.00    +0.000 NA
ATOM      7  C   UNL     1      -0.248  13.016  22.020  0.00  0.00    +0.000 A 
ATOM      8  C   UNL     1       0.608  12.395  20.946  0.00  0.00    +0.000 A 
ATOM      9  O   UNL     1       1.818  12.394  21.131  0.00  0.00    +0.000 OA
ATOM     10  N   UNL     1      -0.063  11.865  19.861  0.00  0.00    +0.000 N 
ATOM     11  C   UNL     1      -1.466  12.018  19.734  0.00  0.00    +0.000 A 
ATOM     12  N   UNL     1      -2.074  11.535  18.637  0.00  0.00    +0.000 NA
ATOM     13  H   UNL     1      -3.748  13.502  22.448  0.00  0.00    +0.000 HD
ENDROOT
BRANCH   4  14
ATOM     14  C   UNL     1      -5.487  14.126  21.497  0.00  0.00    +0.000 A 
ATOM     15  C   UNL     1      -5.519  15.488  21.126  0.00  0.00    +0.000 A 
ATOM     16  C   UNL     1      -6.718  16.170  20.924  0.00  0.00    +0.000 A 
ATOM     17  C   UNL     1      -7.917  15.496  21.065  0.00  0.00    +0.000 A 
ATOM     18  C   UNL     1      -7.916  14.149  21.434  0.00  0.00    +0.000 A 
ATOM     19  C   UNL     1      -6.715  13.462  21.674  0.00  0.00    +0.000 A 
BRANCH  19  20
ATOM     20  O   UNL     1      -6.923  12.134  21.953  0.00  0.00    +0.000 OA
ATOM     21  C   UNL     1      -7.102  11.244  20.863  0.00  0.00    +0.000 C 
ENDBRANCH  19  20
ENDBRANCH   4  14
BRANCH   1  22
ATOM     22  S   UNL     1      -4.209  11.014  17.140  0.00  0.00    +0.000 S 
BRANCH  22  23
ATOM     23  C   UNL     1      -2.916   9.847  16.607  0.00  0.00    +0.000 C 
BRANCH  23  25
ATOM     24  C   UNL     1      -3.985  10.067  14.321  0.00  0.00    +0.000 C 
ATOM     25  C   UNL     1      -2.680  10.015  15.106  0.00  0.00    +0.000 C 
ENDBRANCH  23  25
ENDBRANCH  22  23
ENDBRANCH   1  22
BRANCH  10  26
ATOM     26  C   UNL     1       0.667  11.130  18.842  0.00  0.00    +0.000 C 
BRANCH  26  27
ATOM     27  C   UNL     1       1.203   9.788  19.289  0.00  0.00    +0.000 A 
ATOM     28  C   UNL     1       0.850   9.244  20.532  0.00  0.00    +0.000 A 
ATOM     29  C   UNL     1       1.249   7.952  20.882  0.00  0.00    +0.000 A 
ATOM     30  C   UNL     1       2.000   7.189  19.991  0.00  0.00    +0.000 A 
ATOM     31  C   UNL     1       2.378   7.726  18.762  0.00  0.00    +0.000 A 
ATOM     32  C   UNL     1       1.989   9.021  18.416  0.00  0.00    +0.000 A 
ENDBRANCH  26  27
ENDBRANCH  10  26
TORSDOF 7
ENDMDL
MODEL 6
REMARK VINA RESULT:      -6.5      6.608     10.526
REMARK  Name = 
REMARK  9 active torsions:
REMARK  status: ('A' for Active; 'I' for Inactive)
REMARK    1  A    between atoms: C_1  and  C_2
REMARK    2  A    between atoms: C_2  and  C_3
REMARK    3  A    between atoms: C_3  and  S_4
REMARK    4  A    between atoms: S_4  and  C_5
REMARK    5  A    between atoms: N_8  and  C_9
REMARK    6  A    between atoms: C_14  and  O_15
REMARK    7  A    between atoms: O_15  and  C_16
REMARK    8  A    between atoms: N_22  and  C_23
REMARK    9  A    between atoms: C_23  and  C_24
REMARK                            x       y       z     vdW  Elec       q    Type
REMARK                         _______ _______ _______ _____ _____    ______ ____
ROOT
ATOM      1  C   UNL     1      -1.838  13.855  21.016  0.00  0.00    +0.000 A 
ATOM      2  N   UNL     1      -3.149  13.967  21.252  0.00  0.00    +0.000 NA
ATOM      3  C   UNL     1      -3.981  13.231  20.486  0.00  0.00    +0.000 A 
ATOM      4  N   UNL     1      -5.379  13.315  20.661  0.00  0.00    +0.000 N 
ATOM      5  C   UNL     1      -3.514  12.347  19.514  0.00  0.00    +0.000 A 
ATOM      6  N   UNL     1      -4.426  11.592  18.733  0.00  0.00    +0.000 NA
ATOM      7  C   UNL     1      -3.908  10.738  17.908  0.00  0.00    +0.000 A 
ATOM      8  C   UNL     1      -2.427  10.528  17.725  0.00  0.00    +0.000 A 
ATOM      9  O   UNL     1      -2.083   9.650  16.944  0.00  0.00    +0.000 OA
ATOM     10  N   UNL     1      -1.598  11.365  18.444  0.00  0.00    +0.000 N 
ATOM     11  C   UNL     1      -2.133  12.281  19.383  0.00  0.00    +0.000 A 
ATOM     12  N   UNL     1      -1.290  13.041  20.102  0.00  0.00    +0.000 NA
ATOM     13  H   UNL     1      -5.887  12.958  19.863  0.00  0.00    +0.000 HD
ENDROOT
BRANCH   4  14
ATOM     14  C   UNL     1      -6.113  13.785  21.756  0.00  0.00    +0.000 A 
ATOM     15  C   UNL     1      -7.064  14.804  21.531  0.00  0.00    +0.000 A 
ATOM     16  C   UNL     1      -7.916  15.253  22.539  0.00  0.00    +0.000 A 
ATOM     17  C   UNL     1      -7.852  14.675  23.793  0.00  0.00    +0.000 A 
ATOM     18  C   UNL     1      -6.918  13.667  24.045  0.00  0.00    +0.000 A 
ATOM     19  C   UNL     1      -6.032  13.231  23.048  0.00  0.00    +0.000 A 
BRANCH  19  20
ATOM     20  O   UNL     1      -5.246  12.188  23.470  0.00  0.00    +0.000 OA
ATOM     21  C   UNL     1      -4.389  12.407  24.579  0.00  0.00    +0.000 C 
ENDBRANCH  19  20
ENDBRANCH   4  14
BRANCH   1  22
ATOM     22  S   UNL     1      -0.730  14.933  21.884  0.00  0.00    +0.000 S 
BRANCH  22  23
ATOM     23  C   UNL     1      -1.048  14.390  23.594  0.00  0.00    +0.000 C 
BRANCH  23  25
ATOM     24  C   UNL     1      -3.000  15.624  24.635  0.00  0.00    +0.000 C 
ATOM     25  C   UNL     1      -1.491  15.594  24.426  0.00  0.00    +0.000 C 
ENDBRANCH  23  25
ENDBRANCH  22  23
ENDBRANCH   1  22
BRANCH  10  26
ATOM     26  C   UNL     1      -0.161  11.326  18.231  0.00  0.00    +0.000 C 
BRANCH  26  27
ATOM     27  C   UNL     1       0.523  10.078  18.746  0.00  0.00    +0.000 A 
ATOM     28  C   UNL     1       1.301   9.276  17.899  0.00  0.00    +0.000 A 
ATOM     29  C   UNL     1       2.028   8.200  18.411  0.00  0.00    +0.000 A 
ATOM     30  C   UNL     1       1.989   7.916  19.774  0.00  0.00    +0.000 A 
ATOM     31  C   UNL     1       1.201   8.690  20.623  0.00  0.00    +0.000 A 
ATOM     32  C   UNL     1       0.466   9.760  20.112  0.00  0.00    +0.000 A 
ENDBRANCH  26  27
ENDBRANCH  10  26
TORSDOF 7
ENDMDL
MODEL 7
REMARK VINA RESULT:      -6.5      6.251      9.833
REMARK  Name = 
REMARK  9 active torsions:
REMARK  status: ('A' for Active; 'I' for Inactive)
REMARK    1  A    between atoms: C_1  and  C_2
REMARK    2  A    between atoms: C_2  and  C_3
REMARK    3  A    between atoms: C_3  and  S_4
REMARK    4  A    between atoms: S_4  and  C_5
REMARK    5  A    between atoms: N_8  and  C_9
REMARK    6  A    between atoms: C_14  and  O_15
REMARK    7  A    between atoms: O_15  and  C_16
REMARK    8  A    between atoms: N_22  and  C_23
REMARK    9  A    between atoms: C_23  and  C_24
REMARK                            x       y       z     vdW  Elec       q    Type
REMARK                         _______ _______ _______ _____ _____    ______ ____
ROOT
ATOM      1  C   UNL     1      -3.476  11.981  19.135  0.00  0.00    +0.000 A 
ATOM      2  N   UNL     1      -4.140  12.480  20.182  0.00  0.00    +0.000 NA
ATOM      3  C   UNL     1      -3.409  12.918  21.227  0.00  0.00    +0.000 A 
ATOM      4  N   UNL     1      -4.042  13.436  22.378  0.00  0.00    +0.000 N 
ATOM      5  C   UNL     1      -2.015  12.904  21.222  0.00  0.00    +0.000 A 
ATOM      6  N   UNL     1      -1.287  13.375  22.344  0.00  0.00    +0.000 NA
ATOM      7  C   UNL     1       0.002  13.399  22.226  0.00  0.00    +0.000 A 
ATOM      8  C   UNL     1       0.749  12.944  20.999  0.00  0.00    +0.000 A 
ATOM      9  O   UNL     1       1.967  13.071  21.011  0.00  0.00    +0.000 OA
ATOM     10  N   UNL     1      -0.015  12.404  19.983  0.00  0.00    +0.000 N 
ATOM     11  C   UNL     1      -1.430  12.401  20.067  0.00  0.00    +0.000 A 
ATOM     12  N   UNL     1      -2.139  11.916  19.035  0.00  0.00    +0.000 NA
ATOM     13  H   UNL     1      -3.426  13.453  23.179  0.00  0.00    +0.000 HD
ENDROOT
BRANCH   4  14
ATOM     14  C   UNL     1      -5.344  13.927  22.533  0.00  0.00    +0.000 A 
ATOM     15  C   UNL     1      -6.214  13.238  23.406  0.00  0.00    +0.000 A 
ATOM     16  C   UNL     1      -7.489  13.718  23.706  0.00  0.00    +0.000 A 
ATOM     17  C   UNL     1      -7.913  14.913  23.157  0.00  0.00    +0.000 A 
ATOM     18  C   UNL     1      -7.075  15.614  22.288  0.00  0.00    +0.000 A 
ATOM     19  C   UNL     1      -5.803  15.124  21.951  0.00  0.00    +0.000 A 
BRANCH  19  20
ATOM     20  O   UNL     1      -5.108  15.990  21.145  0.00  0.00    +0.000 OA
ATOM     21  C   UNL     1      -5.412  17.372  21.234  0.00  0.00    +0.000 C 
ENDBRANCH  19  20
ENDBRANCH   4  14
BRANCH   1  22
ATOM     22  S   UNL     1      -4.406  11.241  17.820  0.00  0.00    +0.000 S 
BRANCH  22  23
ATOM     23  C   UNL     1      -3.441   9.715  17.580  0.00  0.00    +0.000 C 
BRANCH  23  25
ATOM     24  C   UNL     1      -3.160  10.735  15.279  0.00  0.00    +0.000 C 
ATOM     25  C   UNL     1      -2.519   9.891  16.374  0.00  0.00    +0.000 C 
ENDBRANCH  23  25
ENDBRANCH  22  23
ENDBRANCH   1  22
BRANCH  10  26
ATOM     26  C   UNL     1       0.629  11.818  18.820  0.00  0.00    +0.000 C 
BRANCH  26  27
ATOM     27  C   UNL     1       1.041  10.372  18.984  0.00  0.00    +0.000 A 
ATOM     28  C   UNL     1       1.688   9.681  17.949  0.00  0.00    +0.000 A 
ATOM     29  C   UNL     1       2.174   8.389  18.154  0.00  0.00    +0.000 A 
ATOM     30  C   UNL     1       2.025   7.775  19.395  0.00  0.00    +0.000 A 
ATOM     31  C   UNL     1       1.364   8.441  20.425  0.00  0.00    +0.000 A 
ATOM     32  C   UNL     1       0.867   9.729  20.219  0.00  0.00    +0.000 A 
ENDBRANCH  26  27
ENDBRANCH  10  26
TORSDOF 7
ENDMDL
MODEL 8
REMARK VINA RESULT:      -6.5      6.209     10.250
REMARK  Name = 
REMARK  9 active torsions:
REMARK  status: ('A' for Active; 'I' for Inactive)
REMARK    1  A    between atoms: C_1  and  C_2
REMARK    2  A    between atoms: C_2  and  C_3
REMARK    3  A    between atoms: C_3  and  S_4
REMARK    4  A    between atoms: S_4  and  C_5
REMARK    5  A    between atoms: N_8  and  C_9
REMARK    6  A    between atoms: C_14  and  O_15
REMARK    7  A    between atoms: O_15  and  C_16
REMARK    8  A    between atoms: N_22  and  C_23
REMARK    9  A    between atoms: C_23  and  C_24
REMARK                            x       y       z     vdW  Elec       q    Type
REMARK                         _______ _______ _______ _____ _____    ______ ____
ROOT
ATOM      1  C   UNL     1      -1.107  13.791  21.216  0.00  0.00    +0.000 A 
ATOM      2  N   UNL     1      -2.413  14.034  21.368  0.00  0.00    +0.000 NA
ATOM      3  C   UNL     1      -3.263  13.384  20.547  0.00  0.00    +0.000 A 
ATOM      4  N   UNL     1      -4.654  13.608  20.632  0.00  0.00    +0.000 N 
ATOM      5  C   UNL     1      -2.826  12.458  19.601  0.00  0.00    +0.000 A 
ATOM      6  N   UNL     1      -3.757  11.798  18.758  0.00  0.00    +0.000 NA
ATOM      7  C   UNL     1      -3.275  10.897  17.962  0.00  0.00    +0.000 A 
ATOM      8  C   UNL     1      -1.814  10.539  17.873  0.00  0.00    +0.000 A 
ATOM      9  O   UNL     1      -1.510   9.631  17.109  0.00  0.00    +0.000 OA
ATOM     10  N   UNL     1      -0.953  11.289  18.648  0.00  0.00    +0.000 N 
ATOM     11  C   UNL     1      -1.453  12.254  19.558  0.00  0.00    +0.000 A 
ATOM     12  N   UNL     1      -0.586  12.926  20.333  0.00  0.00    +0.000 NA
ATOM     13  H   UNL     1      -5.143  13.304  19.801  0.00  0.00    +0.000 HD
ENDROOT
BRANCH   4  14
ATOM     14  C   UNL     1      -5.405  14.150  21.682  0.00  0.00    +0.000 A 
ATOM     15  C   UNL     1      -6.130  15.337  21.437  0.00  0.00    +0.000 A 
ATOM     16  C   UNL     1      -6.991  15.885  22.387  0.00  0.00    +0.000 A 
ATOM     17  C   UNL     1      -7.167  15.241  23.598  0.00  0.00    +0.000 A 
ATOM     18  C   UNL     1      -6.461  14.067  23.868  0.00  0.00    +0.000 A 
ATOM     19  C   UNL     1      -5.565  13.525  22.933  0.00  0.00    +0.000 A 
BRANCH  19  20
ATOM     20  O   UNL     1      -5.028  12.335  23.356  0.00  0.00    +0.000 OA
ATOM     21  C   UNL     1      -3.914  12.381  24.232  0.00  0.00    +0.000 C 
ENDBRANCH  19  20
ENDBRANCH   4  14
BRANCH   1  22
ATOM     22  S   UNL     1       0.045  14.753  22.159  0.00  0.00    +0.000 S 
BRANCH  22  23
ATOM     23  C   UNL     1       0.905  15.618  20.805  0.00  0.00    +0.000 C 
BRANCH  23  25
ATOM     24  C   UNL     1      -0.283  16.318  18.680  0.00  0.00    +0.000 C 
ATOM     25  C   UNL     1      -0.059  16.612  20.158  0.00  0.00    +0.000 C 
ENDBRANCH  23  25
ENDBRANCH  22  23
ENDBRANCH   1  22
BRANCH  10  26
ATOM     26  C   UNL     1       0.483  11.106  18.527  0.00  0.00    +0.000 C 
BRANCH  26  27
ATOM     27  C   UNL     1       0.992   9.757  18.987  0.00  0.00    +0.000 A 
ATOM     28  C   UNL     1       1.747   8.938  18.135  0.00  0.00    +0.000 A 
ATOM     29  C   UNL     1       2.316   7.755  18.608  0.00  0.00    +0.000 A 
ATOM     30  C   UNL     1       2.142   7.379  19.938  0.00  0.00    +0.000 A 
ATOM     31  C   UNL     1       1.375   8.171  20.789  0.00  0.00    +0.000 A 
ATOM     32  C   UNL     1       0.796   9.349  20.315  0.00  0.00    +0.000 A 
ENDBRANCH  26  27
ENDBRANCH  10  26
TORSDOF 7
ENDMDL
MODEL 9
REMARK VINA RESULT:      -6.5      6.472     10.390
REMARK  Name = 
REMARK  9 active torsions:
REMARK  status: ('A' for Active; 'I' for Inactive)
REMARK    1  A    between atoms: C_1  and  C_2
REMARK    2  A    between atoms: C_2  and  C_3
REMARK    3  A    between atoms: C_3  and  S_4
REMARK    4  A    between atoms: S_4  and  C_5
REMARK    5  A    between atoms: N_8  and  C_9
REMARK    6  A    between atoms: C_14  and  O_15
REMARK    7  A    between atoms: O_15  and  C_16
REMARK    8  A    between atoms: N_22  and  C_23
REMARK    9  A    between atoms: C_23  and  C_24
REMARK                            x       y       z     vdW  Elec       q    Type
REMARK                         _______ _______ _______ _____ _____    ______ ____
ROOT
ATOM      1  C   UNL     1      -1.615  13.450  21.509  0.00  0.00    +0.000 A 
ATOM      2  N   UNL     1      -2.945  13.579  21.554  0.00  0.00    +0.000 NA
ATOM      3  C   UNL     1      -3.660  12.955  20.596  0.00  0.00    +0.000 A 
ATOM      4  N   UNL     1      -5.067  13.066  20.566  0.00  0.00    +0.000 N 
ATOM      5  C   UNL     1      -3.064  12.164  19.615  0.00  0.00    +0.000 A 
ATOM      6  N   UNL     1      -3.856  11.526  18.627  0.00  0.00    +0.000 NA
ATOM      7  C   UNL     1      -3.232  10.749  17.801  0.00  0.00    +0.000 A 
ATOM      8  C   UNL     1      -1.744  10.511  17.821  0.00  0.00    +0.000 A 
ATOM      9  O   UNL     1      -1.298   9.710  17.010  0.00  0.00    +0.000 OA
ATOM     10  N   UNL     1      -1.021  11.240  18.745  0.00  0.00    +0.000 N 
ATOM     11  C   UNL     1      -1.681  12.069  19.687  0.00  0.00    +0.000 A 
ATOM     12  N   UNL     1      -0.945  12.720  20.604  0.00  0.00    +0.000 NA
ATOM     13  H   UNL     1      -5.452  12.812  19.666  0.00  0.00    +0.000 HD
ENDROOT
BRANCH   4  14
ATOM     14  C   UNL     1      -5.953  13.441  21.583  0.00  0.00    +0.000 A 
ATOM     15  C   UNL     1      -5.995  14.801  21.959  0.00  0.00    +0.000 A 
ATOM     16  C   UNL     1      -6.923  15.283  22.881  0.00  0.00    +0.000 A 
ATOM     17  C   UNL     1      -7.849  14.415  23.432  0.00  0.00    +0.000 A 
ATOM     18  C   UNL     1      -7.828  13.064  23.080  0.00  0.00    +0.000 A 
ATOM     19  C   UNL     1      -6.876  12.562  22.179  0.00  0.00    +0.000 A 
BRANCH  19  20
ATOM     20  O   UNL     1      -7.067  11.230  21.910  0.00  0.00    +0.000 OA
ATOM     21  C   UNL     1      -7.899  10.884  20.814  0.00  0.00    +0.000 C 
ENDBRANCH  19  20
ENDBRANCH   4  14
BRANCH   1  22
ATOM     22  S   UNL     1      -0.637  14.394  22.646  0.00  0.00    +0.000 S 
BRANCH  22  23
ATOM     23  C   UNL     1      -1.728  15.836  22.868  0.00  0.00    +0.000 C 
BRANCH  23  25
ATOM     24  C   UNL     1      -1.299  15.365  25.320  0.00  0.00    +0.000 C 
ATOM     25  C   UNL     1      -2.320  15.802  24.277  0.00  0.00    +0.000 C 
ENDBRANCH  23  25
ENDBRANCH  22  23
ENDBRANCH   1  22
BRANCH  10  26
ATOM     26  C   UNL     1       0.430  11.177  18.748  0.00  0.00    +0.000 C 
BRANCH  26  27
ATOM     27  C   UNL     1       1.008   9.890  19.293  0.00  0.00    +0.000 A 
ATOM     28  C   UNL     1       0.699   9.447  20.587  0.00  0.00    +0.000 A 
ATOM     29  C   UNL     1       1.137   8.199  21.034  0.00  0.00    +0.000 A 
ATOM     30  C   UNL     1       1.884   7.379  20.192  0.00  0.00    +0.000 A 
ATOM     31  C   UNL     1       2.219   7.816  18.912  0.00  0.00    +0.000 A 
ATOM     32  C   UNL     1       1.791   9.068  18.468  0.00  0.00    +0.000 A 
ENDBRANCH  26  27
ENDBRANCH  10  26
TORSDOF 7
ENDMDL
