MODEL 1
REMARK VINA RESULT:      -8.3      0.000      0.000
REMARK  Name = 
REMARK  7 active torsions:
REMARK  status: ('A' for Active; 'I' for Inactive)
REMARK    1  A    between atoms: C_1  and  C_2
REMARK    2  A    between atoms: C_4  and  C_5
REMARK    3  A    between atoms: C_6  and  C_7
REMARK    4  A    between atoms: C_15  and  C_16
REMARK    5  A    between atoms: C_18  and  C_20
REMARK    6  A    between atoms: C_24  and  O_25
REMARK    7  A    between atoms: C_27  and  O_28
REMARK                            x       y       z     vdW  Elec       q    Type
REMARK                         _______ _______ _______ _____ _____    ______ ____
ROOT
ATOM      1  C   UNL     1       2.585   6.835  18.514  0.00  0.00    +0.000 A 
ATOM      2  C   UNL     1       2.546   7.906  17.617  0.00  0.00    +0.000 A 
ATOM      3  C   UNL     1       2.065   9.177  17.999  0.00  0.00    +0.000 A 
ATOM      4  C   UNL     1       1.583   9.428  19.290  0.00  0.00    +0.000 A 
ATOM      5  C   UNL     1       1.607   8.341  20.195  0.00  0.00    +0.000 A 
ATOM      6  C   UNL     1       2.114   7.083  19.806  0.00  0.00    +0.000 A 
ATOM      7  C   UNL     1       1.063   8.431  21.597  0.00  0.00    +0.000 C 
ATOM      8  C   UNL     1       0.756   9.859  21.986  0.00  0.00    +0.000 C 
ATOM      9  C   UNL     1       0.010  10.515  20.815  0.00  0.00    +0.000 C 
ATOM     10  C   UNL     1      -0.911  11.590  21.378  0.00  0.00    +0.000 C 
ATOM     11  N   UNL     1       1.001  10.725  19.694  0.00  0.00    +0.000 N 
ATOM     12  C   UNL     1       1.447  11.912  19.035  0.00  0.00    +0.000 C 
ATOM     13  O   UNL     1       2.383  11.933  18.229  0.00  0.00    +0.000 OA
ENDROOT
BRANCH   1  19
ATOM     14  C   UNL     1       3.411   1.606  18.102  0.00  0.00    +0.000 C 
ATOM     15  C   UNL     1       3.445   3.085  17.936  0.00  0.00    +0.000 A 
ATOM     16  N   UNL     1       4.276   3.724  17.147  0.00  0.00    +0.000 NA
ATOM     17  C   UNL     1       4.077   5.097  17.243  0.00  0.00    +0.000 A 
ATOM     18  C   UNL     1       4.973   5.959  16.426  0.00  0.00    +0.000 C 
ATOM     19  C   UNL     1       3.076   5.497  18.124  0.00  0.00    +0.000 A 
ATOM     20  S   UNL     1       2.358   4.074  18.807  0.00  0.00    +0.000 S 
ENDBRANCH   1  19
BRANCH  12  21
ATOM     21  C   UNL     1       0.880  13.259  19.313  0.00  0.00    +0.000 A 
ATOM     22  C   UNL     1       1.544  14.124  20.181  0.00  0.00    +0.000 A 
ATOM     23  C   UNL     1       0.925  15.292  20.615  0.00  0.00    +0.000 A 
ATOM     24 CL   UNL     1       1.586  16.154  21.955  0.00  0.00    +0.000 Cl
ATOM     25  C   UNL     1      -0.275  15.711  20.034  0.00  0.00    +0.000 A 
ATOM     26  C   UNL     1      -0.821  14.989  18.982  0.00  0.00    +0.000 A 
ATOM     27  C   UNL     1      -0.254  13.757  18.634  0.00  0.00    +0.000 A 
BRANCH  25  28
ATOM     28  O   UNL     1      -0.956  16.806  20.476  0.00  0.00    +0.000 OA
ATOM     29  H   UNL     1      -1.721  16.487  20.993  0.00  0.00    +0.000 HD
ENDBRANCH  25  28
BRANCH  27  30
ATOM     30  O   UNL     1      -0.846  13.050  17.626  0.00  0.00    +0.000 OA
ATOM     31  H   UNL     1      -1.451  12.390  18.017  0.00  0.00    +0.000 HD
ENDBRANCH  27  30
ENDBRANCH  12  21
TORSDOF 4
ENDMDL
MODEL 2
REMARK VINA RESULT:      -8.0      1.312      1.607
REMARK  Name = 
REMARK  7 active torsions:
REMARK  status: ('A' for Active; 'I' for Inactive)
REMARK    1  A    between atoms: C_1  and  C_2
REMARK    2  A    between atoms: C_4  and  C_5
REMARK    3  A    between atoms: C_6  and  C_7
REMARK    4  A    between atoms: C_15  and  C_16
REMARK    5  A    between atoms: C_18  and  C_20
REMARK    6  A    between atoms: C_24  and  O_25
REMARK    7  A    between atoms: C_27  and  O_28
REMARK                            x       y       z     vdW  Elec       q    Type
REMARK                         _______ _______ _______ _____ _____    ______ ____
ROOT
ATOM      1  C   UNL     1       2.606   7.222  18.383  0.00  0.00    +0.000 A 
ATOM      2  C   UNL     1       2.375   8.380  17.636  0.00  0.00    +0.000 A 
ATOM      3  C   UNL     1       1.788   9.528  18.211  0.00  0.00    +0.000 A 
ATOM      4  C   UNL     1       1.388   9.563  19.552  0.00  0.00    +0.000 A 
ATOM      5  C   UNL     1       1.608   8.386  20.306  0.00  0.00    +0.000 A 
ATOM      6  C   UNL     1       2.218   7.254  19.725  0.00  0.00    +0.000 A 
ATOM      7  C   UNL     1       1.175   8.240  21.741  0.00  0.00    +0.000 C 
ATOM      8  C   UNL     1       0.742   9.563  22.332  0.00  0.00    +0.000 C 
ATOM      9  C   UNL     1      -0.165  10.260  21.308  0.00  0.00    +0.000 C 
ATOM     10  C   UNL     1      -1.151  11.140  22.066  0.00  0.00    +0.000 C 
ATOM     11  N   UNL     1       0.701  10.721  20.159  0.00  0.00    +0.000 N 
ATOM     12  C   UNL     1       0.956  12.024  19.630  0.00  0.00    +0.000 C 
ATOM     13  O   UNL     1       1.814  12.255  18.772  0.00  0.00    +0.000 OA
ENDROOT
BRANCH   1  19
ATOM     14  C   UNL     1       5.751   3.803  15.811  0.00  0.00    +0.000 C 
ATOM     15  C   UNL     1       4.668   4.440  16.610  0.00  0.00    +0.000 A 
ATOM     16  N   UNL     1       3.613   3.808  17.066  0.00  0.00    +0.000 NA
ATOM     17  C   UNL     1       2.774   4.687  17.741  0.00  0.00    +0.000 A 
ATOM     18  C   UNL     1       1.514   4.119  18.290  0.00  0.00    +0.000 C 
ATOM     19  C   UNL     1       3.209   6.009  17.791  0.00  0.00    +0.000 A 
ATOM     20  S   UNL     1       4.742   6.104  16.987  0.00  0.00    +0.000 S 
ENDBRANCH   1  19
BRANCH  12  21
ATOM     21  C   UNL     1       0.267  13.250  20.118  0.00  0.00    +0.000 A 
ATOM     22  C   UNL     1       0.950  14.150  20.933  0.00  0.00    +0.000 A 
ATOM     23  C   UNL     1       0.262  15.181  21.566  0.00  0.00    +0.000 A 
ATOM     24 CL   UNL     1       1.027  16.048  22.846  0.00  0.00    +0.000 Cl
ATOM     25  C   UNL     1      -1.068  15.448  21.235  0.00  0.00    +0.000 A 
ATOM     26  C   UNL     1      -1.689  14.718  20.231  0.00  0.00    +0.000 A 
ATOM     27  C   UNL     1      -1.028  13.610  19.686  0.00  0.00    +0.000 A 
BRANCH  25  28
ATOM     28  O   UNL     1      -1.804  16.397  21.881  0.00  0.00    +0.000 OA
ATOM     29  H   UNL     1      -2.502  16.695  21.267  0.00  0.00    +0.000 HD
ENDBRANCH  25  28
BRANCH  27  30
ATOM     30  O   UNL     1      -1.688  12.886  18.734  0.00  0.00    +0.000 OA
ATOM     31  H   UNL     1      -1.339  13.129  17.855  0.00  0.00    +0.000 HD
ENDBRANCH  27  30
ENDBRANCH  12  21
TORSDOF 4
ENDMDL
MODEL 3
REMARK VINA RESULT:      -7.9      3.327      4.565
REMARK  Name = 
REMARK  7 active torsions:
REMARK  status: ('A' for Active; 'I' for Inactive)
REMARK    1  A    between atoms: C_1  and  C_2
REMARK    2  A    between atoms: C_4  and  C_5
REMARK    3  A    between atoms: C_6  and  C_7
REMARK    4  A    between atoms: C_15  and  C_16
REMARK    5  A    between atoms: C_18  and  C_20
REMARK    6  A    between atoms: C_24  and  O_25
REMARK    7  A    between atoms: C_27  and  O_28
REMARK                            x       y       z     vdW  Elec       q    Type
REMARK                         _______ _______ _______ _____ _____    ______ ____
ROOT
ATOM      1  C   UNL     1       1.547   8.329  19.646  0.00  0.00    +0.000 A 
ATOM      2  C   UNL     1       1.535   8.616  21.014  0.00  0.00    +0.000 A 
ATOM      3  C   UNL     1       0.694   9.612  21.555  0.00  0.00    +0.000 A 
ATOM      4  C   UNL     1      -0.159  10.379  20.751  0.00  0.00    +0.000 A 
ATOM      5  C   UNL     1      -0.137  10.100  19.364  0.00  0.00    +0.000 A 
ATOM      6  C   UNL     1       0.691   9.084  18.840  0.00  0.00    +0.000 A 
ATOM      7  C   UNL     1      -0.944  10.879  18.359  0.00  0.00    +0.000 C 
ATOM      8  C   UNL     1      -1.954  11.781  19.033  0.00  0.00    +0.000 C 
ATOM      9  C   UNL     1      -1.246  12.496  20.191  0.00  0.00    +0.000 C 
ATOM     10  C   UNL     1      -1.919  13.847  20.400  0.00  0.00    +0.000 C 
ATOM     11  N   UNL     1      -0.991  11.479  21.279  0.00  0.00    +0.000 N 
ATOM     12  C   UNL     1      -1.430  11.416  22.638  0.00  0.00    +0.000 C 
ATOM     13  O   UNL     1      -1.257  10.432  23.364  0.00  0.00    +0.000 OA
ENDROOT
BRANCH   1  19
ATOM     14  C   UNL     1       4.941   5.635  16.577  0.00  0.00    +0.000 C 
ATOM     15  C   UNL     1       4.001   6.066  17.648  0.00  0.00    +0.000 A 
ATOM     16  N   UNL     1       3.577   5.291  18.619  0.00  0.00    +0.000 NA
ATOM     17  C   UNL     1       2.684   5.978  19.433  0.00  0.00    +0.000 A 
ATOM     18  C   UNL     1       2.090   5.216  20.564  0.00  0.00    +0.000 C 
ATOM     19  C   UNL     1       2.431   7.297  19.065  0.00  0.00    +0.000 A 
ATOM     20  S   UNL     1       3.392   7.661  17.669  0.00  0.00    +0.000 S 
ENDBRANCH   1  19
BRANCH  12  21
ATOM     21  C   UNL     1      -2.212  12.500  23.292  0.00  0.00    +0.000 A 
ATOM     22  C   UNL     1      -3.545  12.283  23.633  0.00  0.00    +0.000 A 
ATOM     23  C   UNL     1      -4.344  13.345  24.046  0.00  0.00    +0.000 A 
ATOM     24 CL   UNL     1      -6.056  13.144  24.105  0.00  0.00    +0.000 Cl
ATOM     25  C   UNL     1      -3.774  14.592  24.316  0.00  0.00    +0.000 A 
ATOM     26  C   UNL     1      -2.398  14.755  24.227  0.00  0.00    +0.000 A 
ATOM     27  C   UNL     1      -1.622  13.716  23.700  0.00  0.00    +0.000 A 
BRANCH  25  28
ATOM     28  O   UNL     1      -4.524  15.679  24.650  0.00  0.00    +0.000 OA
ATOM     29  H   UNL     1      -4.256  15.958  25.547  0.00  0.00    +0.000 HD
ENDBRANCH  25  28
BRANCH  27  30
ATOM     30  O   UNL     1      -0.277  13.929  23.581  0.00  0.00    +0.000 OA
ATOM     31  H   UNL     1       0.072  13.354  22.873  0.00  0.00    +0.000 HD
ENDBRANCH  27  30
ENDBRANCH  12  21
TORSDOF 4
ENDMDL
MODEL 4
REMARK VINA RESULT:      -7.9      3.135      4.260
REMARK  Name = 
REMARK  7 active torsions:
REMARK  status: ('A' for Active; 'I' for Inactive)
REMARK    1  A    between atoms: C_1  and  C_2
REMARK    2  A    between atoms: C_4  and  C_5
REMARK    3  A    between atoms: C_6  and  C_7
REMARK    4  A    between atoms: C_15  and  C_16
REMARK    5  A    between atoms: C_18  and  C_20
REMARK    6  A    between atoms: C_24  and  O_25
REMARK    7  A    between atoms: C_27  and  O_28
REMARK                            x       y       z     vdW  Elec       q    Type
REMARK                         _______ _______ _______ _____ _____    ______ ____
ROOT
ATOM      1  C   UNL     1       1.474   8.427  19.743  0.00  0.00    +0.000 A 
ATOM      2  C   UNL     1       1.403   8.712  21.109  0.00  0.00    +0.000 A 
ATOM      3  C   UNL     1       0.625   9.781  21.605  0.00  0.00    +0.000 A 
ATOM      4  C   UNL     1      -0.101  10.624  20.755  0.00  0.00    +0.000 A 
ATOM      5  C   UNL     1      -0.019  10.346  19.370  0.00  0.00    +0.000 A 
ATOM      6  C   UNL     1       0.743   9.259  18.890  0.00  0.00    +0.000 A 
ATOM      7  C   UNL     1      -0.687  11.199  18.323  0.00  0.00    +0.000 C 
ATOM      8  C   UNL     1      -1.650  12.189  18.939  0.00  0.00    +0.000 C 
ATOM      9  C   UNL     1      -0.951  12.834  20.144  0.00  0.00    +0.000 C 
ATOM     10  C   UNL     1      -1.509  14.241  20.321  0.00  0.00    +0.000 C 
ATOM     11  N   UNL     1      -0.860  11.796  21.238  0.00  0.00    +0.000 N 
ATOM     12  C   UNL     1      -1.387  11.772  22.567  0.00  0.00    +0.000 C 
ATOM     13  O   UNL     1      -1.351  10.776  23.295  0.00  0.00    +0.000 OA
ENDROOT
BRANCH   1  19
ATOM     14  C   UNL     1       4.734   5.414  16.831  0.00  0.00    +0.000 C 
ATOM     15  C   UNL     1       3.802   5.940  17.865  0.00  0.00    +0.000 A 
ATOM     16  N   UNL     1       3.298   5.223  18.841  0.00  0.00    +0.000 NA
ATOM     17  C   UNL     1       2.437   5.994  19.615  0.00  0.00    +0.000 A 
ATOM     18  C   UNL     1       1.760   5.307  20.747  0.00  0.00    +0.000 C 
ATOM     19  C   UNL     1       2.293   7.319  19.209  0.00  0.00    +0.000 A 
ATOM     20  S   UNL     1       3.314   7.576  17.832  0.00  0.00    +0.000 S 
ENDBRANCH   1  19
BRANCH  12  21
ATOM     21  C   UNL     1      -2.104  12.923  23.179  0.00  0.00    +0.000 A 
ATOM     22  C   UNL     1      -1.381  13.930  23.815  0.00  0.00    +0.000 A 
ATOM     23  C   UNL     1      -2.040  14.895  24.570  0.00  0.00    +0.000 A 
ATOM     24 CL   UNL     1      -1.134  15.897  25.642  0.00  0.00    +0.000 Cl
ATOM     25  C   UNL     1      -3.434  14.987  24.534  0.00  0.00    +0.000 A 
ATOM     26  C   UNL     1      -4.159  14.148  23.698  0.00  0.00    +0.000 A 
ATOM     27  C   UNL     1      -3.496  13.108  23.035  0.00  0.00    +0.000 A 
BRANCH  25  28
ATOM     28  O   UNL     1      -4.127  15.864  25.313  0.00  0.00    +0.000 OA
ATOM     29  H   UNL     1      -4.452  15.373  26.092  0.00  0.00    +0.000 HD
ENDBRANCH  25  28
BRANCH  27  30
ATOM     30  O   UNL     1      -4.249  12.272  22.259  0.00  0.00    +0.000 OA
ATOM     31  H   UNL     1      -3.839  11.386  22.261  0.00  0.00    +0.000 HD
ENDBRANCH  27  30
ENDBRANCH  12  21
TORSDOF 4
ENDMDL
MODEL 5
REMARK VINA RESULT:      -7.6      3.073      4.049
REMARK  Name = 
REMARK  7 active torsions:
REMARK  status: ('A' for Active; 'I' for Inactive)
REMARK    1  A    between atoms: C_1  and  C_2
REMARK    2  A    between atoms: C_4  and  C_5
REMARK    3  A    between atoms: C_6  and  C_7
REMARK    4  A    between atoms: C_15  and  C_16
REMARK    5  A    between atoms: C_18  and  C_20
REMARK    6  A    between atoms: C_24  and  O_25
REMARK    7  A    between atoms: C_27  and  O_28
REMARK                            x       y       z     vdW  Elec       q    Type
REMARK                         _______ _______ _______ _____ _____    ______ ____
ROOT
ATOM      1  C   UNL     1       1.421   8.177  20.133  0.00  0.00    +0.000 A 
ATOM      2  C   UNL     1       1.248   8.474  21.487  0.00  0.00    +0.000 A 
ATOM      3  C   UNL     1       0.503   9.595  21.911  0.00  0.00    +0.000 A 
ATOM      4  C   UNL     1      -0.085  10.482  20.999  0.00  0.00    +0.000 A 
ATOM      5  C   UNL     1       0.102  10.191  19.627  0.00  0.00    +0.000 A 
ATOM      6  C   UNL     1       0.828   9.052  19.218  0.00  0.00    +0.000 A 
ATOM      7  C   UNL     1      -0.409  11.081  18.525  0.00  0.00    +0.000 C 
ATOM      8  C   UNL     1      -1.354  12.137  19.052  0.00  0.00    +0.000 C 
ATOM      9  C   UNL     1      -0.725  12.741  20.316  0.00  0.00    +0.000 C 
ATOM     10  C   UNL     1      -1.199  14.183  20.442  0.00  0.00    +0.000 C 
ATOM     11  N   UNL     1      -0.803  11.705  21.414  0.00  0.00    +0.000 N 
ATOM     12  C   UNL     1      -1.448  11.724  22.689  0.00  0.00    +0.000 C 
ATOM     13  O   UNL     1      -1.545  10.731  23.417  0.00  0.00    +0.000 OA
ENDROOT
BRANCH   1  19
ATOM     14  C   UNL     1       3.734   3.419  19.686  0.00  0.00    +0.000 C 
ATOM     15  C   UNL     1       3.264   4.815  19.473  0.00  0.00    +0.000 A 
ATOM     16  N   UNL     1       3.656   5.587  18.488  0.00  0.00    +0.000 NA
ATOM     17  C   UNL     1       3.063   6.841  18.589  0.00  0.00    +0.000 A 
ATOM     18  C   UNL     1       3.439   7.842  17.554  0.00  0.00    +0.000 C 
ATOM     19  C   UNL     1       2.208   7.013  19.674  0.00  0.00    +0.000 A 
ATOM     20  S   UNL     1       2.143   5.520  20.552  0.00  0.00    +0.000 S 
ENDBRANCH   1  19
BRANCH  12  21
ATOM     21  C   UNL     1      -2.137  12.924  23.234  0.00  0.00    +0.000 A 
ATOM     22  C   UNL     1      -1.393  13.935  23.839  0.00  0.00    +0.000 A 
ATOM     23  C   UNL     1      -2.033  14.954  24.537  0.00  0.00    +0.000 A 
ATOM     24 CL   UNL     1      -1.114  15.974  25.580  0.00  0.00    +0.000 Cl
ATOM     25  C   UNL     1      -3.422  15.089  24.470  0.00  0.00    +0.000 A 
ATOM     26  C   UNL     1      -4.160  14.238  23.658  0.00  0.00    +0.000 A 
ATOM     27  C   UNL     1      -3.520  13.147  23.056  0.00  0.00    +0.000 A 
BRANCH  25  28
ATOM     28  O   UNL     1      -4.100  16.023  25.194  0.00  0.00    +0.000 OA
ATOM     29  H   UNL     1      -5.026  15.722  25.270  0.00  0.00    +0.000 HD
ENDBRANCH  25  28
BRANCH  27  30
ATOM     30  O   UNL     1      -4.285  12.302  22.303  0.00  0.00    +0.000 OA
ATOM     31  H   UNL     1      -4.797  12.829  21.660  0.00  0.00    +0.000 HD
ENDBRANCH  27  30
ENDBRANCH  12  21
TORSDOF 4
ENDMDL
MODEL 6
REMARK VINA RESULT:      -7.5      1.112      1.505
REMARK  Name = 
REMARK  7 active torsions:
REMARK  status: ('A' for Active; 'I' for Inactive)
REMARK    1  A    between atoms: C_1  and  C_2
REMARK    2  A    between atoms: C_4  and  C_5
REMARK    3  A    between atoms: C_6  and  C_7
REMARK    4  A    between atoms: C_15  and  C_16
REMARK    5  A    between atoms: C_18  and  C_20
REMARK    6  A    between atoms: C_24  and  O_25
REMARK    7  A    between atoms: C_27  and  O_28
REMARK                            x       y       z     vdW  Elec       q    Type
REMARK                         _______ _______ _______ _____ _____    ______ ____
ROOT
ATOM      1  C   UNL     1       2.110   6.783  19.055  0.00  0.00    +0.000 A 
ATOM      2  C   UNL     1       2.180   7.747  18.046  0.00  0.00    +0.000 A 
ATOM      3  C   UNL     1       1.826   9.093  18.281  0.00  0.00    +0.000 A 
ATOM      4  C   UNL     1       1.370   9.532  19.530  0.00  0.00    +0.000 A 
ATOM      5  C   UNL     1       1.285   8.554  20.549  0.00  0.00    +0.000 A 
ATOM      6  C   UNL     1       1.665   7.217  20.307  0.00  0.00    +0.000 A 
ATOM      7  C   UNL     1       0.751   8.851  21.926  0.00  0.00    +0.000 C 
ATOM      8  C   UNL     1       0.585  10.337  22.153  0.00  0.00    +0.000 C 
ATOM      9  C   UNL     1      -0.089  10.930  20.907  0.00  0.00    +0.000 C 
ATOM     10  C   UNL     1      -0.900  12.146  21.338  0.00  0.00    +0.000 C 
ATOM     11  N   UNL     1       0.919  10.916  19.782  0.00  0.00    +0.000 N 
ATOM     12  C   UNL     1       1.482  11.974  19.003  0.00  0.00    +0.000 C 
ATOM     13  O   UNL     1       2.416  11.813  18.211  0.00  0.00    +0.000 OA
ENDROOT
BRANCH   1  19
ATOM     14  C   UNL     1       4.240   2.277  17.225  0.00  0.00    +0.000 C 
ATOM     15  C   UNL     1       3.458   3.297  17.976  0.00  0.00    +0.000 A 
ATOM     16  N   UNL     1       2.549   3.017  18.879  0.00  0.00    +0.000 NA
ATOM     17  C   UNL     1       1.977   4.186  19.370  0.00  0.00    +0.000 A 
ATOM     18  C   UNL     1       0.901   4.026  20.384  0.00  0.00    +0.000 C 
ATOM     19  C   UNL     1       2.466   5.368  18.821  0.00  0.00    +0.000 A 
ATOM     20  S   UNL     1       3.710   4.961  17.684  0.00  0.00    +0.000 S 
ENDBRANCH   1  19
BRANCH  12  21
ATOM     21  C   UNL     1       1.051  13.393  19.125  0.00  0.00    +0.000 A 
ATOM     22  C   UNL     1       1.859  14.306  19.799  0.00  0.00    +0.000 A 
ATOM     23  C   UNL     1       1.377  15.575  20.104  0.00  0.00    +0.000 A 
ATOM     24 CL   UNL     1       2.226  16.552  21.244  0.00  0.00    +0.000 Cl
ATOM     25  C   UNL     1       0.165  16.017  19.567  0.00  0.00    +0.000 A 
ATOM     26  C   UNL     1      -0.532  15.207  18.681  0.00  0.00    +0.000 A 
ATOM     27  C   UNL     1      -0.099  13.892  18.474  0.00  0.00    +0.000 A 
BRANCH  25  28
ATOM     28  O   UNL     1      -0.384  17.220  19.897  0.00  0.00    +0.000 OA
ATOM     29  H   UNL     1      -1.258  17.273  19.466  0.00  0.00    +0.000 HD
ENDBRANCH  25  28
BRANCH  27  30
ATOM     30  O   UNL     1      -0.837  13.107  17.633  0.00  0.00    +0.000 OA
ATOM     31  H   UNL     1      -1.328  12.451  18.164  0.00  0.00    +0.000 HD
ENDBRANCH  27  30
ENDBRANCH  12  21
TORSDOF 4
ENDMDL
MODEL 7
REMARK VINA RESULT:      -7.5      2.123      2.686
REMARK  Name = 
REMARK  7 active torsions:
REMARK  status: ('A' for Active; 'I' for Inactive)
REMARK    1  A    between atoms: C_1  and  C_2
REMARK    2  A    between atoms: C_4  and  C_5
REMARK    3  A    between atoms: C_6  and  C_7
REMARK    4  A    between atoms: C_15  and  C_16
REMARK    5  A    between atoms: C_18  and  C_20
REMARK    6  A    between atoms: C_24  and  O_25
REMARK    7  A    between atoms: C_27  and  O_28
REMARK                            x       y       z     vdW  Elec       q    Type
REMARK                         _______ _______ _______ _____ _____    ______ ____
ROOT
ATOM      1  C   UNL     1       2.362   7.496  18.647  0.00  0.00    +0.000 A 
ATOM      2  C   UNL     1       1.851   8.598  17.958  0.00  0.00    +0.000 A 
ATOM      3  C   UNL     1       1.184   9.647  18.628  0.00  0.00    +0.000 A 
ATOM      4  C   UNL     1       0.982   9.631  20.013  0.00  0.00    +0.000 A 
ATOM      5  C   UNL     1       1.486   8.508  20.711  0.00  0.00    +0.000 A 
ATOM      6  C   UNL     1       2.172   7.478  20.032  0.00  0.00    +0.000 A 
ATOM      7  C   UNL     1       1.292   8.309  22.191  0.00  0.00    +0.000 C 
ATOM      8  C   UNL     1       0.752   9.555  22.857  0.00  0.00    +0.000 C 
ATOM      9  C   UNL     1      -0.390  10.095  21.984  0.00  0.00    +0.000 C 
ATOM     10  C   UNL     1      -1.379  10.819  22.889  0.00  0.00    +0.000 C 
ATOM     11  N   UNL     1       0.220  10.675  20.729  0.00  0.00    +0.000 N 
ATOM     12  C   UNL     1       0.193  11.997  20.187  0.00  0.00    +0.000 C 
ATOM     13  O   UNL     1       0.873  12.350  19.219  0.00  0.00    +0.000 OA
ENDROOT
BRANCH   1  19
ATOM     14  C   UNL     1       5.725   4.555  15.778  0.00  0.00    +0.000 C 
ATOM     15  C   UNL     1       4.611   5.037  16.639  0.00  0.00    +0.000 A 
ATOM     16  N   UNL     1       3.624   4.285  17.065  0.00  0.00    +0.000 NA
ATOM     17  C   UNL     1       2.729   5.038  17.817  0.00  0.00    +0.000 A 
ATOM     18  C   UNL     1       1.534   4.326  18.342  0.00  0.00    +0.000 C 
ATOM     19  C   UNL     1       3.052   6.385  17.957  0.00  0.00    +0.000 A 
ATOM     20  S   UNL     1       4.553   6.669  17.137  0.00  0.00    +0.000 S 
ENDBRANCH   1  19
BRANCH  12  21
ATOM     21  C   UNL     1      -0.598  13.106  20.787  0.00  0.00    +0.000 A 
ATOM     22  C   UNL     1      -1.982  13.136  20.624  0.00  0.00    +0.000 A 
ATOM     23  C   UNL     1      -2.705  14.266  20.992  0.00  0.00    +0.000 A 
ATOM     24 CL   UNL     1      -4.334  14.441  20.452  0.00  0.00    +0.000 Cl
ATOM     25  C   UNL     1      -2.090  15.295  21.709  0.00  0.00    +0.000 A 
ATOM     26  C   UNL     1      -0.766  15.163  22.105  0.00  0.00    +0.000 A 
ATOM     27  C   UNL     1      -0.017  14.079  21.630  0.00  0.00    +0.000 A 
BRANCH  25  28
ATOM     28  O   UNL     1      -2.736  16.452  22.025  0.00  0.00    +0.000 OA
ATOM     29  H   UNL     1      -2.057  17.120  22.239  0.00  0.00    +0.000 HD
ENDBRANCH  25  28
BRANCH  27  30
ATOM     30  O   UNL     1       1.296  14.006  22.000  0.00  0.00    +0.000 OA
ATOM     31  H   UNL     1       1.818  13.673  21.245  0.00  0.00    +0.000 HD
ENDBRANCH  27  30
ENDBRANCH  12  21
TORSDOF 4
ENDMDL
MODEL 8
REMARK VINA RESULT:      -7.5      1.473      1.790
REMARK  Name = 
REMARK  7 active torsions:
REMARK  status: ('A' for Active; 'I' for Inactive)
REMARK    1  A    between atoms: C_1  and  C_2
REMARK    2  A    between atoms: C_4  and  C_5
REMARK    3  A    between atoms: C_6  and  C_7
REMARK    4  A    between atoms: C_15  and  C_16
REMARK    5  A    between atoms: C_18  and  C_20
REMARK    6  A    between atoms: C_24  and  O_25
REMARK    7  A    between atoms: C_27  and  O_28
REMARK                            x       y       z     vdW  Elec       q    Type
REMARK                         _______ _______ _______ _____ _____    ______ ____
ROOT
ATOM      1  C   UNL     1       2.291   7.508  18.521  0.00  0.00    +0.000 A 
ATOM      2  C   UNL     1       2.473   8.652  17.740  0.00  0.00    +0.000 A 
ATOM      3  C   UNL     1       2.043   9.924  18.176  0.00  0.00    +0.000 A 
ATOM      4  C   UNL     1       1.395  10.105  19.404  0.00  0.00    +0.000 A 
ATOM      5  C   UNL     1       1.198   8.946  20.190  0.00  0.00    +0.000 A 
ATOM      6  C   UNL     1       1.655   7.684  19.752  0.00  0.00    +0.000 A 
ATOM      7  C   UNL     1       0.460   8.962  21.503  0.00  0.00    +0.000 C 
ATOM      8  C   UNL     1       0.212  10.374  21.987  0.00  0.00    +0.000 C 
ATOM      9  C   UNL     1      -0.295  11.196  20.794  0.00  0.00    +0.000 C 
ATOM     10  C   UNL     1      -1.201  12.299  21.328  0.00  0.00    +0.000 C 
ATOM     11  N   UNL     1       0.866  11.410  19.851  0.00  0.00    +0.000 N 
ATOM     12  C   UNL     1       1.499  12.604  19.384  0.00  0.00    +0.000 C 
ATOM     13  O   UNL     1       2.542  12.608  18.725  0.00  0.00    +0.000 OA
ENDROOT
BRANCH   1  19
ATOM     14  C   UNL     1       2.682   2.292  17.610  0.00  0.00    +0.000 C 
ATOM     15  C   UNL     1       2.894   3.764  17.650  0.00  0.00    +0.000 A 
ATOM     16  N   UNL     1       3.939   4.377  17.147  0.00  0.00    +0.000 NA
ATOM     17  C   UNL     1       3.858   5.746  17.378  0.00  0.00    +0.000 A 
ATOM     18  C   UNL     1       4.993   6.574  16.892  0.00  0.00    +0.000 C 
ATOM     19  C   UNL     1       2.726   6.169  18.071  0.00  0.00    +0.000 A 
ATOM     20  S   UNL     1       1.739   4.780  18.393  0.00  0.00    +0.000 S 
ENDBRANCH   1  19
BRANCH  12  21
ATOM     21  C   UNL     1       1.006  13.969  19.714  0.00  0.00    +0.000 A 
ATOM     22  C   UNL     1       0.208  14.656  18.801  0.00  0.00    +0.000 A 
ATOM     23  C   UNL     1      -0.082  16.002  19.000  0.00  0.00    +0.000 A 
ATOM     24 CL   UNL     1      -0.743  16.927  17.702  0.00  0.00    +0.000 Cl
ATOM     25  C   UNL     1       0.248  16.623  20.207  0.00  0.00    +0.000 A 
ATOM     26  C   UNL     1       0.817  15.880  21.232  0.00  0.00    +0.000 A 
ATOM     27  C   UNL     1       1.210  14.560  20.980  0.00  0.00    +0.000 A 
BRANCH  25  28
ATOM     28  O   UNL     1       0.052  17.955  20.419  0.00  0.00    +0.000 OA
ATOM     29  H   UNL     1       0.810  18.430  20.025  0.00  0.00    +0.000 HD
ENDBRANCH  25  28
BRANCH  27  30
ATOM     30  O   UNL     1       1.811  13.873  21.997  0.00  0.00    +0.000 OA
ATOM     31  H   UNL     1       1.867  12.930  21.750  0.00  0.00    +0.000 HD
ENDBRANCH  27  30
ENDBRANCH  12  21
TORSDOF 4
ENDMDL
MODEL 9
REMARK VINA RESULT:      -7.3      3.106      4.108
REMARK  Name = 
REMARK  7 active torsions:
REMARK  status: ('A' for Active; 'I' for Inactive)
REMARK    1  A    between atoms: C_1  and  C_2
REMARK    2  A    between atoms: C_4  and  C_5
REMARK    3  A    between atoms: C_6  and  C_7
REMARK    4  A    between atoms: C_15  and  C_16
REMARK    5  A    between atoms: C_18  and  C_20
REMARK    6  A    between atoms: C_24  and  O_25
REMARK    7  A    between atoms: C_27  and  O_28
REMARK                            x       y       z     vdW  Elec       q    Type
REMARK                         _______ _______ _______ _____ _____    ______ ____
ROOT
ATOM      1  C   UNL     1       1.659   7.824  19.992  0.00  0.00    +0.000 A 
ATOM      2  C   UNL     1       1.578   8.202  21.334  0.00  0.00    +0.000 A 
ATOM      3  C   UNL     1       0.780   9.288  21.753  0.00  0.00    +0.000 A 
ATOM      4  C   UNL     1       0.041  10.057  20.845  0.00  0.00    +0.000 A 
ATOM      5  C   UNL     1       0.133   9.685  19.483  0.00  0.00    +0.000 A 
ATOM      6  C   UNL     1       0.916   8.582  19.081  0.00  0.00    +0.000 A 
ATOM      7  C   UNL     1      -0.547  10.450  18.377  0.00  0.00    +0.000 C 
ATOM      8  C   UNL     1      -1.530  11.463  18.921  0.00  0.00    +0.000 C 
ATOM      9  C   UNL     1      -0.847  12.203  20.080  0.00  0.00    +0.000 C 
ATOM     10  C   UNL     1      -1.431  13.609  20.157  0.00  0.00    +0.000 C 
ATOM     11  N   UNL     1      -0.741  11.245  21.244  0.00  0.00    +0.000 N 
ATOM     12  C   UNL     1      -1.271  11.304  22.570  0.00  0.00    +0.000 C 
ATOM     13  O   UNL     1      -1.220  10.362  23.366  0.00  0.00    +0.000 OA
ENDROOT
BRANCH   1  19
ATOM     14  C   UNL     1       4.166   3.165  19.546  0.00  0.00    +0.000 C 
ATOM     15  C   UNL     1       3.646   4.544  19.337  0.00  0.00    +0.000 A 
ATOM     16  N   UNL     1       4.026   5.342  18.368  0.00  0.00    +0.000 NA
ATOM     17  C   UNL     1       3.383   6.570  18.469  0.00  0.00    +0.000 A 
ATOM     18  C   UNL     1       3.739   7.596  17.452  0.00  0.00    +0.000 C 
ATOM     19  C   UNL     1       2.500   6.697  19.538  0.00  0.00    +0.000 A 
ATOM     20  S   UNL     1       2.477   5.193  20.400  0.00  0.00    +0.000 S 
ENDBRANCH   1  19
BRANCH  12  21
ATOM     21  C   UNL     1      -2.012  12.482  23.099  0.00  0.00    +0.000 A 
ATOM     22  C   UNL     1      -3.365  12.366  23.409  0.00  0.00    +0.000 A 
ATOM     23  C   UNL     1      -4.116  13.501  23.699  0.00  0.00    +0.000 A 
ATOM     24 CL   UNL     1      -5.838  13.397  23.713  0.00  0.00    +0.000 Cl
ATOM     25  C   UNL     1      -3.487  14.735  23.881  0.00  0.00    +0.000 A 
ATOM     26  C   UNL     1      -2.102  14.817  23.829  0.00  0.00    +0.000 A 
ATOM     27  C   UNL     1      -1.368  13.696  23.421  0.00  0.00    +0.000 A 
BRANCH  25  28
ATOM     28  O   UNL     1      -4.185  15.886  24.092  0.00  0.00    +0.000 OA
ATOM     29  H   UNL     1      -3.954  16.211  24.984  0.00  0.00    +0.000 HD
ENDBRANCH  25  28
BRANCH  27  30
ATOM     30  O   UNL     1      -0.010  13.826  23.334  0.00  0.00    +0.000 OA
ATOM     31  H   UNL     1       0.295  13.397  22.511  0.00  0.00    +0.000 HD
ENDBRANCH  27  30
ENDBRANCH  12  21
TORSDOF 4
ENDMDL
