MODEL 1
REMARK VINA RESULT:      -7.8      0.000      0.000
REMARK  Name = 
REMARK  8 active torsions:
REMARK  status: ('A' for Active; 'I' for Inactive)
REMARK    1  A    between atoms: C_1  and  C_2
REMARK    2  A    between atoms: C_2  and  C_3
REMARK    3  A    between atoms: C_3  and  C_4
REMARK    4  A    between atoms: N_6  and  C_7
REMARK    5  A    between atoms: C_10  and  N_11
REMARK    6  A    between atoms: N_16  and  N_17
REMARK    7  A    between atoms: C_18  and  C_20
REMARK    8  A    between atoms: C_25  and  N_26
REMARK                            x       y       z     vdW  Elec       q    Type
REMARK                         _______ _______ _______ _____ _____    ______ ____
ROOT
ATOM      1  C   UNL     1       7.148   5.481  19.528  0.00  0.00    +0.000 C 
ATOM      2  C   UNL     1       6.775   6.268  18.295  0.00  0.00    +0.000 C 
ATOM      3  N   UNL     1       5.550   6.404  17.861  0.00  0.00    +0.000 NA
ENDROOT
BRANCH   3   4
ATOM      4  N   UNL     1       4.553   5.817  18.599  0.00  0.00    +0.000 N 
ATOM      5  C   UNL     1       3.930   4.659  18.175  0.00  0.00    +0.000 C 
ATOM      6  O   UNL     1       4.187   4.082  17.108  0.00  0.00    +0.000 OA
ATOM      7  H   UNL     1       4.282   6.265  19.468  0.00  0.00    +0.000 HD
BRANCH   5   8
ATOM      8  C   UNL     1       2.931   4.019  19.102  0.00  0.00    +0.000 A 
ATOM      9  C   UNL     1       1.842   4.835  19.469  0.00  0.00    +0.000 A 
ATOM     10  C   UNL     1       0.831   4.373  20.324  0.00  0.00    +0.000 A 
ATOM     11  C   UNL     1       0.877   3.082  20.839  0.00  0.00    +0.000 A 
ATOM     12  C   UNL     1       1.944   2.255  20.511  0.00  0.00    +0.000 A 
ATOM     13  C   UNL     1       2.959   2.730  19.658  0.00  0.00    +0.000 A 
BRANCH  13  14
ATOM     14  N   UNL     1       4.025   1.796  19.395  0.00  0.00    +0.000 N 
ATOM     15  O   UNL     1       5.017   1.862  20.122  0.00  0.00    +0.000 OA
ATOM     16  O   UNL     1       3.881   1.028  18.433  0.00  0.00    +0.000 OA
ENDBRANCH  13  14
ENDBRANCH   5   8
ENDBRANCH   3   4
BRANCH   2  17
ATOM     17  C   UNL     1       7.871   7.031  17.585  0.00  0.00    +0.000 C 
BRANCH  17  18
ATOM     18  C   UNL     1       7.990   8.511  17.869  0.00  0.00    +0.000 C 
ATOM     19  O   UNL     1       7.303   9.315  17.237  0.00  0.00    +0.000 OA
ATOM     20  N   UNL     1       8.978   8.881  18.767  0.00  0.00    +0.000 N 
ATOM     21  H   UNL     1       9.756   8.235  18.857  0.00  0.00    +0.000 HD
BRANCH  20  22
ATOM     22  C   UNL     1       9.246  10.243  19.049  0.00  0.00    +0.000 A 
ATOM     23  C   UNL     1       9.573  11.156  18.037  0.00  0.00    +0.000 A 
ATOM     24  C   UNL     1       9.821  12.501  18.345  0.00  0.00    +0.000 A 
ATOM     25  C   UNL     1       9.777  12.920  19.680  0.00  0.00    +0.000 A 
ATOM     26  C   UNL     1       9.468  12.007  20.698  0.00  0.00    +0.000 A 
ATOM     27  C   UNL     1       9.177  10.677  20.374  0.00  0.00    +0.000 A 
BRANCH  25  28
ATOM     28  N   UNL     1      10.049  14.323  20.020  0.00  0.00    +0.000 N 
ATOM     29  O   UNL     1       9.195  15.167  19.711  0.00  0.00    +0.000 OA
ATOM     30  O   UNL     1      11.109  14.579  20.600  0.00  0.00    +0.000 OA
ENDBRANCH  25  28
ENDBRANCH  20  22
ENDBRANCH  17  18
ENDBRANCH   2  17
TORSDOF 7
ENDMDL
MODEL 2
REMARK VINA RESULT:      -7.7      5.171      8.106
REMARK  Name = 
REMARK  8 active torsions:
REMARK  status: ('A' for Active; 'I' for Inactive)
REMARK    1  A    between atoms: C_1  and  C_2
REMARK    2  A    between atoms: C_2  and  C_3
REMARK    3  A    between atoms: C_3  and  C_4
REMARK    4  A    between atoms: N_6  and  C_7
REMARK    5  A    between atoms: C_10  and  N_11
REMARK    6  A    between atoms: N_16  and  N_17
REMARK    7  A    between atoms: C_18  and  C_20
REMARK    8  A    between atoms: C_25  and  N_26
REMARK                            x       y       z     vdW  Elec       q    Type
REMARK                         _______ _______ _______ _____ _____    ______ ____
ROOT
ATOM      1  C   UNL     1       0.981   5.085  20.227  0.00  0.00    +0.000 C 
ATOM      2  C   UNL     1       2.409   5.547  20.055  0.00  0.00    +0.000 C 
ATOM      3  N   UNL     1       2.754   6.796  19.891  0.00  0.00    +0.000 NA
ENDROOT
BRANCH   3   4
ATOM      4  N   UNL     1       1.752   7.733  19.910  0.00  0.00    +0.000 N 
ATOM      5  C   UNL     1       1.702   8.753  18.979  0.00  0.00    +0.000 C 
ATOM      6  O   UNL     1       2.549   8.925  18.091  0.00  0.00    +0.000 OA
ATOM      7  H   UNL     1       1.047   7.657  20.636  0.00  0.00    +0.000 HD
BRANCH   5   8
ATOM      8  C   UNL     1       0.504   9.666  19.001  0.00  0.00    +0.000 A 
ATOM      9  C   UNL     1      -0.351   9.564  17.886  0.00  0.00    +0.000 A 
ATOM     10  C   UNL     1      -1.507  10.350  17.770  0.00  0.00    +0.000 A 
ATOM     11  C   UNL     1      -1.844  11.261  18.765  0.00  0.00    +0.000 A 
ATOM     12  C   UNL     1      -1.016  11.399  19.872  0.00  0.00    +0.000 A 
ATOM     13  C   UNL     1       0.148  10.612  19.975  0.00  0.00    +0.000 A 
BRANCH  13  14
ATOM     14  N   UNL     1       0.942  10.846  21.155  0.00  0.00    +0.000 N 
ATOM     15  O   UNL     1       0.981   9.941  21.991  0.00  0.00    +0.000 OA
ATOM     16  O   UNL     1       1.488  11.953  21.261  0.00  0.00    +0.000 OA
ENDBRANCH  13  14
ENDBRANCH   5   8
ENDBRANCH   3   4
BRANCH   2  17
ATOM     17  C   UNL     1       3.507   4.515  20.190  0.00  0.00    +0.000 C 
BRANCH  17  18
ATOM     18  C   UNL     1       4.481   4.378  19.043  0.00  0.00    +0.000 C 
ATOM     19  O   UNL     1       5.599   3.899  19.240  0.00  0.00    +0.000 OA
ATOM     20  N   UNL     1       4.081   4.927  17.835  0.00  0.00    +0.000 N 
ATOM     21  H   UNL     1       3.398   5.675  17.896  0.00  0.00    +0.000 HD
BRANCH  20  22
ATOM     22  C   UNL     1       4.942   4.940  16.710  0.00  0.00    +0.000 A 
ATOM     23  C   UNL     1       4.895   3.935  15.734  0.00  0.00    +0.000 A 
ATOM     24  C   UNL     1       5.751   3.981  14.625  0.00  0.00    +0.000 A 
ATOM     25  C   UNL     1       6.683   5.020  14.518  0.00  0.00    +0.000 A 
ATOM     26  C   UNL     1       6.745   6.018  15.500  0.00  0.00    +0.000 A 
ATOM     27  C   UNL     1       5.855   5.988  16.580  0.00  0.00    +0.000 A 
BRANCH  25  28
ATOM     28  N   UNL     1       7.597   5.073  13.368  0.00  0.00    +0.000 N 
ATOM     29  O   UNL     1       7.296   4.414  12.362  0.00  0.00    +0.000 OA
ATOM     30  O   UNL     1       8.607   5.777  13.469  0.00  0.00    +0.000 OA
ENDBRANCH  25  28
ENDBRANCH  20  22
ENDBRANCH  17  18
ENDBRANCH   2  17
TORSDOF 7
ENDMDL
MODEL 3
REMARK VINA RESULT:      -7.7      5.785      7.789
REMARK  Name = 
REMARK  8 active torsions:
REMARK  status: ('A' for Active; 'I' for Inactive)
REMARK    1  A    between atoms: C_1  and  C_2
REMARK    2  A    between atoms: C_2  and  C_3
REMARK    3  A    between atoms: C_3  and  C_4
REMARK    4  A    between atoms: N_6  and  C_7
REMARK    5  A    between atoms: C_10  and  N_11
REMARK    6  A    between atoms: N_16  and  N_17
REMARK    7  A    between atoms: C_18  and  C_20
REMARK    8  A    between atoms: C_25  and  N_26
REMARK                            x       y       z     vdW  Elec       q    Type
REMARK                         _______ _______ _______ _____ _____    ______ ____
ROOT
ATOM      1  C   UNL     1       3.430   2.078  17.824  0.00  0.00    +0.000 C 
ATOM      2  C   UNL     1       4.031   3.305  18.468  0.00  0.00    +0.000 C 
ATOM      3  N   UNL     1       4.903   4.081  17.882  0.00  0.00    +0.000 NA
ENDROOT
BRANCH   3   4
ATOM      4  N   UNL     1       5.260   3.766  16.594  0.00  0.00    +0.000 N 
ATOM      5  C   UNL     1       5.215   4.709  15.584  0.00  0.00    +0.000 C 
ATOM      6  O   UNL     1       4.831   5.877  15.740  0.00  0.00    +0.000 OA
ATOM      7  H   UNL     1       5.553   2.814  16.404  0.00  0.00    +0.000 HD
BRANCH   5   8
ATOM      8  C   UNL     1       5.735   4.309  14.228  0.00  0.00    +0.000 A 
ATOM      9  C   UNL     1       4.891   3.457  13.488  0.00  0.00    +0.000 A 
ATOM     10  C   UNL     1       5.242   3.004  12.208  0.00  0.00    +0.000 A 
ATOM     11  C   UNL     1       6.446   3.391  11.627  0.00  0.00    +0.000 A 
ATOM     12  C   UNL     1       7.309   4.219  12.335  0.00  0.00    +0.000 A 
ATOM     13  C   UNL     1       6.952   4.661  13.624  0.00  0.00    +0.000 A 
BRANCH  13  14
ATOM     14  N   UNL     1       7.925   5.502  14.273  0.00  0.00    +0.000 N 
ATOM     15  O   UNL     1       8.803   5.993  13.562  0.00  0.00    +0.000 OA
ATOM     16  O   UNL     1       7.832   5.634  15.502  0.00  0.00    +0.000 OA
ENDBRANCH  13  14
ENDBRANCH   5   8
ENDBRANCH   3   4
BRANCH   2  17
ATOM     17  C   UNL     1       3.510   3.717  19.827  0.00  0.00    +0.000 C 
BRANCH  17  18
ATOM     18  C   UNL     1       2.579   4.906  19.887  0.00  0.00    +0.000 C 
ATOM     19  O   UNL     1       1.371   4.733  20.053  0.00  0.00    +0.000 OA
ATOM     20  N   UNL     1       3.151   6.141  19.626  0.00  0.00    +0.000 N 
ATOM     21  H   UNL     1       3.995   6.125  19.062  0.00  0.00    +0.000 HD
BRANCH  20  22
ATOM     22  C   UNL     1       2.367   7.319  19.567  0.00  0.00    +0.000 A 
ATOM     23  C   UNL     1       1.718   7.831  20.699  0.00  0.00    +0.000 A 
ATOM     24  C   UNL     1       0.958   9.007  20.612  0.00  0.00    +0.000 A 
ATOM     25  C   UNL     1       0.821   9.647  19.375  0.00  0.00    +0.000 A 
ATOM     26  C   UNL     1       1.454   9.129  18.236  0.00  0.00    +0.000 A 
ATOM     27  C   UNL     1       2.247   7.981  18.343  0.00  0.00    +0.000 A 
BRANCH  25  28
ATOM     28  N   UNL     1       0.016  10.871  19.266  0.00  0.00    +0.000 N 
ATOM     29  O   UNL     1       0.525  11.846  18.695  0.00  0.00    +0.000 OA
ATOM     30  O   UNL     1      -1.123  10.854  19.742  0.00  0.00    +0.000 OA
ENDBRANCH  25  28
ENDBRANCH  20  22
ENDBRANCH  17  18
ENDBRANCH   2  17
TORSDOF 7
ENDMDL
MODEL 4
REMARK VINA RESULT:      -7.6      6.707     10.471
REMARK  Name = 
REMARK  8 active torsions:
REMARK  status: ('A' for Active; 'I' for Inactive)
REMARK    1  A    between atoms: C_1  and  C_2
REMARK    2  A    between atoms: C_2  and  C_3
REMARK    3  A    between atoms: C_3  and  C_4
REMARK    4  A    between atoms: N_6  and  C_7
REMARK    5  A    between atoms: C_10  and  N_11
REMARK    6  A    between atoms: N_16  and  N_17
REMARK    7  A    between atoms: C_18  and  C_20
REMARK    8  A    between atoms: C_25  and  N_26
REMARK                            x       y       z     vdW  Elec       q    Type
REMARK                         _______ _______ _______ _____ _____    ______ ____
ROOT
ATOM      1  C   UNL     1      -0.661  10.375  18.344  0.00  0.00    +0.000 C 
ATOM      2  C   UNL     1       0.766  10.567  18.798  0.00  0.00    +0.000 C 
ATOM      3  N   UNL     1       1.114  11.326  19.804  0.00  0.00    +0.000 NA
ENDROOT
BRANCH   3   4
ATOM      4  N   UNL     1       0.108  11.951  20.497  0.00  0.00    +0.000 N 
ATOM      5  C   UNL     1      -0.121  11.682  21.833  0.00  0.00    +0.000 C 
ATOM      6  O   UNL     1       0.522  10.854  22.495  0.00  0.00    +0.000 OA
ATOM      7  H   UNL     1      -0.470  12.616  19.994  0.00  0.00    +0.000 HD
BRANCH   5   8
ATOM      8  C   UNL     1      -1.167  12.498  22.545  0.00  0.00    +0.000 A 
ATOM      9  C   UNL     1      -2.252  11.764  23.065  0.00  0.00    +0.000 A 
ATOM     10  C   UNL     1      -3.301  12.389  23.755  0.00  0.00    +0.000 A 
ATOM     11  C   UNL     1      -3.298  13.767  23.947  0.00  0.00    +0.000 A 
ATOM     12  C   UNL     1      -2.251  14.524  23.434  0.00  0.00    +0.000 A 
ATOM     13  C   UNL     1      -1.207  13.888  22.735  0.00  0.00    +0.000 A 
BRANCH  13  14
ATOM     14  N   UNL     1      -0.182  14.768  22.234  0.00  0.00    +0.000 N 
ATOM     15  O   UNL     1       0.641  15.188  23.049  0.00  0.00    +0.000 OA
ATOM     16  O   UNL     1      -0.231  15.071  21.033  0.00  0.00    +0.000 OA
ENDBRANCH  13  14
ENDBRANCH   5   8
ENDBRANCH   3   4
BRANCH   2  17
ATOM     17  C   UNL     1       1.841   9.750  18.116  0.00  0.00    +0.000 C 
BRANCH  17  18
ATOM     18  C   UNL     1       2.071   8.342  18.615  0.00  0.00    +0.000 C 
ATOM     19  O   UNL     1       1.813   8.055  19.785  0.00  0.00    +0.000 OA
ATOM     20  N   UNL     1       2.685   7.475  17.727  0.00  0.00    +0.000 N 
ATOM     21  H   UNL     1       3.259   7.909  17.012  0.00  0.00    +0.000 HD
BRANCH  20  22
ATOM     22  C   UNL     1       3.033   6.155  18.107  0.00  0.00    +0.000 A 
ATOM     23  C   UNL     1       2.083   5.126  18.157  0.00  0.00    +0.000 A 
ATOM     24  C   UNL     1       2.459   3.827  18.525  0.00  0.00    +0.000 A 
ATOM     25  C   UNL     1       3.789   3.571  18.881  0.00  0.00    +0.000 A 
ATOM     26  C   UNL     1       4.740   4.600  18.850  0.00  0.00    +0.000 A 
ATOM     27  C   UNL     1       4.363   5.883  18.437  0.00  0.00    +0.000 A 
BRANCH  25  28
ATOM     28  N   UNL     1       4.195   2.218  19.283  0.00  0.00    +0.000 N 
ATOM     29  O   UNL     1       3.779   1.266  18.606  0.00  0.00    +0.000 OA
ATOM     30  O   UNL     1       4.933   2.107  20.268  0.00  0.00    +0.000 OA
ENDBRANCH  25  28
ENDBRANCH  20  22
ENDBRANCH  17  18
ENDBRANCH   2  17
TORSDOF 7
ENDMDL
MODEL 5
REMARK VINA RESULT:      -7.6      0.988      1.529
REMARK  Name = 
REMARK  8 active torsions:
REMARK  status: ('A' for Active; 'I' for Inactive)
REMARK    1  A    between atoms: C_1  and  C_2
REMARK    2  A    between atoms: C_2  and  C_3
REMARK    3  A    between atoms: C_3  and  C_4
REMARK    4  A    between atoms: N_6  and  C_7
REMARK    5  A    between atoms: C_10  and  N_11
REMARK    6  A    between atoms: N_16  and  N_17
REMARK    7  A    between atoms: C_18  and  C_20
REMARK    8  A    between atoms: C_25  and  N_26
REMARK                            x       y       z     vdW  Elec       q    Type
REMARK                         _______ _______ _______ _____ _____    ______ ____
ROOT
ATOM      1  C   UNL     1       7.774   5.624  19.528  0.00  0.00    +0.000 C 
ATOM      2  C   UNL     1       7.156   6.373  18.372  0.00  0.00    +0.000 C 
ATOM      3  N   UNL     1       5.888   6.315  18.062  0.00  0.00    +0.000 NA
ENDROOT
BRANCH   3   4
ATOM      4  N   UNL     1       5.079   5.549  18.864  0.00  0.00    +0.000 N 
ATOM      5  C   UNL     1       3.786   5.235  18.492  0.00  0.00    +0.000 C 
ATOM      6  O   UNL     1       3.248   5.631  17.448  0.00  0.00    +0.000 OA
ATOM      7  H   UNL     1       5.459   5.224  19.746  0.00  0.00    +0.000 HD
BRANCH   5   8
ATOM      8  C   UNL     1       3.010   4.294  19.375  0.00  0.00    +0.000 A 
ATOM      9  C   UNL     1       2.698   4.791  20.657  0.00  0.00    +0.000 A 
ATOM     10  C   UNL     1       1.978   4.028  21.587  0.00  0.00    +0.000 A 
ATOM     11  C   UNL     1       1.546   2.745  21.266  0.00  0.00    +0.000 A 
ATOM     12  C   UNL     1       1.848   2.218  20.016  0.00  0.00    +0.000 A 
ATOM     13  C   UNL     1       2.580   2.988  19.092  0.00  0.00    +0.000 A 
BRANCH  13  14
ATOM     14  N   UNL     1       2.851   2.339  17.834  0.00  0.00    +0.000 N 
ATOM     15  O   UNL     1       3.767   1.515  17.816  0.00  0.00    +0.000 OA
ATOM     16  O   UNL     1       2.173   2.690  16.857  0.00  0.00    +0.000 OA
ENDBRANCH  13  14
ENDBRANCH   5   8
ENDBRANCH   3   4
BRANCH   2  17
ATOM     17  C   UNL     1       8.036   7.327  17.597  0.00  0.00    +0.000 C 
BRANCH  17  18
ATOM     18  C   UNL     1       8.096   8.762  18.068  0.00  0.00    +0.000 C 
ATOM     19  O   UNL     1       7.309   9.592  17.611  0.00  0.00    +0.000 OA
ATOM     20  N   UNL     1       9.141   9.080  18.920  0.00  0.00    +0.000 N 
ATOM     21  H   UNL     1       9.960   8.483  18.855  0.00  0.00    +0.000 HD
BRANCH  20  22
ATOM     22  C   UNL     1       9.356  10.409  19.360  0.00  0.00    +0.000 A 
ATOM     23  C   UNL     1       9.205  10.774  20.705  0.00  0.00    +0.000 A 
ATOM     24  C   UNL     1       9.436  12.095  21.114  0.00  0.00    +0.000 A 
ATOM     25  C   UNL     1       9.782  13.059  20.159  0.00  0.00    +0.000 A 
ATOM     26  C   UNL     1       9.917  12.703  18.810  0.00  0.00    +0.000 A 
ATOM     27  C   UNL     1       9.729  11.372  18.420  0.00  0.00    +0.000 A 
BRANCH  25  28
ATOM     28  N   UNL     1      10.013  14.451  20.570  0.00  0.00    +0.000 N 
ATOM     29  O   UNL     1      10.407  14.652  21.728  0.00  0.00    +0.000 OA
ATOM     30  O   UNL     1       9.808  15.338  19.736  0.00  0.00    +0.000 OA
ENDBRANCH  25  28
ENDBRANCH  20  22
ENDBRANCH  17  18
ENDBRANCH   2  17
TORSDOF 7
ENDMDL
MODEL 6
REMARK VINA RESULT:      -7.6      5.449      7.987
REMARK  Name = 
REMARK  8 active torsions:
REMARK  status: ('A' for Active; 'I' for Inactive)
REMARK    1  A    between atoms: C_1  and  C_2
REMARK    2  A    between atoms: C_2  and  C_3
REMARK    3  A    between atoms: C_3  and  C_4
REMARK    4  A    between atoms: N_6  and  C_7
REMARK    5  A    between atoms: C_10  and  N_11
REMARK    6  A    between atoms: N_16  and  N_17
REMARK    7  A    between atoms: C_18  and  C_20
REMARK    8  A    between atoms: C_25  and  N_26
REMARK                            x       y       z     vdW  Elec       q    Type
REMARK                         _______ _______ _______ _____ _____    ______ ____
ROOT
ATOM      1  C   UNL     1       0.887   4.056  20.417  0.00  0.00    +0.000 C 
ATOM      2  C   UNL     1       2.316   4.321  20.006  0.00  0.00    +0.000 C 
ATOM      3  N   UNL     1       2.894   5.490  20.096  0.00  0.00    +0.000 NA
ENDROOT
BRANCH   3   4
ATOM      4  N   UNL     1       2.154   6.517  20.625  0.00  0.00    +0.000 N 
ATOM      5  C   UNL     1       2.010   7.719  19.958  0.00  0.00    +0.000 C 
ATOM      6  O   UNL     1       2.545   7.978  18.870  0.00  0.00    +0.000 OA
ATOM      7  H   UNL     1       1.719   6.370  21.529  0.00  0.00    +0.000 HD
BRANCH   5   8
ATOM      8  C   UNL     1       1.085   8.747  20.555  0.00  0.00    +0.000 A 
ATOM      9  C   UNL     1       0.741   8.535  21.905  0.00  0.00    +0.000 A 
ATOM     10  C   UNL     1      -0.109   9.411  22.595  0.00  0.00    +0.000 A 
ATOM     11  C   UNL     1      -0.640  10.528  21.958  0.00  0.00    +0.000 A 
ATOM     12  C   UNL     1      -0.334  10.760  20.623  0.00  0.00    +0.000 A 
ATOM     13  C   UNL     1       0.514   9.869  19.936  0.00  0.00    +0.000 A 
BRANCH  13  14
ATOM     14  N   UNL     1       0.753  10.197  18.552  0.00  0.00    +0.000 N 
ATOM     15  O   UNL     1       1.671  10.984  18.315  0.00  0.00    +0.000 OA
ATOM     16  O   UNL     1      -0.008   9.697  17.711  0.00  0.00    +0.000 OA
ENDBRANCH  13  14
ENDBRANCH   5   8
ENDBRANCH   3   4
BRANCH   2  17
ATOM     17  C   UNL     1       3.157   3.142  19.569  0.00  0.00    +0.000 C 
BRANCH  17  18
ATOM     18  C   UNL     1       4.302   3.413  18.620  0.00  0.00    +0.000 C 
ATOM     19  O   UNL     1       5.457   3.441  19.045  0.00  0.00    +0.000 OA
ATOM     20  N   UNL     1       3.950   3.739  17.320  0.00  0.00    +0.000 N 
ATOM     21  H   UNL     1       3.025   4.137  17.200  0.00  0.00    +0.000 HD
BRANCH  20  22
ATOM     22  C   UNL     1       4.928   4.099  16.360  0.00  0.00    +0.000 A 
ATOM     23  C   UNL     1       6.172   4.624  16.736  0.00  0.00    +0.000 A 
ATOM     24  C   UNL     1       7.124   4.961  15.763  0.00  0.00    +0.000 A 
ATOM     25  C   UNL     1       6.809   4.804  14.409  0.00  0.00    +0.000 A 
ATOM     26  C   UNL     1       5.559   4.295  14.027  0.00  0.00    +0.000 A 
ATOM     27  C   UNL     1       4.633   3.919  15.007  0.00  0.00    +0.000 A 
BRANCH  25  28
ATOM     28  N   UNL     1       7.792   5.166  13.378  0.00  0.00    +0.000 N 
ATOM     29  O   UNL     1       7.682   4.632  12.265  0.00  0.00    +0.000 OA
ATOM     30  O   UNL     1       8.664   5.987  13.679  0.00  0.00    +0.000 OA
ENDBRANCH  25  28
ENDBRANCH  20  22
ENDBRANCH  17  18
ENDBRANCH   2  17
TORSDOF 7
ENDMDL
MODEL 7
REMARK VINA RESULT:      -7.5      5.691      8.940
REMARK  Name = 
REMARK  8 active torsions:
REMARK  status: ('A' for Active; 'I' for Inactive)
REMARK    1  A    between atoms: C_1  and  C_2
REMARK    2  A    between atoms: C_2  and  C_3
REMARK    3  A    between atoms: C_3  and  C_4
REMARK    4  A    between atoms: N_6  and  C_7
REMARK    5  A    between atoms: C_10  and  N_11
REMARK    6  A    between atoms: N_16  and  N_17
REMARK    7  A    between atoms: C_18  and  C_20
REMARK    8  A    between atoms: C_25  and  N_26
REMARK                            x       y       z     vdW  Elec       q    Type
REMARK                         _______ _______ _______ _____ _____    ______ ____
ROOT
ATOM      1  C   UNL     1       1.933   8.285  18.936  0.00  0.00    +0.000 C 
ATOM      2  C   UNL     1       1.969   7.283  20.067  0.00  0.00    +0.000 C 
ATOM      3  N   UNL     1       1.209   7.355  21.126  0.00  0.00    +0.000 NA
ENDROOT
BRANCH   3   4
ATOM      4  N   UNL     1       0.307   8.388  21.185  0.00  0.00    +0.000 N 
ATOM      5  C   UNL     1       0.481   9.446  22.056  0.00  0.00    +0.000 C 
ATOM      6  O   UNL     1       1.421   9.538  22.859  0.00  0.00    +0.000 OA
ATOM      7  H   UNL     1      -0.498   8.348  20.570  0.00  0.00    +0.000 HD
BRANCH   5   8
ATOM      8  C   UNL     1      -0.491  10.593  21.971  0.00  0.00    +0.000 A 
ATOM      9  C   UNL     1      -1.194  10.875  23.159  0.00  0.00    +0.000 A 
ATOM     10  C   UNL     1      -2.131  11.916  23.231  0.00  0.00    +0.000 A 
ATOM     11  C   UNL     1      -2.393  12.709  22.118  0.00  0.00    +0.000 A 
ATOM     12  C   UNL     1      -1.729  12.450  20.925  0.00  0.00    +0.000 A 
ATOM     13  C   UNL     1      -0.797  11.396  20.861  0.00  0.00    +0.000 A 
BRANCH  13  14
ATOM     14  N   UNL     1      -0.177  11.206  19.573  0.00  0.00    +0.000 N 
ATOM     15  O   UNL     1      -0.727  10.420  18.799  0.00  0.00    +0.000 OA
ATOM     16  O   UNL     1       0.883  11.812  19.358  0.00  0.00    +0.000 OA
ENDBRANCH  13  14
ENDBRANCH   5   8
ENDBRANCH   3   4
BRANCH   2  17
ATOM     17  C   UNL     1       2.861   6.072  19.909  0.00  0.00    +0.000 C 
BRANCH  17  18
ATOM     18  C   UNL     1       3.234   5.657  18.504  0.00  0.00    +0.000 C 
ATOM     19  O   UNL     1       2.413   5.071  17.798  0.00  0.00    +0.000 OA
ATOM     20  N   UNL     1       4.554   5.866  18.139  0.00  0.00    +0.000 N 
ATOM     21  H   UNL     1       5.222   5.904  18.902  0.00  0.00    +0.000 HD
BRANCH  20  22
ATOM     22  C   UNL     1       5.047   5.440  16.881  0.00  0.00    +0.000 A 
ATOM     23  C   UNL     1       5.105   6.305  15.779  0.00  0.00    +0.000 A 
ATOM     24  C   UNL     1       5.609   5.858  14.550  0.00  0.00    +0.000 A 
ATOM     25  C   UNL     1       6.021   4.526  14.419  0.00  0.00    +0.000 A 
ATOM     26  C   UNL     1       5.949   3.652  15.513  0.00  0.00    +0.000 A 
ATOM     27  C   UNL     1       5.487   4.121  16.748  0.00  0.00    +0.000 A 
BRANCH  25  28
ATOM     28  N   UNL     1       6.538   4.039  13.133  0.00  0.00    +0.000 N 
ATOM     29  O   UNL     1       5.945   3.092  12.595  0.00  0.00    +0.000 OA
ATOM     30  O   UNL     1       7.527   4.607  12.659  0.00  0.00    +0.000 OA
ENDBRANCH  25  28
ENDBRANCH  20  22
ENDBRANCH  17  18
ENDBRANCH   2  17
TORSDOF 7
ENDMDL
MODEL 8
REMARK VINA RESULT:      -7.5      2.881      4.255
REMARK  Name = 
REMARK  8 active torsions:
REMARK  status: ('A' for Active; 'I' for Inactive)
REMARK    1  A    between atoms: C_1  and  C_2
REMARK    2  A    between atoms: C_2  and  C_3
REMARK    3  A    between atoms: C_3  and  C_4
REMARK    4  A    between atoms: N_6  and  C_7
REMARK    5  A    between atoms: C_10  and  N_11
REMARK    6  A    between atoms: N_16  and  N_17
REMARK    7  A    between atoms: C_18  and  C_20
REMARK    8  A    between atoms: C_25  and  N_26
REMARK                            x       y       z     vdW  Elec       q    Type
REMARK                         _______ _______ _______ _____ _____    ______ ____
ROOT
ATOM      1  C   UNL     1       7.465   9.439  17.479  0.00  0.00    +0.000 C 
ATOM      2  C   UNL     1       8.490   8.881  18.439  0.00  0.00    +0.000 C 
ATOM      3  N   UNL     1       8.535   7.629  18.808  0.00  0.00    +0.000 NA
ENDROOT
BRANCH   3   4
ATOM      4  N   UNL     1       7.610   6.778  18.258  0.00  0.00    +0.000 N 
ATOM      5  C   UNL     1       7.103   5.708  18.971  0.00  0.00    +0.000 C 
ATOM      6  O   UNL     1       7.451   5.413  20.123  0.00  0.00    +0.000 OA
ATOM      7  H   UNL     1       7.312   6.955  17.305  0.00  0.00    +0.000 HD
BRANCH   5   8
ATOM      8  C   UNL     1       6.006   4.896  18.333  0.00  0.00    +0.000 A 
ATOM      9  C   UNL     1       5.170   4.203  19.232  0.00  0.00    +0.000 A 
ATOM     10  C   UNL     1       4.105   3.409  18.784  0.00  0.00    +0.000 A 
ATOM     11  C   UNL     1       3.841   3.283  17.424  0.00  0.00    +0.000 A 
ATOM     12  C   UNL     1       4.654   3.940  16.508  0.00  0.00    +0.000 A 
ATOM     13  C   UNL     1       5.728   4.728  16.968  0.00  0.00    +0.000 A 
BRANCH  13  14
ATOM     14  N   UNL     1       6.515   5.352  15.934  0.00  0.00    +0.000 N 
ATOM     15  O   UNL     1       6.047   6.364  15.409  0.00  0.00    +0.000 OA
ATOM     16  O   UNL     1       7.580   4.801  15.621  0.00  0.00    +0.000 OA
ENDBRANCH  13  14
ENDBRANCH   5   8
ENDBRANCH   3   4
BRANCH   2  17
ATOM     17  C   UNL     1       9.590   9.805  18.913  0.00  0.00    +0.000 C 
BRANCH  17  18
ATOM     18  C   UNL     1       9.226  11.246  19.182  0.00  0.00    +0.000 C 
ATOM     19  O   UNL     1       8.831  11.582  20.299  0.00  0.00    +0.000 OA
ATOM     20  N   UNL     1       9.249  12.094  18.086  0.00  0.00    +0.000 N 
ATOM     21  H   UNL     1       9.124  11.650  17.182  0.00  0.00    +0.000 HD
BRANCH  20  22
ATOM     22  C   UNL     1       8.843  13.448  18.193  0.00  0.00    +0.000 A 
ATOM     23  C   UNL     1       9.688  14.432  18.723  0.00  0.00    +0.000 A 
ATOM     24  C   UNL     1       9.263  15.765  18.805  0.00  0.00    +0.000 A 
ATOM     25  C   UNL     1       7.970  16.102  18.387  0.00  0.00    +0.000 A 
ATOM     26  C   UNL     1       7.115  15.118  17.872  0.00  0.00    +0.000 A 
ATOM     27  C   UNL     1       7.565  13.798  17.752  0.00  0.00    +0.000 A 
BRANCH  25  28
ATOM     28  N   UNL     1       7.506  17.493  18.480  0.00  0.00    +0.000 N 
ATOM     29  O   UNL     1       8.326  18.391  18.241  0.00  0.00    +0.000 OA
ATOM     30  O   UNL     1       6.324  17.685  18.783  0.00  0.00    +0.000 OA
ENDBRANCH  25  28
ENDBRANCH  20  22
ENDBRANCH  17  18
ENDBRANCH   2  17
TORSDOF 7
ENDMDL
MODEL 9
REMARK VINA RESULT:      -7.5      7.177      9.127
REMARK  Name = 
REMARK  8 active torsions:
REMARK  status: ('A' for Active; 'I' for Inactive)
REMARK    1  A    between atoms: C_1  and  C_2
REMARK    2  A    between atoms: C_2  and  C_3
REMARK    3  A    between atoms: C_3  and  C_4
REMARK    4  A    between atoms: N_6  and  C_7
REMARK    5  A    between atoms: C_10  and  N_11
REMARK    6  A    between atoms: N_16  and  N_17
REMARK    7  A    between atoms: C_18  and  C_20
REMARK    8  A    between atoms: C_25  and  N_26
REMARK                            x       y       z     vdW  Elec       q    Type
REMARK                         _______ _______ _______ _____ _____    ______ ____
ROOT
ATOM      1  C   UNL     1       1.491   8.955  17.567  0.00  0.00    +0.000 C 
ATOM      2  C   UNL     1       1.543   9.097  19.070  0.00  0.00    +0.000 C 
ATOM      3  N   UNL     1       1.946   8.151  19.876  0.00  0.00    +0.000 NA
ENDROOT
BRANCH   3   4
ATOM      4  N   UNL     1       2.372   6.978  19.306  0.00  0.00    +0.000 N 
ATOM      5  C   UNL     1       2.173   5.761  19.929  0.00  0.00    +0.000 C 
ATOM      6  O   UNL     1       1.637   5.628  21.039  0.00  0.00    +0.000 OA
ATOM      7  H   UNL     1       2.846   7.033  18.411  0.00  0.00    +0.000 HD
BRANCH   5   8
ATOM      8  C   UNL     1       2.567   4.515  19.179  0.00  0.00    +0.000 A 
ATOM      9  C   UNL     1       1.530   3.582  18.978  0.00  0.00    +0.000 A 
ATOM     10  C   UNL     1       1.747   2.377  18.293  0.00  0.00    +0.000 A 
ATOM     11  C   UNL     1       3.007   2.068  17.789  0.00  0.00    +0.000 A 
ATOM     12  C   UNL     1       4.056   2.959  17.982  0.00  0.00    +0.000 A 
ATOM     13  C   UNL     1       3.830   4.163  18.679  0.00  0.00    +0.000 A 
BRANCH  13  14
ATOM     14  N   UNL     1       4.989   5.005  18.835  0.00  0.00    +0.000 N 
ATOM     15  O   UNL     1       5.086   5.968  18.073  0.00  0.00    +0.000 OA
ATOM     16  O   UNL     1       5.820   4.673  19.694  0.00  0.00    +0.000 OA
ENDBRANCH  13  14
ENDBRANCH   5   8
ENDBRANCH   3   4
BRANCH   2  17
ATOM     17  C   UNL     1       1.214  10.448  19.663  0.00  0.00    +0.000 C 
BRANCH  17  18
ATOM     18  C   UNL     1      -0.154  10.625  20.282  0.00  0.00    +0.000 C 
ATOM     19  O   UNL     1      -1.022   9.770  20.107  0.00  0.00    +0.000 OA
ATOM     20  N   UNL     1      -0.380  11.832  20.924  0.00  0.00    +0.000 N 
ATOM     21  H   UNL     1       0.193  12.610  20.614  0.00  0.00    +0.000 HD
BRANCH  20  22
ATOM     22  C   UNL     1      -1.649  12.152  21.467  0.00  0.00    +0.000 A 
ATOM     23  C   UNL     1      -2.671  12.700  20.680  0.00  0.00    +0.000 A 
ATOM     24  C   UNL     1      -3.921  12.996  21.243  0.00  0.00    +0.000 A 
ATOM     25  C   UNL     1      -4.129  12.775  22.610  0.00  0.00    +0.000 A 
ATOM     26  C   UNL     1      -3.104  12.243  23.404  0.00  0.00    +0.000 A 
ATOM     27  C   UNL     1      -1.875  11.909  22.823  0.00  0.00    +0.000 A 
BRANCH  25  28
ATOM     28  N   UNL     1      -5.429  13.094  23.216  0.00  0.00    +0.000 N 
ATOM     29  O   UNL     1      -6.356  12.288  23.049  0.00  0.00    +0.000 OA
ATOM     30  O   UNL     1      -5.519  14.141  23.864  0.00  0.00    +0.000 OA
ENDBRANCH  25  28
ENDBRANCH  20  22
ENDBRANCH  17  18
ENDBRANCH   2  17
TORSDOF 7
ENDMDL
