MODEL 1
REMARK VINA RESULT:      -7.9      0.000      0.000
REMARK  Name = 
REMARK  15 active torsions:
REMARK  status: ('A' for Active; 'I' for Inactive)
REMARK    1  A    between atoms: C_1  and  C_2
REMARK    2  A    between atoms: C_2  and  C_3
REMARK    3  A    between atoms: C_3  and  C_4
REMARK    4  A    between atoms: C_3  and  O_6
REMARK    5  A    between atoms: C_4  and  C_5
REMARK    6  A    between atoms: O_6  and  C_7
REMARK    7  A    between atoms: C_9  and  C_10
REMARK    8  A    between atoms: C_10  and  O_12
REMARK    9  A    between atoms: C_14  and  N_15
REMARK   10  A    between atoms: N_15  and  C_16
REMARK   11  A    between atoms: C_16  and  C_17
REMARK   12  A    between atoms: C_20  and  S_21
REMARK   13  A    between atoms: S_21  and  C_22
REMARK   14  A    between atoms: C_30  and  N_31
REMARK   15  A    between atoms: C_32  and  C_33
REMARK                            x       y       z     vdW  Elec       q    Type
REMARK                         _______ _______ _______ _____ _____    ______ ____
ROOT
ATOM      1  C   UNL     1       5.427   4.086  16.409  0.00  0.00    +0.000 C 
ATOM      2  C   UNL     1       6.227   4.470  17.645  0.00  0.00    +0.000 C 
ATOM      3  C   UNL     1       6.631   5.714  17.974  0.00  0.00    +0.000 C 
ATOM      4  C   UNL     1       6.260   6.919  17.169  0.00  0.00    +0.000 C 
ATOM      5  C   UNL     1       5.043   6.667  16.278  0.00  0.00    +0.000 C 
ATOM      6  C   UNL     1       5.260   5.309  15.463  0.00  0.00    +0.000 C 
ENDROOT
BRANCH   6   7
ATOM      7  N   UNL     1       6.468   5.359  14.551  0.00  0.00    +0.000 N 
ATOM      8  C   UNL     1       6.640   4.556  13.449  0.00  0.00    +0.000 C 
ATOM      9  C   UNL     1       7.978   4.701  12.746  0.00  0.00    +0.000 C 
ATOM     10  O   UNL     1       5.797   3.750  13.070  0.00  0.00    +0.000 OA
ATOM     11  H   UNL     1       7.295   5.844  14.891  0.00  0.00    +0.000 HD
ENDBRANCH   6   7
BRANCH   3  12
ATOM     12  C   UNL     1       7.541   6.010  19.130  0.00  0.00    +0.000 C 
ATOM     13  O   UNL     1       7.454   5.394  20.182  0.00  0.00    +0.000 OA
BRANCH  12  14
ATOM     14  O   UNL     1       8.398   7.012  18.938  0.00  0.00    +0.000 OA
ATOM     15  H   UNL     1       7.978   7.868  18.760  0.00  0.00    +0.000 HD
ENDBRANCH  12  14
ENDBRANCH   3  12
BRANCH   5  16
ATOM     16  N   UNL     1       3.783   7.075  16.979  0.00  0.00    +0.000 NA
ATOM     17  H   UNL     1       3.035   6.575  16.487  0.00  0.00    +0.000 HD
BRANCH  16  18
ATOM     18  C   UNL     1       3.485   6.922  18.408  0.00  0.00    +0.000 C 
BRANCH  18  19
ATOM     19  C   UNL     1       2.318   7.622  19.123  0.00  0.00    +0.000 A 
ATOM     20  C   UNL     1       1.994   7.412  20.480  0.00  0.00    +0.000 A 
ATOM     21  C   UNL     1       1.178   8.331  21.195  0.00  0.00    +0.000 A 
ATOM     22  C   UNL     1       0.669   9.472  20.570  0.00  0.00    +0.000 A 
ATOM     23  C   UNL     1       0.902   9.643  19.211  0.00  0.00    +0.000 A 
ATOM     24  C   UNL     1       1.725   8.737  18.522  0.00  0.00    +0.000 A 
BRANCH  22  25
ATOM     25  S   UNL     1      -0.249  10.727  21.443  0.00  0.00    +0.000 S 
BRANCH  25  26
ATOM     26  C   UNL     1       0.122  12.183  20.467  0.00  0.00    +0.000 A 
ATOM     27  C   UNL     1      -0.699  12.597  19.402  0.00  0.00    +0.000 A 
ATOM     28  C   UNL     1      -0.378  13.742  18.667  0.00  0.00    +0.000 A 
ATOM     29  C   UNL     1       0.753  14.488  18.993  0.00  0.00    +0.000 A 
ATOM     30  C   UNL     1       1.557  14.100  20.062  0.00  0.00    +0.000 A 
ATOM     31  C   UNL     1       1.237  12.954  20.799  0.00  0.00    +0.000 A 
ENDBRANCH  25  26
ENDBRANCH  22  25
ENDBRANCH  18  19
ENDBRANCH  16  18
ENDBRANCH   5  16
BRANCH   1  32
ATOM     32  O   UNL     1       4.155   3.434  16.591  0.00  0.00    +0.000 OA
BRANCH  32  33
ATOM     33  C   UNL     1       3.553   3.373  17.885  0.00  0.00    +0.000 C 
BRANCH  33  35
ATOM     34  C   UNL     1       1.065   2.927  18.615  0.00  0.00    +0.000 C 
ATOM     35  C   UNL     1       2.063   3.809  17.855  0.00  0.00    +0.000 C 
ENDBRANCH  33  35
BRANCH  33  36
ATOM     36  C   UNL     1       3.801   2.084  18.710  0.00  0.00    +0.000 C 
ATOM     37  C   UNL     1       4.392   2.131  20.110  0.00  0.00    +0.000 C 
ENDBRANCH  33  36
ENDBRANCH  32  33
ENDBRANCH   1  32
TORSDOF 12
ENDMDL
MODEL 2
REMARK VINA RESULT:      -7.8      5.093     10.308
REMARK  Name = 
REMARK  15 active torsions:
REMARK  status: ('A' for Active; 'I' for Inactive)
REMARK    1  A    between atoms: C_1  and  C_2
REMARK    2  A    between atoms: C_2  and  C_3
REMARK    3  A    between atoms: C_3  and  C_4
REMARK    4  A    between atoms: C_3  and  O_6
REMARK    5  A    between atoms: C_4  and  C_5
REMARK    6  A    between atoms: O_6  and  C_7
REMARK    7  A    between atoms: C_9  and  C_10
REMARK    8  A    between atoms: C_10  and  O_12
REMARK    9  A    between atoms: C_14  and  N_15
REMARK   10  A    between atoms: N_15  and  C_16
REMARK   11  A    between atoms: C_16  and  C_17
REMARK   12  A    between atoms: C_20  and  S_21
REMARK   13  A    between atoms: S_21  and  C_22
REMARK   14  A    between atoms: C_30  and  N_31
REMARK   15  A    between atoms: C_32  and  C_33
REMARK                            x       y       z     vdW  Elec       q    Type
REMARK                         _______ _______ _______ _____ _____    ______ ____
ROOT
ATOM      1  C   UNL     1      -2.288  12.110  18.606  0.00  0.00    +0.000 C 
ATOM      2  C   UNL     1      -0.907  12.564  18.156  0.00  0.00    +0.000 C 
ATOM      3  C   UNL     1       0.088  12.991  18.960  0.00  0.00    +0.000 C 
ATOM      4  C   UNL     1      -0.027  12.996  20.452  0.00  0.00    +0.000 C 
ATOM      5  C   UNL     1      -1.130  12.062  20.949  0.00  0.00    +0.000 C 
ATOM      6  C   UNL     1      -2.474  12.352  20.132  0.00  0.00    +0.000 C 
ENDROOT
BRANCH   6   7
ATOM      7  N   UNL     1      -2.981  13.767  20.320  0.00  0.00    +0.000 N 
ATOM      8  C   UNL     1      -4.274  14.088  20.653  0.00  0.00    +0.000 C 
ATOM      9  C   UNL     1      -4.585  15.574  20.679  0.00  0.00    +0.000 C 
ATOM     10  O   UNL     1      -5.136  13.246  20.882  0.00  0.00    +0.000 OA
ATOM     11  H   UNL     1      -2.403  14.524  19.963  0.00  0.00    +0.000 HD
ENDBRANCH   6   7
BRANCH   3  12
ATOM     12  C   UNL     1       1.378  13.563  18.448  0.00  0.00    +0.000 C 
ATOM     13  O   UNL     1       1.768  14.667  18.797  0.00  0.00    +0.000 OA
BRANCH  12  14
ATOM     14  O   UNL     1       2.024  12.807  17.561  0.00  0.00    +0.000 OA
ATOM     15  H   UNL     1       1.851  13.041  16.635  0.00  0.00    +0.000 HD
ENDBRANCH  12  14
ENDBRANCH   3  12
BRANCH   5  16
ATOM     16  N   UNL     1      -0.573  10.706  21.261  0.00  0.00    +0.000 NA
ATOM     17  H   UNL     1      -1.166  10.052  20.741  0.00  0.00    +0.000 HD
BRANCH  16  18
ATOM     18  C   UNL     1       0.805  10.252  21.040  0.00  0.00    +0.000 C 
BRANCH  18  19
ATOM     19  C   UNL     1       1.193   9.115  20.082  0.00  0.00    +0.000 A 
ATOM     20  C   UNL     1       1.447   9.302  18.707  0.00  0.00    +0.000 A 
ATOM     21  C   UNL     1       2.158   8.332  17.948  0.00  0.00    +0.000 A 
ATOM     22  C   UNL     1       2.623   7.158  18.545  0.00  0.00    +0.000 A 
ATOM     23  C   UNL     1       2.299   6.917  19.874  0.00  0.00    +0.000 A 
ATOM     24  C   UNL     1       1.613   7.891  20.616  0.00  0.00    +0.000 A 
BRANCH  22  25
ATOM     25  S   UNL     1       3.631   5.966  17.681  0.00  0.00    +0.000 S 
BRANCH  25  26
ATOM     26  C   UNL     1       2.977   4.423  18.315  0.00  0.00    +0.000 A 
ATOM     27  C   UNL     1       3.705   3.611  19.203  0.00  0.00    +0.000 A 
ATOM     28  C   UNL     1       3.157   2.417  19.679  0.00  0.00    +0.000 A 
ATOM     29  C   UNL     1       1.878   2.027  19.284  0.00  0.00    +0.000 A 
ATOM     30  C   UNL     1       1.140   2.838  18.425  0.00  0.00    +0.000 A 
ATOM     31  C   UNL     1       1.687   4.034  17.948  0.00  0.00    +0.000 A 
ENDBRANCH  25  26
ENDBRANCH  22  25
ENDBRANCH  18  19
ENDBRANCH  16  18
ENDBRANCH   5  16
BRANCH   1  32
ATOM     32  O   UNL     1      -2.715  10.776  18.269  0.00  0.00    +0.000 OA
BRANCH  32  33
ATOM     33  C   UNL     1      -3.781  10.572  17.340  0.00  0.00    +0.000 C 
BRANCH  33  35
ATOM     34  C   UNL     1      -5.764  12.301  17.310  0.00  0.00    +0.000 C 
ATOM     35  C   UNL     1      -5.148  11.033  17.914  0.00  0.00    +0.000 C 
ENDBRANCH  33  35
BRANCH  33  36
ATOM     36  C   UNL     1      -3.536  11.040  15.883  0.00  0.00    +0.000 C 
ATOM     37  C   UNL     1      -3.000  10.096  14.819  0.00  0.00    +0.000 C 
ENDBRANCH  33  36
ENDBRANCH  32  33
ENDBRANCH   1  32
TORSDOF 12
ENDMDL
MODEL 3
REMARK VINA RESULT:      -7.8      4.943      9.877
REMARK  Name = 
REMARK  15 active torsions:
REMARK  status: ('A' for Active; 'I' for Inactive)
REMARK    1  A    between atoms: C_1  and  C_2
REMARK    2  A    between atoms: C_2  and  C_3
REMARK    3  A    between atoms: C_3  and  C_4
REMARK    4  A    between atoms: C_3  and  O_6
REMARK    5  A    between atoms: C_4  and  C_5
REMARK    6  A    between atoms: O_6  and  C_7
REMARK    7  A    between atoms: C_9  and  C_10
REMARK    8  A    between atoms: C_10  and  O_12
REMARK    9  A    between atoms: C_14  and  N_15
REMARK   10  A    between atoms: N_15  and  C_16
REMARK   11  A    between atoms: C_16  and  C_17
REMARK   12  A    between atoms: C_20  and  S_21
REMARK   13  A    between atoms: S_21  and  C_22
REMARK   14  A    between atoms: C_30  and  N_31
REMARK   15  A    between atoms: C_32  and  C_33
REMARK                            x       y       z     vdW  Elec       q    Type
REMARK                         _______ _______ _______ _____ _____    ______ ____
ROOT
ATOM      1  C   UNL     1      -2.101  11.866  18.812  0.00  0.00    +0.000 C 
ATOM      2  C   UNL     1      -0.743  12.237  18.234  0.00  0.00    +0.000 C 
ATOM      3  C   UNL     1       0.355  12.572  18.941  0.00  0.00    +0.000 C 
ATOM      4  C   UNL     1       0.391  12.541  20.436  0.00  0.00    +0.000 C 
ATOM      5  C   UNL     1      -0.720  11.670  21.022  0.00  0.00    +0.000 C 
ATOM      6  C   UNL     1      -2.115  12.075  20.354  0.00  0.00    +0.000 C 
ENDROOT
BRANCH   6   7
ATOM      7  N   UNL     1      -2.499  13.515  20.623  0.00  0.00    +0.000 N 
ATOM      8  C   UNL     1      -3.788  13.951  20.811  0.00  0.00    +0.000 C 
ATOM      9  C   UNL     1      -3.949  15.454  20.956  0.00  0.00    +0.000 C 
ATOM     10  O   UNL     1      -4.754  13.196  20.829  0.00  0.00    +0.000 OA
ATOM     11  H   UNL     1      -1.802  14.231  20.432  0.00  0.00    +0.000 HD
ENDBRANCH   6   7
BRANCH   3  12
ATOM     12  C   UNL     1       1.624  13.068  18.312  0.00  0.00    +0.000 C 
ATOM     13  O   UNL     1       1.916  14.255  18.319  0.00  0.00    +0.000 OA
BRANCH  12  14
ATOM     14  O   UNL     1       2.366  12.137  17.713  0.00  0.00    +0.000 OA
ATOM     15  H   UNL     1       3.162  12.480  17.278  0.00  0.00    +0.000 HD
ENDBRANCH  12  14
ENDBRANCH   3  12
BRANCH   5  16
ATOM     16  N   UNL     1      -0.232  10.271  21.246  0.00  0.00    +0.000 NA
ATOM     17  H   UNL     1      -0.849   9.683  20.678  0.00  0.00    +0.000 HD
BRANCH  16  18
ATOM     18  C   UNL     1       1.125   9.767  21.006  0.00  0.00    +0.000 C 
BRANCH  18  19
ATOM     19  C   UNL     1       1.461   8.634  20.024  0.00  0.00    +0.000 A 
ATOM     20  C   UNL     1       1.827   8.847  18.679  0.00  0.00    +0.000 A 
ATOM     21  C   UNL     1       2.486   7.838  17.924  0.00  0.00    +0.000 A 
ATOM     22  C   UNL     1       2.788   6.600  18.495  0.00  0.00    +0.000 A 
ATOM     23  C   UNL     1       2.351   6.342  19.788  0.00  0.00    +0.000 A 
ATOM     24  C   UNL     1       1.718   7.353  20.528  0.00  0.00    +0.000 A 
BRANCH  22  25
ATOM     25  S   UNL     1       3.727   5.344  17.644  0.00  0.00    +0.000 S 
BRANCH  25  26
ATOM     26  C   UNL     1       5.407   5.874  17.973  0.00  0.00    +0.000 A 
ATOM     27  C   UNL     1       6.054   6.840  17.182  0.00  0.00    +0.000 A 
ATOM     28  C   UNL     1       7.364   7.230  17.475  0.00  0.00    +0.000 A 
ATOM     29  C   UNL     1       8.034   6.671  18.562  0.00  0.00    +0.000 A 
ATOM     30  C   UNL     1       7.392   5.733  19.365  0.00  0.00    +0.000 A 
ATOM     31  C   UNL     1       6.080   5.341  19.074  0.00  0.00    +0.000 A 
ENDBRANCH  25  26
ENDBRANCH  22  25
ENDBRANCH  18  19
ENDBRANCH  16  18
ENDBRANCH   5  16
BRANCH   1  32
ATOM     32  O   UNL     1      -2.653  10.574  18.491  0.00  0.00    +0.000 OA
BRANCH  32  33
ATOM     33  C   UNL     1      -3.447  10.400  17.316  0.00  0.00    +0.000 C 
BRANCH  33  35
ATOM     34  C   UNL     1      -5.638  11.814  17.660  0.00  0.00    +0.000 C 
ATOM     35  C   UNL     1      -4.272  11.671  16.979  0.00  0.00    +0.000 C 
ENDBRANCH  33  35
BRANCH  33  36
ATOM     36  C   UNL     1      -2.743   9.778  16.084  0.00  0.00    +0.000 C 
ATOM     37  C   UNL     1      -3.005  10.280  14.673  0.00  0.00    +0.000 C 
ENDBRANCH  33  36
ENDBRANCH  32  33
ENDBRANCH   1  32
TORSDOF 12
ENDMDL
MODEL 4
REMARK VINA RESULT:      -7.7      4.828      9.866
REMARK  Name = 
REMARK  15 active torsions:
REMARK  status: ('A' for Active; 'I' for Inactive)
REMARK    1  A    between atoms: C_1  and  C_2
REMARK    2  A    between atoms: C_2  and  C_3
REMARK    3  A    between atoms: C_3  and  C_4
REMARK    4  A    between atoms: C_3  and  O_6
REMARK    5  A    between atoms: C_4  and  C_5
REMARK    6  A    between atoms: O_6  and  C_7
REMARK    7  A    between atoms: C_9  and  C_10
REMARK    8  A    between atoms: C_10  and  O_12
REMARK    9  A    between atoms: C_14  and  N_15
REMARK   10  A    between atoms: N_15  and  C_16
REMARK   11  A    between atoms: C_16  and  C_17
REMARK   12  A    between atoms: C_20  and  S_21
REMARK   13  A    between atoms: S_21  and  C_22
REMARK   14  A    between atoms: C_30  and  N_31
REMARK   15  A    between atoms: C_32  and  C_33
REMARK                            x       y       z     vdW  Elec       q    Type
REMARK                         _______ _______ _______ _____ _____    ______ ____
ROOT
ATOM      1  C   UNL     1      -1.421  12.684  19.221  0.00  0.00    +0.000 C 
ATOM      2  C   UNL     1      -0.082  12.742  18.501  0.00  0.00    +0.000 C 
ATOM      3  C   UNL     1       1.123  12.917  19.081  0.00  0.00    +0.000 C 
ATOM      4  C   UNL     1       1.298  13.001  20.565  0.00  0.00    +0.000 C 
ATOM      5  C   UNL     1       0.109  12.409  21.321  0.00  0.00    +0.000 C 
ATOM      6  C   UNL     1      -1.247  13.017  20.731  0.00  0.00    +0.000 C 
ENDROOT
BRANCH   6   7
ATOM      7  N   UNL     1      -1.332  14.521  20.888  0.00  0.00    +0.000 N 
ATOM      8  C   UNL     1      -1.835  15.156  21.998  0.00  0.00    +0.000 C 
ATOM      9  C   UNL     1      -1.927  16.668  21.892  0.00  0.00    +0.000 C 
ATOM     10  O   UNL     1      -2.218  14.556  22.996  0.00  0.00    +0.000 OA
ATOM     11  H   UNL     1      -1.227  15.088  20.050  0.00  0.00    +0.000 HD
ENDBRANCH   6   7
BRANCH   3  12
ATOM     12  C   UNL     1       2.394  13.109  18.307  0.00  0.00    +0.000 C 
ATOM     13  O   UNL     1       3.091  14.101  18.464  0.00  0.00    +0.000 OA
BRANCH  12  14
ATOM     14  O   UNL     1       2.668  12.157  17.416  0.00  0.00    +0.000 OA
ATOM     15  H   UNL     1       2.978  12.488  16.559  0.00  0.00    +0.000 HD
ENDBRANCH  12  14
ENDBRANCH   3  12
BRANCH   5  16
ATOM     16  N   UNL     1       0.353  10.965  21.641  0.00  0.00    +0.000 NA
ATOM     17  H   UNL     1      -0.175  10.793  22.502  0.00  0.00    +0.000 HD
BRANCH  16  18
ATOM     18  C   UNL     1       0.075   9.816  20.772  0.00  0.00    +0.000 C 
BRANCH  18  19
ATOM     19  C   UNL     1       1.155   8.863  20.234  0.00  0.00    +0.000 A 
ATOM     20  C   UNL     1       1.508   7.648  20.857  0.00  0.00    +0.000 A 
ATOM     21  C   UNL     1       2.213   6.634  20.153  0.00  0.00    +0.000 A 
ATOM     22  C   UNL     1       2.581   6.815  18.817  0.00  0.00    +0.000 A 
ATOM     23  C   UNL     1       2.323   8.041  18.219  0.00  0.00    +0.000 A 
ATOM     24  C   UNL     1       1.610   9.027  18.920  0.00  0.00    +0.000 A 
BRANCH  22  25
ATOM     25  S   UNL     1       3.349   5.533  17.842  0.00  0.00    +0.000 S 
BRANCH  25  26
ATOM     26  C   UNL     1       5.087   5.881  18.105  0.00  0.00    +0.000 A 
ATOM     27  C   UNL     1       5.820   5.282  19.145  0.00  0.00    +0.000 A 
ATOM     28  C   UNL     1       7.176   5.576  19.313  0.00  0.00    +0.000 A 
ATOM     29  C   UNL     1       7.814   6.458  18.442  0.00  0.00    +0.000 A 
ATOM     30  C   UNL     1       7.102   7.035  17.394  0.00  0.00    +0.000 A 
ATOM     31  C   UNL     1       5.744   6.742  17.224  0.00  0.00    +0.000 A 
ENDBRANCH  25  26
ENDBRANCH  22  25
ENDBRANCH  18  19
ENDBRANCH  16  18
ENDBRANCH   5  16
BRANCH   1  32
ATOM     32  O   UNL     1      -2.229  11.501  19.074  0.00  0.00    +0.000 OA
BRANCH  32  33
ATOM     33  C   UNL     1      -3.075  11.341  17.934  0.00  0.00    +0.000 C 
BRANCH  33  35
ATOM     34  C   UNL     1      -2.964   9.876  15.752  0.00  0.00    +0.000 C 
ATOM     35  C   UNL     1      -2.916   9.940  17.283  0.00  0.00    +0.000 C 
ENDBRANCH  33  35
BRANCH  33  36
ATOM     36  C   UNL     1      -4.553  11.782  18.094  0.00  0.00    +0.000 C 
ATOM     37  C   UNL     1      -5.676  10.771  18.260  0.00  0.00    +0.000 C 
ENDBRANCH  33  36
ENDBRANCH  32  33
ENDBRANCH   1  32
TORSDOF 12
ENDMDL
MODEL 5
REMARK VINA RESULT:      -7.7      5.059     10.132
REMARK  Name = 
REMARK  15 active torsions:
REMARK  status: ('A' for Active; 'I' for Inactive)
REMARK    1  A    between atoms: C_1  and  C_2
REMARK    2  A    between atoms: C_2  and  C_3
REMARK    3  A    between atoms: C_3  and  C_4
REMARK    4  A    between atoms: C_3  and  O_6
REMARK    5  A    between atoms: C_4  and  C_5
REMARK    6  A    between atoms: O_6  and  C_7
REMARK    7  A    between atoms: C_9  and  C_10
REMARK    8  A    between atoms: C_10  and  O_12
REMARK    9  A    between atoms: C_14  and  N_15
REMARK   10  A    between atoms: N_15  and  C_16
REMARK   11  A    between atoms: C_16  and  C_17
REMARK   12  A    between atoms: C_20  and  S_21
REMARK   13  A    between atoms: S_21  and  C_22
REMARK   14  A    between atoms: C_30  and  N_31
REMARK   15  A    between atoms: C_32  and  C_33
REMARK                            x       y       z     vdW  Elec       q    Type
REMARK                         _______ _______ _______ _____ _____    ______ ____
ROOT
ATOM      1  C   UNL     1      -1.726  12.112  18.418  0.00  0.00    +0.000 C 
ATOM      2  C   UNL     1      -0.546  13.050  18.211  0.00  0.00    +0.000 C 
ATOM      3  C   UNL     1       0.081  13.760  19.172  0.00  0.00    +0.000 C 
ATOM      4  C   UNL     1      -0.278  13.646  20.620  0.00  0.00    +0.000 C 
ATOM      5  C   UNL     1      -1.038  12.356  20.927  0.00  0.00    +0.000 C 
ATOM      6  C   UNL     1      -2.239  12.192  19.884  0.00  0.00    +0.000 C 
ENDROOT
BRANCH   6   7
ATOM      7  N   UNL     1      -3.244  13.323  19.964  0.00  0.00    +0.000 N 
ATOM      8  C   UNL     1      -4.417  13.268  20.677  0.00  0.00    +0.000 C 
ATOM      9  C   UNL     1      -5.324  14.476  20.523  0.00  0.00    +0.000 C 
ATOM     10  O   UNL     1      -4.738  12.305  21.364  0.00  0.00    +0.000 OA
ATOM     11  H   UNL     1      -3.164  14.072  19.280  0.00  0.00    +0.000 HD
ENDBRANCH   6   7
BRANCH   3  12
ATOM     12  C   UNL     1       1.146  14.779  18.887  0.00  0.00    +0.000 C 
ATOM     13  O   UNL     1       0.863  15.937  18.621  0.00  0.00    +0.000 OA
BRANCH  12  14
ATOM     14  O   UNL     1       2.395  14.315  18.897  0.00  0.00    +0.000 OA
ATOM     15  H   UNL     1       2.964  14.715  19.573  0.00  0.00    +0.000 HD
ENDBRANCH  12  14
ENDBRANCH   3  12
BRANCH   5  16
ATOM     16  N   UNL     1      -0.093  11.273  21.348  0.00  0.00    +0.000 NA
ATOM     17  H   UNL     1      -0.084  11.314  22.372  0.00  0.00    +0.000 HD
BRANCH  16  18
ATOM     18  C   UNL     1      -0.187   9.848  21.012  0.00  0.00    +0.000 C 
BRANCH  18  19
ATOM     19  C   UNL     1       0.959   9.033  20.391  0.00  0.00    +0.000 A 
ATOM     20  C   UNL     1       1.438   7.820  20.929  0.00  0.00    +0.000 A 
ATOM     21  C   UNL     1       2.212   6.919  20.147  0.00  0.00    +0.000 A 
ATOM     22  C   UNL     1       2.524   7.213  18.817  0.00  0.00    +0.000 A 
ATOM     23  C   UNL     1       2.140   8.444  18.303  0.00  0.00    +0.000 A 
ATOM     24  C   UNL     1       1.361   9.316  19.080  0.00  0.00    +0.000 A 
BRANCH  22  25
ATOM     25  S   UNL     1       3.377   6.068  17.748  0.00  0.00    +0.000 S 
BRANCH  25  26
ATOM     26  C   UNL     1       2.776   4.495  18.360  0.00  0.00    +0.000 A 
ATOM     27  C   UNL     1       1.498   4.006  18.034  0.00  0.00    +0.000 A 
ATOM     28  C   UNL     1       1.068   2.771  18.528  0.00  0.00    +0.000 A 
ATOM     29  C   UNL     1       1.909   2.010  19.339  0.00  0.00    +0.000 A 
ATOM     30  C   UNL     1       3.185   2.475  19.645  0.00  0.00    +0.000 A 
ATOM     31  C   UNL     1       3.618   3.711  19.151  0.00  0.00    +0.000 A 
ENDBRANCH  25  26
ENDBRANCH  22  25
ENDBRANCH  18  19
ENDBRANCH  16  18
ENDBRANCH   5  16
BRANCH   1  32
ATOM     32  O   UNL     1      -1.583  10.733  18.027  0.00  0.00    +0.000 OA
BRANCH  32  33
ATOM     33  C   UNL     1      -2.503  10.144  17.106  0.00  0.00    +0.000 C 
BRANCH  33  35
ATOM     34  C   UNL     1      -4.952  10.854  17.751  0.00  0.00    +0.000 C 
ATOM     35  C   UNL     1      -3.854   9.786  17.783  0.00  0.00    +0.000 C 
ENDBRANCH  33  35
BRANCH  33  36
ATOM     36  C   UNL     1      -2.670  10.851  15.737  0.00  0.00    +0.000 C 
ATOM     37  C   UNL     1      -3.175  10.111  14.510  0.00  0.00    +0.000 C 
ENDBRANCH  33  36
ENDBRANCH  32  33
ENDBRANCH   1  32
TORSDOF 12
ENDMDL
MODEL 6
REMARK VINA RESULT:      -7.5      4.815      9.996
REMARK  Name = 
REMARK  15 active torsions:
REMARK  status: ('A' for Active; 'I' for Inactive)
REMARK    1  A    between atoms: C_1  and  C_2
REMARK    2  A    between atoms: C_2  and  C_3
REMARK    3  A    between atoms: C_3  and  C_4
REMARK    4  A    between atoms: C_3  and  O_6
REMARK    5  A    between atoms: C_4  and  C_5
REMARK    6  A    between atoms: O_6  and  C_7
REMARK    7  A    between atoms: C_9  and  C_10
REMARK    8  A    between atoms: C_10  and  O_12
REMARK    9  A    between atoms: C_14  and  N_15
REMARK   10  A    between atoms: N_15  and  C_16
REMARK   11  A    between atoms: C_16  and  C_17
REMARK   12  A    between atoms: C_20  and  S_21
REMARK   13  A    between atoms: S_21  and  C_22
REMARK   14  A    between atoms: C_30  and  N_31
REMARK   15  A    between atoms: C_32  and  C_33
REMARK                            x       y       z     vdW  Elec       q    Type
REMARK                         _______ _______ _______ _____ _____    ______ ____
ROOT
ATOM      1  C   UNL     1      -1.440  12.026  19.184  0.00  0.00    +0.000 C 
ATOM      2  C   UNL     1      -0.167  12.551  18.537  0.00  0.00    +0.000 C 
ATOM      3  C   UNL     1       1.016  12.743  19.155  0.00  0.00    +0.000 C 
ATOM      4  C   UNL     1       1.245  12.374  20.587  0.00  0.00    +0.000 C 
ATOM      5  C   UNL     1       0.215  11.367  21.096  0.00  0.00    +0.000 C 
ATOM      6  C   UNL     1      -1.253  11.879  20.722  0.00  0.00    +0.000 C 
ENDROOT
BRANCH   6   7
ATOM      7  N   UNL     1      -1.590  13.211  21.360  0.00  0.00    +0.000 N 
ATOM      8  C   UNL     1      -2.864  13.623  21.665  0.00  0.00    +0.000 C 
ATOM      9  C   UNL     1      -2.976  15.042  22.196  0.00  0.00    +0.000 C 
ATOM     10  O   UNL     1      -3.854  12.920  21.494  0.00  0.00    +0.000 OA
ATOM     11  H   UNL     1      -0.870  13.930  21.355  0.00  0.00    +0.000 HD
ENDBRANCH   6   7
BRANCH   3  12
ATOM     12  C   UNL     1       2.196  13.399  18.499  0.00  0.00    +0.000 C 
ATOM     13  O   UNL     1       2.759  14.354  19.013  0.00  0.00    +0.000 OA
BRANCH  12  14
ATOM     14  O   UNL     1       2.539  12.900  17.313  0.00  0.00    +0.000 OA
ATOM     15  H   UNL     1       2.605  11.932  17.291  0.00  0.00    +0.000 HD
ENDBRANCH  12  14
ENDBRANCH   3  12
BRANCH   5  16
ATOM     16  N   UNL     1       0.719   9.965  20.931  0.00  0.00    +0.000 NA
ATOM     17  H   UNL     1       0.016   9.377  21.387  0.00  0.00    +0.000 HD
BRANCH  16  18
ATOM     18  C   UNL     1       1.038   9.292  19.667  0.00  0.00    +0.000 C 
BRANCH  18  19
ATOM     19  C   UNL     1       1.879   8.010  19.563  0.00  0.00    +0.000 A 
ATOM     20  C   UNL     1       1.795   6.942  20.482  0.00  0.00    +0.000 A 
ATOM     21  C   UNL     1       2.286   5.648  20.157  0.00  0.00    +0.000 A 
ATOM     22  C   UNL     1       2.871   5.396  18.914  0.00  0.00    +0.000 A 
ATOM     23  C   UNL     1       3.046   6.458  18.037  0.00  0.00    +0.000 A 
ATOM     24  C   UNL     1       2.540   7.727  18.363  0.00  0.00    +0.000 A 
BRANCH  22  25
ATOM     25  S   UNL     1       3.386   3.768  18.399  0.00  0.00    +0.000 S 
BRANCH  25  26
ATOM     26  C   UNL     1       4.885   4.141  17.490  0.00  0.00    +0.000 A 
ATOM     27  C   UNL     1       6.082   4.496  18.138  0.00  0.00    +0.000 A 
ATOM     28  C   UNL     1       7.232   4.775  17.393  0.00  0.00    +0.000 A 
ATOM     29  C   UNL     1       7.202   4.690  16.002  0.00  0.00    +0.000 A 
ATOM     30  C   UNL     1       6.028   4.313  15.355  0.00  0.00    +0.000 A 
ATOM     31  C   UNL     1       4.876   4.033  16.098  0.00  0.00    +0.000 A 
ENDBRANCH  25  26
ENDBRANCH  22  25
ENDBRANCH  18  19
ENDBRANCH  16  18
ENDBRANCH   5  16
BRANCH   1  32
ATOM     32  O   UNL     1      -2.037  10.828  18.651  0.00  0.00    +0.000 OA
BRANCH  32  33
ATOM     33  C   UNL     1      -2.932  10.901  17.539  0.00  0.00    +0.000 C 
BRANCH  33  35
ATOM     34  C   UNL     1      -2.896  10.253  14.990  0.00  0.00    +0.000 C 
ATOM     35  C   UNL     1      -2.575   9.865  16.438  0.00  0.00    +0.000 C 
ENDBRANCH  33  35
BRANCH  33  36
ATOM     36  C   UNL     1      -4.446  10.958  17.863  0.00  0.00    +0.000 C 
ATOM     37  C   UNL     1      -5.370  11.966  17.200  0.00  0.00    +0.000 C 
ENDBRANCH  33  36
ENDBRANCH  32  33
ENDBRANCH   1  32
TORSDOF 12
ENDMDL
MODEL 7
REMARK VINA RESULT:      -7.5      4.944     10.468
REMARK  Name = 
REMARK  15 active torsions:
REMARK  status: ('A' for Active; 'I' for Inactive)
REMARK    1  A    between atoms: C_1  and  C_2
REMARK    2  A    between atoms: C_2  and  C_3
REMARK    3  A    between atoms: C_3  and  C_4
REMARK    4  A    between atoms: C_3  and  O_6
REMARK    5  A    between atoms: C_4  and  C_5
REMARK    6  A    between atoms: O_6  and  C_7
REMARK    7  A    between atoms: C_9  and  C_10
REMARK    8  A    between atoms: C_10  and  O_12
REMARK    9  A    between atoms: C_14  and  N_15
REMARK   10  A    between atoms: N_15  and  C_16
REMARK   11  A    between atoms: C_16  and  C_17
REMARK   12  A    between atoms: C_20  and  S_21
REMARK   13  A    between atoms: S_21  and  C_22
REMARK   14  A    between atoms: C_30  and  N_31
REMARK   15  A    between atoms: C_32  and  C_33
REMARK                            x       y       z     vdW  Elec       q    Type
REMARK                         _______ _______ _______ _____ _____    ______ ____
ROOT
ATOM      1  C   UNL     1      -1.714  13.209  20.561  0.00  0.00    +0.000 C 
ATOM      2  C   UNL     1      -2.797  12.426  19.833  0.00  0.00    +0.000 C 
ATOM      3  C   UNL     1      -2.699  11.902  18.594  0.00  0.00    +0.000 C 
ATOM      4  C   UNL     1      -1.438  11.965  17.790  0.00  0.00    +0.000 C 
ATOM      5  C   UNL     1      -0.211  12.230  18.661  0.00  0.00    +0.000 C 
ATOM      6  C   UNL     1      -0.504  13.475  19.621  0.00  0.00    +0.000 C 
ENDROOT
BRANCH   6   7
ATOM      7  N   UNL     1      -0.782  14.752  18.856  0.00  0.00    +0.000 N 
ATOM      8  C   UNL     1       0.003  15.878  18.916  0.00  0.00    +0.000 C 
ATOM      9  C   UNL     1      -0.528  17.079  18.154  0.00  0.00    +0.000 C 
ATOM     10  O   UNL     1       1.043  15.935  19.564  0.00  0.00    +0.000 OA
ATOM     11  H   UNL     1      -1.710  14.869  18.457  0.00  0.00    +0.000 HD
ENDBRANCH   6   7
BRANCH   3  12
ATOM     12  C   UNL     1      -3.850  11.264  17.872  0.00  0.00    +0.000 C 
ATOM     13  O   UNL     1      -3.769  10.959  16.692  0.00  0.00    +0.000 OA
BRANCH  12  14
ATOM     14  O   UNL     1      -4.959  11.110  18.593  0.00  0.00    +0.000 OA
ATOM     15  H   UNL     1      -5.766  11.428  18.159  0.00  0.00    +0.000 HD
ENDBRANCH  12  14
ENDBRANCH   3  12
BRANCH   5  16
ATOM     16  N   UNL     1       0.432  10.941  19.074  0.00  0.00    +0.000 NA
ATOM     17  H   UNL     1      -0.259  10.484  19.678  0.00  0.00    +0.000 HD
BRANCH  16  18
ATOM     18  C   UNL     1       0.936   9.888  18.185  0.00  0.00    +0.000 C 
BRANCH  18  19
ATOM     19  C   UNL     1       1.836   8.731  18.646  0.00  0.00    +0.000 A 
ATOM     20  C   UNL     1       1.692   8.072  19.885  0.00  0.00    +0.000 A 
ATOM     21  C   UNL     1       2.271   6.794  20.114  0.00  0.00    +0.000 A 
ATOM     22  C   UNL     1       3.006   6.152  19.114  0.00  0.00    +0.000 A 
ATOM     23  C   UNL     1       3.235   6.828  17.923  0.00  0.00    +0.000 A 
ATOM     24  C   UNL     1       2.643   8.082  17.704  0.00  0.00    +0.000 A 
BRANCH  22  25
ATOM     25  S   UNL     1       3.645   4.496  19.294  0.00  0.00    +0.000 S 
BRANCH  25  26
ATOM     26  C   UNL     1       4.983   4.501  18.103  0.00  0.00    +0.000 A 
ATOM     27  C   UNL     1       6.272   4.960  18.430  0.00  0.00    +0.000 A 
ATOM     28  C   UNL     1       7.291   4.942  17.473  0.00  0.00    +0.000 A 
ATOM     29  C   UNL     1       7.039   4.458  16.190  0.00  0.00    +0.000 A 
ATOM     30  C   UNL     1       5.772   3.978  15.867  0.00  0.00    +0.000 A 
ATOM     31  C   UNL     1       4.751   3.994  16.823  0.00  0.00    +0.000 A 
ENDBRANCH  25  26
ENDBRANCH  22  25
ENDBRANCH  18  19
ENDBRANCH  16  18
ENDBRANCH   5  16
BRANCH   1  32
ATOM     32  O   UNL     1      -1.244  12.713  21.830  0.00  0.00    +0.000 OA
BRANCH  32  33
ATOM     33  C   UNL     1      -2.039  11.797  22.586  0.00  0.00    +0.000 C 
BRANCH  33  35
ATOM     34  C   UNL     1      -0.134  10.004  22.314  0.00  0.00    +0.000 C 
ATOM     35  C   UNL     1      -1.182  10.667  23.217  0.00  0.00    +0.000 C 
ENDBRANCH  33  35
BRANCH  33  36
ATOM     36  C   UNL     1      -3.067  12.412  23.570  0.00  0.00    +0.000 C 
ATOM     37  C   UNL     1      -3.026  13.882  23.955  0.00  0.00    +0.000 C 
ENDBRANCH  33  36
ENDBRANCH  32  33
ENDBRANCH   1  32
TORSDOF 12
ENDMDL
MODEL 8
REMARK VINA RESULT:      -7.5      4.808     10.105
REMARK  Name = 
REMARK  15 active torsions:
REMARK  status: ('A' for Active; 'I' for Inactive)
REMARK    1  A    between atoms: C_1  and  C_2
REMARK    2  A    between atoms: C_2  and  C_3
REMARK    3  A    between atoms: C_3  and  C_4
REMARK    4  A    between atoms: C_3  and  O_6
REMARK    5  A    between atoms: C_4  and  C_5
REMARK    6  A    between atoms: O_6  and  C_7
REMARK    7  A    between atoms: C_9  and  C_10
REMARK    8  A    between atoms: C_10  and  O_12
REMARK    9  A    between atoms: C_14  and  N_15
REMARK   10  A    between atoms: N_15  and  C_16
REMARK   11  A    between atoms: C_16  and  C_17
REMARK   12  A    between atoms: C_20  and  S_21
REMARK   13  A    between atoms: S_21  and  C_22
REMARK   14  A    between atoms: C_30  and  N_31
REMARK   15  A    between atoms: C_32  and  C_33
REMARK                            x       y       z     vdW  Elec       q    Type
REMARK                         _______ _______ _______ _____ _____    ______ ____
ROOT
ATOM      1  C   UNL     1      -1.754  12.035  19.157  0.00  0.00    +0.000 C 
ATOM      2  C   UNL     1      -0.521  12.598  18.466  0.00  0.00    +0.000 C 
ATOM      3  C   UNL     1       0.691  12.779  19.029  0.00  0.00    +0.000 C 
ATOM      4  C   UNL     1       0.997  12.360  20.432  0.00  0.00    +0.000 C 
ATOM      5  C   UNL     1       0.003  11.323  20.955  0.00  0.00    +0.000 C 
ATOM      6  C   UNL     1      -1.486  11.834  20.676  0.00  0.00    +0.000 C 
ENDROOT
BRANCH   6   7
ATOM      7  N   UNL     1      -1.801  13.137  21.381  0.00  0.00    +0.000 N 
ATOM      8  C   UNL     1      -2.338  13.226  22.642  0.00  0.00    +0.000 C 
ATOM      9  C   UNL     1      -2.674  14.633  23.104  0.00  0.00    +0.000 C 
ATOM     10  O   UNL     1      -2.567  12.246  23.342  0.00  0.00    +0.000 OA
ATOM     11  H   UNL     1      -1.832  13.982  20.814  0.00  0.00    +0.000 HD
ENDBRANCH   6   7
BRANCH   3  12
ATOM     12  C   UNL     1       1.829  13.472  18.338  0.00  0.00    +0.000 C 
ATOM     13  O   UNL     1       2.091  14.644  18.564  0.00  0.00    +0.000 OA
BRANCH  12  14
ATOM     14  O   UNL     1       2.484  12.735  17.441  0.00  0.00    +0.000 OA
ATOM     15  H   UNL     1       2.935  13.251  16.754  0.00  0.00    +0.000 HD
ENDBRANCH  12  14
ENDBRANCH   3  12
BRANCH   5  16
ATOM     16  N   UNL     1       0.511   9.934  20.711  0.00  0.00    +0.000 NA
ATOM     17  H   UNL     1      -0.331   9.367  20.571  0.00  0.00    +0.000 HD
BRANCH  16  18
ATOM     18  C   UNL     1       1.448   9.515  19.663  0.00  0.00    +0.000 C 
BRANCH  18  19
ATOM     19  C   UNL     1       1.780   8.049  19.342  0.00  0.00    +0.000 A 
ATOM     20  C   UNL     1       2.455   7.638  18.173  0.00  0.00    +0.000 A 
ATOM     21  C   UNL     1       3.071   6.359  18.087  0.00  0.00    +0.000 A 
ATOM     22  C   UNL     1       3.023   5.468  19.162  0.00  0.00    +0.000 A 
ATOM     23  C   UNL     1       2.282   5.822  20.283  0.00  0.00    +0.000 A 
ATOM     24  C   UNL     1       1.695   7.095  20.362  0.00  0.00    +0.000 A 
BRANCH  22  25
ATOM     25  S   UNL     1       3.885   3.906  19.165  0.00  0.00    +0.000 S 
BRANCH  25  26
ATOM     26  C   UNL     1       5.116   4.179  17.892  0.00  0.00    +0.000 A 
ATOM     27  C   UNL     1       6.391   4.695  18.184  0.00  0.00    +0.000 A 
ATOM     28  C   UNL     1       7.326   4.888  17.163  0.00  0.00    +0.000 A 
ATOM     29  C   UNL     1       7.003   4.559  15.847  0.00  0.00    +0.000 A 
ATOM     30  C   UNL     1       5.752   4.023  15.553  0.00  0.00    +0.000 A 
ATOM     31  C   UNL     1       4.815   3.828  16.574  0.00  0.00    +0.000 A 
ENDBRANCH  25  26
ENDBRANCH  22  25
ENDBRANCH  18  19
ENDBRANCH  16  18
ENDBRANCH   5  16
BRANCH   1  32
ATOM     32  O   UNL     1      -2.368  10.852  18.610  0.00  0.00    +0.000 OA
BRANCH  32  33
ATOM     33  C   UNL     1      -3.156  10.931  17.421  0.00  0.00    +0.000 C 
BRANCH  33  35
ATOM     34  C   UNL     1      -2.947  10.290  14.879  0.00  0.00    +0.000 C 
ATOM     35  C   UNL     1      -2.686   9.918  16.343  0.00  0.00    +0.000 C 
ENDBRANCH  33  35
BRANCH  33  36
ATOM     36  C   UNL     1      -4.695  10.966  17.605  0.00  0.00    +0.000 C 
ATOM     37  C   UNL     1      -5.416  12.212  18.092  0.00  0.00    +0.000 C 
ENDBRANCH  33  36
ENDBRANCH  32  33
ENDBRANCH   1  32
TORSDOF 12
ENDMDL
MODEL 9
REMARK VINA RESULT:      -7.4      0.966      1.291
REMARK  Name = 
REMARK  15 active torsions:
REMARK  status: ('A' for Active; 'I' for Inactive)
REMARK    1  A    between atoms: C_1  and  C_2
REMARK    2  A    between atoms: C_2  and  C_3
REMARK    3  A    between atoms: C_3  and  C_4
REMARK    4  A    between atoms: C_3  and  O_6
REMARK    5  A    between atoms: C_4  and  C_5
REMARK    6  A    between atoms: O_6  and  C_7
REMARK    7  A    between atoms: C_9  and  C_10
REMARK    8  A    between atoms: C_10  and  O_12
REMARK    9  A    between atoms: C_14  and  N_15
REMARK   10  A    between atoms: N_15  and  C_16
REMARK   11  A    between atoms: C_16  and  C_17
REMARK   12  A    between atoms: C_20  and  S_21
REMARK   13  A    between atoms: S_21  and  C_22
REMARK   14  A    between atoms: C_30  and  N_31
REMARK   15  A    between atoms: C_32  and  C_33
REMARK                            x       y       z     vdW  Elec       q    Type
REMARK                         _______ _______ _______ _____ _____    ______ ____
ROOT
ATOM      1  C   UNL     1       5.061   4.318  17.164  0.00  0.00    +0.000 C 
ATOM      2  C   UNL     1       6.077   4.629  18.253  0.00  0.00    +0.000 C 
ATOM      3  C   UNL     1       6.802   5.761  18.362  0.00  0.00    +0.000 C 
ATOM      4  C   UNL     1       6.629   6.920  17.431  0.00  0.00    +0.000 C 
ATOM      5  C   UNL     1       5.286   6.880  16.703  0.00  0.00    +0.000 C 
ATOM      6  C   UNL     1       5.071   5.426  16.072  0.00  0.00    +0.000 C 
ENDROOT
BRANCH   6   7
ATOM      7  N   UNL     1       6.133   5.065  15.055  0.00  0.00    +0.000 N 
ATOM      8  C   UNL     1       5.902   4.316  13.926  0.00  0.00    +0.000 C 
ATOM      9  C   UNL     1       7.136   3.984  13.106  0.00  0.00    +0.000 C 
ATOM     10  O   UNL     1       4.789   3.909  13.610  0.00  0.00    +0.000 OA
ATOM     11  H   UNL     1       7.106   5.185  15.327  0.00  0.00    +0.000 HD
ENDBRANCH   6   7
BRANCH   3  12
ATOM     12  C   UNL     1       7.893   5.951  19.375  0.00  0.00    +0.000 C 
ATOM     13  O   UNL     1       8.015   5.195  20.328  0.00  0.00    +0.000 OA
BRANCH  12  14
ATOM     14  O   UNL     1       8.669   7.017  19.183  0.00  0.00    +0.000 OA
ATOM     15  H   UNL     1       9.570   6.807  18.891  0.00  0.00    +0.000 HD
ENDBRANCH  12  14
ENDBRANCH   3  12
BRANCH   5  16
ATOM     16  N   UNL     1       4.255   7.669  17.452  0.00  0.00    +0.000 NA
ATOM     17  H   UNL     1       4.203   8.567  16.961  0.00  0.00    +0.000 HD
BRANCH  16  18
ATOM     18  C   UNL     1       2.865   7.276  17.706  0.00  0.00    +0.000 C 
BRANCH  18  19
ATOM     19  C   UNL     1       1.885   8.087  18.568  0.00  0.00    +0.000 A 
ATOM     20  C   UNL     1       1.770   7.945  19.967  0.00  0.00    +0.000 A 
ATOM     21  C   UNL     1       1.152   8.947  20.763  0.00  0.00    +0.000 A 
ATOM     22  C   UNL     1       0.635  10.106  20.180  0.00  0.00    +0.000 A 
ATOM     23  C   UNL     1       0.656  10.218  18.796  0.00  0.00    +0.000 A 
ATOM     24  C   UNL     1       1.286   9.229  18.023  0.00  0.00    +0.000 A 
BRANCH  22  25
ATOM     25  S   UNL     1      -0.033  11.456  21.136  0.00  0.00    +0.000 S 
BRANCH  25  26
ATOM     26  C   UNL     1       0.649  12.872  20.275  0.00  0.00    +0.000 A 
ATOM     27  C   UNL     1      -0.157  13.755  19.534  0.00  0.00    +0.000 A 
ATOM     28  C   UNL     1       0.413  14.852  18.882  0.00  0.00    +0.000 A 
ATOM     29  C   UNL     1       1.785  15.084  18.971  0.00  0.00    +0.000 A 
ATOM     30  C   UNL     1       2.586  14.229  19.724  0.00  0.00    +0.000 A 
ATOM     31  C   UNL     1       2.017  13.131  20.378  0.00  0.00    +0.000 A 
ENDBRANCH  25  26
ENDBRANCH  22  25
ENDBRANCH  18  19
ENDBRANCH  16  18
ENDBRANCH   5  16
BRANCH   1  32
ATOM     32  O   UNL     1       3.703   4.032  17.554  0.00  0.00    +0.000 OA
BRANCH  32  33
ATOM     33  C   UNL     1       3.412   2.905  18.382  0.00  0.00    +0.000 C 
BRANCH  33  35
ATOM     34  C   UNL     1       2.979   4.637  20.313  0.00  0.00    +0.000 C 
ATOM     35  C   UNL     1       3.495   3.256  19.892  0.00  0.00    +0.000 C 
ENDBRANCH  33  35
BRANCH  33  36
ATOM     36  C   UNL     1       2.159   2.071  18.011  0.00  0.00    +0.000 C 
ATOM     37  C   UNL     1       0.827   2.272  18.716  0.00  0.00    +0.000 C 
ENDBRANCH  33  36
ENDBRANCH  32  33
ENDBRANCH   1  32
TORSDOF 12
ENDMDL
