MODEL 1
REMARK VINA RESULT:      -7.6      0.000      0.000
REMARK  Name = 
REMARK  7 active torsions:
REMARK  status: ('A' for Active; 'I' for Inactive)
REMARK    1  A    between atoms: C_1  and  O_2
REMARK    2  A    between atoms: O_2  and  C_3
REMARK    3  A    between atoms: N_7  and  C_8
REMARK    4  A    between atoms: C_21  and  O_22
REMARK    5  A    between atoms: O_22  and  C_23
REMARK    6  A    between atoms: C_23  and  C_24
REMARK    7  A    between atoms: N_26  and  C_27
REMARK                            x       y       z     vdW  Elec       q    Type
REMARK                         _______ _______ _______ _____ _____    ______ ____
ROOT
ATOM      1  C   UNL     1       0.337   8.959  21.168  0.00  0.00    +0.000 A 
ATOM      2  C   UNL     1       1.129   7.862  20.848  0.00  0.00    +0.000 A 
ATOM      3  C   UNL     1       1.863   7.809  19.646  0.00  0.00    +0.000 A 
ATOM      4  C   UNL     1       2.552   6.672  19.208  0.00  0.00    +0.000 A 
ATOM      5  N   UNL     1       2.455   5.462  19.946  0.00  0.00    +0.000 N 
ATOM      6  N   UNL     1       3.246   6.673  18.058  0.00  0.00    +0.000 NA
ATOM      7  C   UNL     1       3.234   7.801  17.340  0.00  0.00    +0.000 A 
ATOM      8  N   UNL     1       2.571   8.922  17.640  0.00  0.00    +0.000 NA
ATOM      9  C   UNL     1       1.875   8.913  18.788  0.00  0.00    +0.000 A 
ATOM     10  C   UNL     1       1.147  10.034  19.148  0.00  0.00    +0.000 A 
ATOM     11  C   UNL     1       0.403  10.089  20.339  0.00  0.00    +0.000 A 
ATOM     12  H   UNL     1       2.785   5.577  20.901  0.00  0.00    +0.000 HD
ENDROOT
BRANCH   5  13
ATOM     13  C   UNL     1       2.755   4.182  19.428  0.00  0.00    +0.000 A 
ATOM     14  C   UNL     1       3.749   3.382  20.009  0.00  0.00    +0.000 A 
ATOM     15  C   UNL     1       3.976   2.088  19.544  0.00  0.00    +0.000 A 
ATOM     16 CL   UNL     1       5.170   1.111  20.305  0.00  0.00    +0.000 Cl
ATOM     17  C   UNL     1       3.235   1.581  18.479  0.00  0.00    +0.000 A 
ATOM     18  C   UNL     1       2.276   2.382  17.859  0.00  0.00    +0.000 A 
ATOM     19  C   UNL     1       2.053   3.675  18.328  0.00  0.00    +0.000 A 
ATOM     20  F   UNL     1       1.122   4.437  17.731  0.00  0.00    +0.000 F 
ENDBRANCH   5  13
BRANCH   1  22
ATOM     21  C   UNL     1       0.004   9.520  23.485  0.00  0.00    +0.000 C 
ATOM     22  O   UNL     1      -0.481   8.968  22.262  0.00  0.00    +0.000 OA
ENDBRANCH   1  22
BRANCH  11  23
ATOM     23  O   UNL     1      -0.199  11.310  20.541  0.00  0.00    +0.000 OA
BRANCH  23  24
ATOM     24  C   UNL     1      -1.607  11.349  20.294  0.00  0.00    +0.000 C 
BRANCH  24  25
ATOM     25  C   UNL     1      -1.972  12.426  19.257  0.00  0.00    +0.000 C 
ATOM     26  C   UNL     1      -1.784  11.975  17.794  0.00  0.00    +0.000 C 
ATOM     27  N   UNL     1      -2.759  10.931  17.416  0.00  0.00    +0.000 NA
ATOM     28  C   UNL     1      -2.583  10.532  16.023  0.00  0.00    +0.000 C 
ATOM     29  C   UNL     1      -4.123  11.441  17.654  0.00  0.00    +0.000 C 
ATOM     30  C   UNL     1      -4.298  11.906  19.108  0.00  0.00    +0.000 C 
ATOM     31  O   UNL     1      -3.324  12.899  19.465  0.00  0.00    +0.000 OA
ENDBRANCH  24  25
ENDBRANCH  23  24
ENDBRANCH  11  23
TORSDOF 5
ENDMDL
MODEL 2
REMARK VINA RESULT:      -7.6      2.796      3.656
REMARK  Name = 
REMARK  7 active torsions:
REMARK  status: ('A' for Active; 'I' for Inactive)
REMARK    1  A    between atoms: C_1  and  O_2
REMARK    2  A    between atoms: O_2  and  C_3
REMARK    3  A    between atoms: N_7  and  C_8
REMARK    4  A    between atoms: C_21  and  O_22
REMARK    5  A    between atoms: O_22  and  C_23
REMARK    6  A    between atoms: C_23  and  C_24
REMARK    7  A    between atoms: N_26  and  C_27
REMARK                            x       y       z     vdW  Elec       q    Type
REMARK                         _______ _______ _______ _____ _____    ______ ____
ROOT
ATOM      1  C   UNL     1       1.688  10.065  18.422  0.00  0.00    +0.000 A 
ATOM      2  C   UNL     1       2.333   8.973  17.852  0.00  0.00    +0.000 A 
ATOM      3  C   UNL     1       2.468   7.753  18.545  0.00  0.00    +0.000 A 
ATOM      4  C   UNL     1       3.236   6.678  18.080  0.00  0.00    +0.000 A 
ATOM      5  N   UNL     1       4.003   6.823  16.893  0.00  0.00    +0.000 N 
ATOM      6  N   UNL     1       3.326   5.532  18.773  0.00  0.00    +0.000 NA
ATOM      7  C   UNL     1       2.668   5.468  19.934  0.00  0.00    +0.000 A 
ATOM      8  N   UNL     1       1.951   6.448  20.492  0.00  0.00    +0.000 NA
ATOM      9  C   UNL     1       1.869   7.594  19.797  0.00  0.00    +0.000 A 
ATOM     10  C   UNL     1       1.160   8.658  20.327  0.00  0.00    +0.000 A 
ATOM     11  C   UNL     1       1.032   9.882  19.648  0.00  0.00    +0.000 A 
ATOM     12  H   UNL     1       3.419   7.051  16.094  0.00  0.00    +0.000 HD
ENDROOT
BRANCH   5  13
ATOM     13  C   UNL     1       5.093   5.996  16.540  0.00  0.00    +0.000 A 
ATOM     14  C   UNL     1       5.082   5.255  15.350  0.00  0.00    +0.000 A 
ATOM     15  C   UNL     1       6.198   4.511  14.970  0.00  0.00    +0.000 A 
ATOM     16 CL   UNL     1       6.175   3.648  13.482  0.00  0.00    +0.000 Cl
ATOM     17  C   UNL     1       7.331   4.475  15.780  0.00  0.00    +0.000 A 
ATOM     18  C   UNL     1       7.338   5.167  16.991  0.00  0.00    +0.000 A 
ATOM     19  C   UNL     1       6.220   5.910  17.366  0.00  0.00    +0.000 A 
ATOM     20  F   UNL     1       6.240   6.581  18.529  0.00  0.00    +0.000 F 
ENDBRANCH   5  13
BRANCH   1  22
ATOM     21  C   UNL     1       2.588  12.291  18.248  0.00  0.00    +0.000 C 
ATOM     22  O   UNL     1       1.667  11.290  17.818  0.00  0.00    +0.000 OA
ENDBRANCH   1  22
BRANCH  11  23
ATOM     23  O   UNL     1       0.240  10.789  20.316  0.00  0.00    +0.000 OA
BRANCH  23  24
ATOM     24  C   UNL     1      -1.134  10.813  19.921  0.00  0.00    +0.000 C 
BRANCH  24  25
ATOM     25  C   UNL     1      -1.474  12.091  19.134  0.00  0.00    +0.000 C 
ATOM     26  C   UNL     1      -1.713  11.854  17.628  0.00  0.00    +0.000 C 
ATOM     27  N   UNL     1      -2.950  11.082  17.388  0.00  0.00    +0.000 NA
ATOM     28  C   UNL     1      -3.173  10.886  15.959  0.00  0.00    +0.000 C 
ATOM     29  C   UNL     1      -4.085  11.789  18.011  0.00  0.00    +0.000 C 
ATOM     30  C   UNL     1      -3.832  12.038  19.506  0.00  0.00    +0.000 C 
ATOM     31  O   UNL     1      -2.613  12.765  19.721  0.00  0.00    +0.000 OA
ENDBRANCH  24  25
ENDBRANCH  23  24
ENDBRANCH  11  23
TORSDOF 5
ENDMDL
MODEL 3
REMARK VINA RESULT:      -7.6      2.099      2.705
REMARK  Name = 
REMARK  7 active torsions:
REMARK  status: ('A' for Active; 'I' for Inactive)
REMARK    1  A    between atoms: C_1  and  O_2
REMARK    2  A    between atoms: O_2  and  C_3
REMARK    3  A    between atoms: N_7  and  C_8
REMARK    4  A    between atoms: C_21  and  O_22
REMARK    5  A    between atoms: O_22  and  C_23
REMARK    6  A    between atoms: C_23  and  C_24
REMARK    7  A    between atoms: N_26  and  C_27
REMARK                            x       y       z     vdW  Elec       q    Type
REMARK                         _______ _______ _______ _____ _____    ______ ____
ROOT
ATOM      1  C   UNL     1       0.047   9.805  21.273  0.00  0.00    +0.000 A 
ATOM      2  C   UNL     1       0.887   8.734  20.992  0.00  0.00    +0.000 A 
ATOM      3  C   UNL     1       1.517   8.600  19.738  0.00  0.00    +0.000 A 
ATOM      4  C   UNL     1       2.249   7.470  19.353  0.00  0.00    +0.000 A 
ATOM      5  N   UNL     1       2.305   6.342  20.215  0.00  0.00    +0.000 N 
ATOM      6  N   UNL     1       2.838   7.394  18.149  0.00  0.00    +0.000 NA
ATOM      7  C   UNL     1       2.681   8.436  17.327  0.00  0.00    +0.000 A 
ATOM      8  N   UNL     1       1.965   9.537  17.573  0.00  0.00    +0.000 NA
ATOM      9  C   UNL     1       1.373   9.605  18.776  0.00  0.00    +0.000 A 
ATOM     10  C   UNL     1       0.598  10.708  19.089  0.00  0.00    +0.000 A 
ATOM     11  C   UNL     1      -0.043  10.842  20.332  0.00  0.00    +0.000 A 
ATOM     12  H   UNL     1       2.706   6.580  21.118  0.00  0.00    +0.000 HD
ENDROOT
BRANCH   5  13
ATOM     13  C   UNL     1       2.655   5.036  19.802  0.00  0.00    +0.000 A 
ATOM     14  C   UNL     1       1.672   4.061  19.581  0.00  0.00    +0.000 A 
ATOM     15  C   UNL     1       2.022   2.805  19.091  0.00  0.00    +0.000 A 
ATOM     16 CL   UNL     1       0.792   1.642  18.784  0.00  0.00    +0.000 Cl
ATOM     17  C   UNL     1       3.356   2.492  18.836  0.00  0.00    +0.000 A 
ATOM     18  C   UNL     1       4.350   3.436  19.098  0.00  0.00    +0.000 A 
ATOM     19  C   UNL     1       3.995   4.691  19.588  0.00  0.00    +0.000 A 
ATOM     20  F   UNL     1       4.956   5.596  19.828  0.00  0.00    +0.000 F 
ENDBRANCH   5  13
BRANCH   1  22
ATOM     21  C   UNL     1      -0.050   9.497  23.658  0.00  0.00    +0.000 C 
ATOM     22  O   UNL     1      -0.673   9.876  22.432  0.00  0.00    +0.000 OA
ENDBRANCH   1  22
BRANCH  11  23
ATOM     23  O   UNL     1      -0.715  12.036  20.466  0.00  0.00    +0.000 OA
BRANCH  23  24
ATOM     24  C   UNL     1      -2.115  11.988  20.177  0.00  0.00    +0.000 C 
BRANCH  24  25
ATOM     25  C   UNL     1      -2.812  13.314  20.531  0.00  0.00    +0.000 C 
ATOM     26  C   UNL     1      -4.350  13.258  20.439  0.00  0.00    +0.000 C 
ATOM     27  N   UNL     1      -4.927  12.391  21.488  0.00  0.00    +0.000 NA
ATOM     28  C   UNL     1      -6.384  12.366  21.401  0.00  0.00    +0.000 C 
ATOM     29  C   UNL     1      -4.482  12.875  22.808  0.00  0.00    +0.000 C 
ATOM     30  C   UNL     1      -2.950  12.948  22.886  0.00  0.00    +0.000 C 
ATOM     31  O   UNL     1      -2.406  13.771  21.844  0.00  0.00    +0.000 OA
ENDBRANCH  24  25
ENDBRANCH  23  24
ENDBRANCH  11  23
TORSDOF 5
ENDMDL
MODEL 4
REMARK VINA RESULT:      -7.5      2.864      3.552
REMARK  Name = 
REMARK  7 active torsions:
REMARK  status: ('A' for Active; 'I' for Inactive)
REMARK    1  A    between atoms: C_1  and  O_2
REMARK    2  A    between atoms: O_2  and  C_3
REMARK    3  A    between atoms: N_7  and  C_8
REMARK    4  A    between atoms: C_21  and  O_22
REMARK    5  A    between atoms: O_22  and  C_23
REMARK    6  A    between atoms: C_23  and  C_24
REMARK    7  A    between atoms: N_26  and  C_27
REMARK                            x       y       z     vdW  Elec       q    Type
REMARK                         _______ _______ _______ _____ _____    ______ ____
ROOT
ATOM      1  C   UNL     1       0.741  10.048  21.724  0.00  0.00    +0.000 A 
ATOM      2  C   UNL     1       1.445   8.932  21.288  0.00  0.00    +0.000 A 
ATOM      3  C   UNL     1       1.752   8.740  19.925  0.00  0.00    +0.000 A 
ATOM      4  C   UNL     1       2.323   7.568  19.416  0.00  0.00    +0.000 A 
ATOM      5  N   UNL     1       2.536   6.458  20.277  0.00  0.00    +0.000 N 
ATOM      6  N   UNL     1       2.605   7.437  18.110  0.00  0.00    +0.000 NA
ATOM      7  C   UNL     1       2.300   8.466  17.315  0.00  0.00    +0.000 A 
ATOM      8  N   UNL     1       1.711   9.606  17.687  0.00  0.00    +0.000 NA
ATOM      9  C   UNL     1       1.425   9.729  18.993  0.00  0.00    +0.000 A 
ATOM     10  C   UNL     1       0.794  10.876  19.443  0.00  0.00    +0.000 A 
ATOM     11  C   UNL     1       0.473  11.067  20.798  0.00  0.00    +0.000 A 
ATOM     12  H   UNL     1       3.150   6.696  21.051  0.00  0.00    +0.000 HD
ENDROOT
BRANCH   5  13
ATOM     13  C   UNL     1       2.721   5.128  19.836  0.00  0.00    +0.000 A 
ATOM     14  C   UNL     1       1.629   4.274  19.636  0.00  0.00    +0.000 A 
ATOM     15  C   UNL     1       1.818   2.994  19.118  0.00  0.00    +0.000 A 
ATOM     16 CL   UNL     1       0.455   1.982  18.838  0.00  0.00    +0.000 Cl
ATOM     17  C   UNL     1       3.099   2.537  18.816  0.00  0.00    +0.000 A 
ATOM     18  C   UNL     1       4.201   3.358  19.057  0.00  0.00    +0.000 A 
ATOM     19  C   UNL     1       4.006   4.637  19.574  0.00  0.00    +0.000 A 
ATOM     20  F   UNL     1       5.072   5.424  19.793  0.00  0.00    +0.000 F 
ENDBRANCH   5  13
BRANCH   1  22
ATOM     21  C   UNL     1      -1.075  10.299  23.284  0.00  0.00    +0.000 C 
ATOM     22  O   UNL     1       0.321  10.180  23.018  0.00  0.00    +0.000 OA
ENDBRANCH   1  22
BRANCH  11  23
ATOM     23  O   UNL     1      -0.097  12.295  21.048  0.00  0.00    +0.000 OA
BRANCH  23  24
ATOM     24  C   UNL     1       0.176  13.308  20.076  0.00  0.00    +0.000 C 
BRANCH  24  25
ATOM     25  C   UNL     1       1.086  14.411  20.648  0.00  0.00    +0.000 C 
ATOM     26  C   UNL     1       2.554  14.314  20.186  0.00  0.00    +0.000 C 
ATOM     27  N   UNL     1       2.692  14.606  18.744  0.00  0.00    +0.000 NA
ATOM     28  C   UNL     1       4.089  14.533  18.328  0.00  0.00    +0.000 C 
ATOM     29  C   UNL     1       2.126  15.941  18.470  0.00  0.00    +0.000 C 
ATOM     30  C   UNL     1       0.670  16.037  18.950  0.00  0.00    +0.000 C 
ATOM     31  O   UNL     1       0.552  15.722  20.346  0.00  0.00    +0.000 OA
ENDBRANCH  24  25
ENDBRANCH  23  24
ENDBRANCH  11  23
TORSDOF 5
ENDMDL
MODEL 5
REMARK VINA RESULT:      -7.4      1.669      2.123
REMARK  Name = 
REMARK  7 active torsions:
REMARK  status: ('A' for Active; 'I' for Inactive)
REMARK    1  A    between atoms: C_1  and  O_2
REMARK    2  A    between atoms: O_2  and  C_3
REMARK    3  A    between atoms: N_7  and  C_8
REMARK    4  A    between atoms: C_21  and  O_22
REMARK    5  A    between atoms: O_22  and  C_23
REMARK    6  A    between atoms: C_23  and  C_24
REMARK    7  A    between atoms: N_26  and  C_27
REMARK                            x       y       z     vdW  Elec       q    Type
REMARK                         _______ _______ _______ _____ _____    ______ ____
ROOT
ATOM      1  C   UNL     1       0.028   9.753  20.765  0.00  0.00    +0.000 A 
ATOM      2  C   UNL     1       0.922   8.697  20.624  0.00  0.00    +0.000 A 
ATOM      3  C   UNL     1       1.663   8.513  19.439  0.00  0.00    +0.000 A 
ATOM      4  C   UNL     1       2.459   7.388  19.190  0.00  0.00    +0.000 A 
ATOM      5  N   UNL     1       2.474   6.316  20.122  0.00  0.00    +0.000 N 
ATOM      6  N   UNL     1       3.154   7.262  18.048  0.00  0.00    +0.000 NA
ATOM      7  C   UNL     1       3.038   8.247  17.152  0.00  0.00    +0.000 A 
ATOM      8  N   UNL     1       2.271   9.335  17.267  0.00  0.00    +0.000 NA
ATOM      9  C   UNL     1       1.574   9.453  18.409  0.00  0.00    +0.000 A 
ATOM     10  C   UNL     1       0.741  10.545  18.585  0.00  0.00    +0.000 A 
ATOM     11  C   UNL     1      -0.010  10.729  19.758  0.00  0.00    +0.000 A 
ATOM     12  H   UNL     1       2.787   6.620  21.039  0.00  0.00    +0.000 HD
ENDROOT
BRANCH   5  13
ATOM     13  C   UNL     1       2.897   5.001  19.822  0.00  0.00    +0.000 A 
ATOM     14  C   UNL     1       1.968   3.966  19.644  0.00  0.00    +0.000 A 
ATOM     15  C   UNL     1       2.392   2.694  19.263  0.00  0.00    +0.000 A 
ATOM     16 CL   UNL     1       1.228   1.454  19.007  0.00  0.00    +0.000 Cl
ATOM     17  C   UNL     1       3.748   2.428  19.078  0.00  0.00    +0.000 A 
ATOM     18  C   UNL     1       4.687   3.435  19.298  0.00  0.00    +0.000 A 
ATOM     19  C   UNL     1       4.258   4.705  19.679  0.00  0.00    +0.000 A 
ATOM     20  F   UNL     1       5.168   5.671  19.880  0.00  0.00    +0.000 F 
ENDBRANCH   5  13
BRANCH   1  22
ATOM     21  C   UNL     1      -0.219   9.831  23.158  0.00  0.00    +0.000 C 
ATOM     22  O   UNL     1      -0.792   9.867  21.852  0.00  0.00    +0.000 OA
ENDBRANCH   1  22
BRANCH  11  23
ATOM     23  O   UNL     1      -0.727  11.904  19.760  0.00  0.00    +0.000 OA
BRANCH  23  24
ATOM     24  C   UNL     1      -1.644  12.065  18.675  0.00  0.00    +0.000 C 
BRANCH  24  25
ATOM     25  C   UNL     1      -2.633  10.889  18.590  0.00  0.00    +0.000 C 
ATOM     26  C   UNL     1      -4.114  11.318  18.532  0.00  0.00    +0.000 C 
ATOM     27  N   UNL     1      -4.434  11.999  17.260  0.00  0.00    +0.000 NA
ATOM     28  C   UNL     1      -5.843  12.378  17.211  0.00  0.00    +0.000 C 
ATOM     29  C   UNL     1      -4.085  11.107  16.138  0.00  0.00    +0.000 C 
ATOM     30  C   UNL     1      -2.614  10.667  16.213  0.00  0.00    +0.000 C 
ATOM     31  O   UNL     1      -2.316  10.034  17.466  0.00  0.00    +0.000 OA
ENDBRANCH  24  25
ENDBRANCH  23  24
ENDBRANCH  11  23
TORSDOF 5
ENDMDL
MODEL 6
REMARK VINA RESULT:      -7.4      3.033      4.166
REMARK  Name = 
REMARK  7 active torsions:
REMARK  status: ('A' for Active; 'I' for Inactive)
REMARK    1  A    between atoms: C_1  and  O_2
REMARK    2  A    between atoms: O_2  and  C_3
REMARK    3  A    between atoms: N_7  and  C_8
REMARK    4  A    between atoms: C_21  and  O_22
REMARK    5  A    between atoms: O_22  and  C_23
REMARK    6  A    between atoms: C_23  and  C_24
REMARK    7  A    between atoms: N_26  and  C_27
REMARK                            x       y       z     vdW  Elec       q    Type
REMARK                         _______ _______ _______ _____ _____    ______ ____
ROOT
ATOM      1  C   UNL     1       1.381   9.610  18.802  0.00  0.00    +0.000 A 
ATOM      2  C   UNL     1       2.095   8.583  18.195  0.00  0.00    +0.000 A 
ATOM      3  C   UNL     1       2.338   7.362  18.857  0.00  0.00    +0.000 A 
ATOM      4  C   UNL     1       3.174   6.359  18.352  0.00  0.00    +0.000 A 
ATOM      5  N   UNL     1       3.901   6.587  17.153  0.00  0.00    +0.000 N 
ATOM      6  N   UNL     1       3.367   5.209  19.016  0.00  0.00    +0.000 NA
ATOM      7  C   UNL     1       2.741   5.070  20.189  0.00  0.00    +0.000 A 
ATOM      8  N   UNL     1       1.965   5.980  20.784  0.00  0.00    +0.000 NA
ATOM      9  C   UNL     1       1.780   7.131  20.117  0.00  0.00    +0.000 A 
ATOM     10  C   UNL     1       1.005   8.127  20.686  0.00  0.00    +0.000 A 
ATOM     11  C   UNL     1       0.769   9.351  20.038  0.00  0.00    +0.000 A 
ATOM     12  H   UNL     1       3.283   6.787  16.371  0.00  0.00    +0.000 HD
ENDROOT
BRANCH   5  13
ATOM     13  C   UNL     1       5.043   5.853  16.758  0.00  0.00    +0.000 A 
ATOM     14  C   UNL     1       5.065   5.147  15.547  0.00  0.00    +0.000 A 
ATOM     15  C   UNL     1       6.225   4.500  15.128  0.00  0.00    +0.000 A 
ATOM     16 CL   UNL     1       6.239   3.680  13.616  0.00  0.00    +0.000 Cl
ATOM     17  C   UNL     1       7.372   4.524  15.919  0.00  0.00    +0.000 A 
ATOM     18  C   UNL     1       7.351   5.181  17.150  0.00  0.00    +0.000 A 
ATOM     19  C   UNL     1       6.188   5.828  17.564  0.00  0.00    +0.000 A 
ATOM     20  F   UNL     1       6.179   6.465  18.745  0.00  0.00    +0.000 F 
ENDBRANCH   5  13
BRANCH   1  22
ATOM     21  C   UNL     1       2.371  11.729  18.232  0.00  0.00    +0.000 C 
ATOM     22  O   UNL     1       1.253  10.842  18.227  0.00  0.00    +0.000 OA
ENDBRANCH   1  22
BRANCH  11  23
ATOM     23  O   UNL     1      -0.074  10.181  20.743  0.00  0.00    +0.000 OA
BRANCH  23  24
ATOM     24  C   UNL     1       0.570  11.108  21.621  0.00  0.00    +0.000 C 
BRANCH  24  25
ATOM     25  C   UNL     1       0.309  12.564  21.197  0.00  0.00    +0.000 C 
ATOM     26  C   UNL     1      -0.921  12.740  20.284  0.00  0.00    +0.000 C 
ATOM     27  N   UNL     1      -2.181  12.466  21.007  0.00  0.00    +0.000 NA
ATOM     28  C   UNL     1      -3.336  12.659  20.136  0.00  0.00    +0.000 C 
ATOM     29  C   UNL     1      -2.255  13.346  22.189  0.00  0.00    +0.000 C 
ATOM     30  C   UNL     1      -1.017  13.180  23.085  0.00  0.00    +0.000 C 
ATOM     31  O   UNL     1       0.197  13.422  22.358  0.00  0.00    +0.000 OA
ENDBRANCH  24  25
ENDBRANCH  23  24
ENDBRANCH  11  23
TORSDOF 5
ENDMDL
MODEL 7
REMARK VINA RESULT:      -7.4      4.657      8.731
REMARK  Name = 
REMARK  7 active torsions:
REMARK  status: ('A' for Active; 'I' for Inactive)
REMARK    1  A    between atoms: C_1  and  O_2
REMARK    2  A    between atoms: O_2  and  C_3
REMARK    3  A    between atoms: N_7  and  C_8
REMARK    4  A    between atoms: C_21  and  O_22
REMARK    5  A    between atoms: O_22  and  C_23
REMARK    6  A    between atoms: C_23  and  C_24
REMARK    7  A    between atoms: N_26  and  C_27
REMARK                            x       y       z     vdW  Elec       q    Type
REMARK                         _______ _______ _______ _____ _____    ______ ____
ROOT
ATOM      1  C   UNL     1       2.281   5.780  20.375  0.00  0.00    +0.000 A 
ATOM      2  C   UNL     1       1.550   6.949  20.547  0.00  0.00    +0.000 A 
ATOM      3  C   UNL     1       1.611   8.001  19.611  0.00  0.00    +0.000 A 
ATOM      4  C   UNL     1       1.016   9.253  19.811  0.00  0.00    +0.000 A 
ATOM      5  N   UNL     1       0.384   9.542  21.051  0.00  0.00    +0.000 N 
ATOM      6  N   UNL     1       1.095  10.222  18.885  0.00  0.00    +0.000 NA
ATOM      7  C   UNL     1       1.782   9.945  17.772  0.00  0.00    +0.000 A 
ATOM      8  N   UNL     1       2.427   8.807  17.502  0.00  0.00    +0.000 NA
ATOM      9  C   UNL     1       2.350   7.844  18.435  0.00  0.00    +0.000 A 
ATOM     10  C   UNL     1       3.014   6.647  18.230  0.00  0.00    +0.000 A 
ATOM     11  C   UNL     1       2.968   5.599  19.165  0.00  0.00    +0.000 A 
ATOM     12  H   UNL     1      -0.373   8.893  21.246  0.00  0.00    +0.000 HD
ENDROOT
BRANCH   5  13
ATOM     13  C   UNL     1       0.107  10.845  21.523  0.00  0.00    +0.000 A 
ATOM     14  C   UNL     1       0.692  11.970  20.925  0.00  0.00    +0.000 A 
ATOM     15  C   UNL     1       0.345  13.253  21.343  0.00  0.00    +0.000 A 
ATOM     16 CL   UNL     1       1.042  14.617  20.561  0.00  0.00    +0.000 Cl
ATOM     17  C   UNL     1      -0.572  13.435  22.377  0.00  0.00    +0.000 A 
ATOM     18  C   UNL     1      -1.125  12.324  23.014  0.00  0.00    +0.000 A 
ATOM     19  C   UNL     1      -0.775  11.043  22.592  0.00  0.00    +0.000 A 
ATOM     20  F   UNL     1      -1.319   9.980  23.205  0.00  0.00    +0.000 F 
ENDBRANCH   5  13
BRANCH   1  22
ATOM     21  C   UNL     1       1.490   3.667  21.215  0.00  0.00    +0.000 C 
ATOM     22  O   UNL     1       2.335   4.811  21.336  0.00  0.00    +0.000 OA
ENDBRANCH   1  22
BRANCH  11  23
ATOM     23  O   UNL     1       3.644   4.475  18.748  0.00  0.00    +0.000 OA
BRANCH  23  24
ATOM     24  C   UNL     1       4.030   4.466  17.371  0.00  0.00    +0.000 C 
BRANCH  24  25
ATOM     25  C   UNL     1       5.370   3.738  17.162  0.00  0.00    +0.000 C 
ATOM     26  C   UNL     1       5.631   3.312  15.703  0.00  0.00    +0.000 C 
ATOM     27  N   UNL     1       5.848   4.481  14.824  0.00  0.00    +0.000 NA
ATOM     28  C   UNL     1       6.116   4.060  13.453  0.00  0.00    +0.000 C 
ATOM     29  C   UNL     1       6.964   5.283  15.362  0.00  0.00    +0.000 C 
ATOM     30  C   UNL     1       6.706   5.687  16.821  0.00  0.00    +0.000 C 
ATOM     31  O   UNL     1       6.470   4.541  17.653  0.00  0.00    +0.000 OA
ENDBRANCH  24  25
ENDBRANCH  23  24
ENDBRANCH  11  23
TORSDOF 5
ENDMDL
MODEL 8
REMARK VINA RESULT:      -7.4      4.595      8.643
REMARK  Name = 
REMARK  7 active torsions:
REMARK  status: ('A' for Active; 'I' for Inactive)
REMARK    1  A    between atoms: C_1  and  O_2
REMARK    2  A    between atoms: O_2  and  C_3
REMARK    3  A    between atoms: N_7  and  C_8
REMARK    4  A    between atoms: C_21  and  O_22
REMARK    5  A    between atoms: O_22  and  C_23
REMARK    6  A    between atoms: C_23  and  C_24
REMARK    7  A    between atoms: N_26  and  C_27
REMARK                            x       y       z     vdW  Elec       q    Type
REMARK                         _______ _______ _______ _____ _____    ______ ____
ROOT
ATOM      1  C   UNL     1       2.258   5.833  20.351  0.00  0.00    +0.000 A 
ATOM      2  C   UNL     1       1.425   6.939  20.471  0.00  0.00    +0.000 A 
ATOM      3  C   UNL     1       1.526   8.037  19.592  0.00  0.00    +0.000 A 
ATOM      4  C   UNL     1       0.818   9.233  19.760  0.00  0.00    +0.000 A 
ATOM      5  N   UNL     1       0.012   9.417  20.916  0.00  0.00    +0.000 N 
ATOM      6  N   UNL     1       0.942  10.248  18.891  0.00  0.00    +0.000 NA
ATOM      7  C   UNL     1       1.785  10.075  17.868  0.00  0.00    +0.000 A 
ATOM      8  N   UNL     1       2.544   8.999  17.642  0.00  0.00    +0.000 NA
ATOM      9  C   UNL     1       2.420   7.989  18.519  0.00  0.00    +0.000 A 
ATOM     10  C   UNL     1       3.194   6.852  18.357  0.00  0.00    +0.000 A 
ATOM     11  C   UNL     1       3.107   5.760  19.236  0.00  0.00    +0.000 A 
ATOM     12  H   UNL     1      -0.713   8.708  20.984  0.00  0.00    +0.000 HD
ENDROOT
BRANCH   5  13
ATOM     13  C   UNL     1      -0.421  10.673  21.398  0.00  0.00    +0.000 A 
ATOM     14  C   UNL     1      -0.441  11.799  20.563  0.00  0.00    +0.000 A 
ATOM     15  C   UNL     1      -0.951  13.011  21.024  0.00  0.00    +0.000 A 
ATOM     16 CL   UNL     1      -1.007  14.365  19.965  0.00  0.00    +0.000 Cl
ATOM     17  C   UNL     1      -1.427  13.126  22.329  0.00  0.00    +0.000 A 
ATOM     18  C   UNL     1      -1.368  12.027  23.187  0.00  0.00    +0.000 A 
ATOM     19  C   UNL     1      -0.857  10.817  22.720  0.00  0.00    +0.000 A 
ATOM     20  F   UNL     1      -0.813   9.763  23.549  0.00  0.00    +0.000 F 
ENDBRANCH   5  13
BRANCH   1  22
ATOM     21  C   UNL     1       1.384   3.715  21.088  0.00  0.00    +0.000 C 
ATOM     22  O   UNL     1       2.261   4.825  21.273  0.00  0.00    +0.000 OA
ENDBRANCH   1  22
BRANCH  11  23
ATOM     23  O   UNL     1       3.914   4.707  18.868  0.00  0.00    +0.000 OA
BRANCH  23  24
ATOM     24  C   UNL     1       5.235   4.726  19.416  0.00  0.00    +0.000 C 
BRANCH  24  25
ATOM     25  C   UNL     1       6.277   4.226  18.399  0.00  0.00    +0.000 C 
ATOM     26  C   UNL     1       5.858   4.417  16.927  0.00  0.00    +0.000 C 
ATOM     27  N   UNL     1       5.817   5.847  16.553  0.00  0.00    +0.000 NA
ATOM     28  C   UNL     1       5.441   6.009  15.152  0.00  0.00    +0.000 C 
ATOM     29  C   UNL     1       7.137   6.450  16.822  0.00  0.00    +0.000 C 
ATOM     30  C   UNL     1       7.557   6.239  18.285  0.00  0.00    +0.000 C 
ATOM     31  O   UNL     1       7.563   4.847  18.637  0.00  0.00    +0.000 OA
ENDBRANCH  24  25
ENDBRANCH  23  24
ENDBRANCH  11  23
TORSDOF 5
ENDMDL
MODEL 9
REMARK VINA RESULT:      -7.4      2.974      3.823
REMARK  Name = 
REMARK  7 active torsions:
REMARK  status: ('A' for Active; 'I' for Inactive)
REMARK    1  A    between atoms: C_1  and  O_2
REMARK    2  A    between atoms: O_2  and  C_3
REMARK    3  A    between atoms: N_7  and  C_8
REMARK    4  A    between atoms: C_21  and  O_22
REMARK    5  A    between atoms: O_22  and  C_23
REMARK    6  A    between atoms: C_23  and  C_24
REMARK    7  A    between atoms: N_26  and  C_27
REMARK                            x       y       z     vdW  Elec       q    Type
REMARK                         _______ _______ _______ _____ _____    ______ ____
ROOT
ATOM      1  C   UNL     1       0.783  10.167  21.640  0.00  0.00    +0.000 A 
ATOM      2  C   UNL     1       1.351   8.926  21.380  0.00  0.00    +0.000 A 
ATOM      3  C   UNL     1       1.702   8.535  20.072  0.00  0.00    +0.000 A 
ATOM      4  C   UNL     1       2.134   7.246  19.737  0.00  0.00    +0.000 A 
ATOM      5  N   UNL     1       2.148   6.228  20.729  0.00  0.00    +0.000 N 
ATOM      6  N   UNL     1       2.466   6.924  18.476  0.00  0.00    +0.000 NA
ATOM      7  C   UNL     1       2.346   7.882  17.552  0.00  0.00    +0.000 A 
ATOM      8  N   UNL     1       1.898   9.125  17.753  0.00  0.00    +0.000 NA
ATOM      9  C   UNL     1       1.563   9.439  19.015  0.00  0.00    +0.000 A 
ATOM     10  C   UNL     1       1.070  10.703  19.290  0.00  0.00    +0.000 A 
ATOM     11  C   UNL     1       0.706  11.095  20.590  0.00  0.00    +0.000 A 
ATOM     12  H   UNL     1       2.746   6.476  21.512  0.00  0.00    +0.000 HD
ENDROOT
BRANCH   5  13
ATOM     13  C   UNL     1       2.174   4.843  20.453  0.00  0.00    +0.000 A 
ATOM     14  C   UNL     1       3.388   4.151  20.342  0.00  0.00    +0.000 A 
ATOM     15  C   UNL     1       3.400   2.770  20.157  0.00  0.00    +0.000 A 
ATOM     16 CL   UNL     1       4.904   1.939  20.071  0.00  0.00    +0.000 Cl
ATOM     17  C   UNL     1       2.205   2.061  20.054  0.00  0.00    +0.000 A 
ATOM     18  C   UNL     1       0.989   2.743  20.113  0.00  0.00    +0.000 A 
ATOM     19  C   UNL     1       0.983   4.124  20.299  0.00  0.00    +0.000 A 
ATOM     20  F   UNL     1      -0.192   4.770  20.364  0.00  0.00    +0.000 F 
ENDBRANCH   5  13
BRANCH   1  22
ATOM     21  C   UNL     1      -1.089  10.483  23.120  0.00  0.00    +0.000 C 
ATOM     22  O   UNL     1       0.318  10.506  22.879  0.00  0.00    +0.000 OA
ENDBRANCH   1  22
BRANCH  11  23
ATOM     23  O   UNL     1       0.296  12.407  20.662  0.00  0.00    +0.000 OA
BRANCH  23  24
ATOM     24  C   UNL     1       1.341  13.368  20.837  0.00  0.00    +0.000 C 
BRANCH  24  25
ATOM     25  C   UNL     1       1.227  14.519  19.822  0.00  0.00    +0.000 C 
ATOM     26  C   UNL     1       2.096  15.746  20.165  0.00  0.00    +0.000 C 
ATOM     27  N   UNL     1       3.537  15.447  20.035  0.00  0.00    +0.000 NA
ATOM     28  C   UNL     1       4.345  16.623  20.341  0.00  0.00    +0.000 C 
ATOM     29  C   UNL     1       3.803  14.962  18.667  0.00  0.00    +0.000 C 
ATOM     30  C   UNL     1       2.920  13.752  18.324  0.00  0.00    +0.000 C 
ATOM     31  O   UNL     1       1.526  14.053  18.484  0.00  0.00    +0.000 OA
ENDBRANCH  24  25
ENDBRANCH  23  24
ENDBRANCH  11  23
TORSDOF 5
ENDMDL
