MODEL 1
REMARK VINA RESULT:      -7.5      0.000      0.000
REMARK  Name = 
REMARK  7 active torsions:
REMARK  status: ('A' for Active; 'I' for Inactive)
REMARK    1  A    between atoms: C_1  and  C_2
REMARK    2  A    between atoms: C_2  and  C_3
REMARK    3  A    between atoms: C_2  and  N_4
REMARK    4  A    between atoms: C_2  and  C_15
REMARK    5  A    between atoms: C_5  and  C_7
REMARK    6  A    between atoms: C_10  and  N_11
REMARK    7  A    between atoms: C_18  and  C_19
REMARK                            x       y       z     vdW  Elec       q    Type
REMARK                         _______ _______ _______ _____ _____    ______ ____
ROOT
ATOM      1  N   UNL     1       6.126   5.883  15.901  0.00  0.00    +0.000 N 
ATOM      2  C   UNL     1       6.992   4.873  15.513  0.00  0.00    +0.000 C 
ATOM      3  O   UNL     1       7.752   4.298  16.282  0.00  0.00    +0.000 OA
ATOM      4  H   UNL     1       5.470   6.216  15.205  0.00  0.00    +0.000 HD
ENDROOT
BRANCH   2   5
ATOM      5  C   UNL     1       6.935   4.535  14.104  0.00  0.00    +0.000 A 
ATOM      6  C   UNL     1       7.681   5.000  13.029  0.00  0.00    +0.000 A 
ATOM      7  C   UNL     1       7.196   4.343  11.871  0.00  0.00    +0.000 A 
ATOM      8  C   UNL     1       6.189   3.524  12.317  0.00  0.00    +0.000 A 
ATOM      9  O   UNL     1       6.013   3.620  13.663  0.00  0.00    +0.000 OA
BRANCH   8  10
ATOM     10  N   UNL     1       5.320   2.622  11.630  0.00  0.00    +0.000 N 
ATOM     11  O   UNL     1       5.789   1.510  11.355  0.00  0.00    +0.000 OA
ATOM     12  O   UNL     1       4.176   3.015  11.369  0.00  0.00    +0.000 OA
ENDBRANCH   8  10
ENDBRANCH   2   5
BRANCH   1  14
ATOM     13  C   UNL     1       7.381   6.331  17.964  0.00  0.00    +0.000 C 
ATOM     14  C   UNL     1       5.994   6.377  17.285  0.00  0.00    +0.000 C 
ATOM     15  C   UNL     1       5.479   7.836  17.285  0.00  0.00    +0.000 C 
BRANCH  14  16
ATOM     16  C   UNL     1       4.956   5.509  18.053  0.00  0.00    +0.000 A 
ATOM     17  C   UNL     1       5.319   4.363  18.789  0.00  0.00    +0.000 A 
ATOM     18  C   UNL     1       4.378   3.628  19.524  0.00  0.00    +0.000 A 
ATOM     19  C   UNL     1       3.041   4.019  19.541  0.00  0.00    +0.000 A 
ATOM     20  C   UNL     1       2.651   5.145  18.814  0.00  0.00    +0.000 A 
ATOM     21  C   UNL     1       3.595   5.877  18.076  0.00  0.00    +0.000 A 
BRANCH  19  22
ATOM     22  C   UNL     1       2.079   3.268  20.296  0.00  0.00    +0.000 C 
ATOM     23  N   UNL     1       1.301   2.666  20.907  0.00  0.00    +0.000 NA
ENDBRANCH  19  22
ENDBRANCH  14  16
ENDBRANCH   1  14
TORSDOF 5
ENDMDL
MODEL 2
REMARK VINA RESULT:      -7.4      2.151      2.911
REMARK  Name = 
REMARK  7 active torsions:
REMARK  status: ('A' for Active; 'I' for Inactive)
REMARK    1  A    between atoms: C_1  and  C_2
REMARK    2  A    between atoms: C_2  and  C_3
REMARK    3  A    between atoms: C_2  and  N_4
REMARK    4  A    between atoms: C_2  and  C_15
REMARK    5  A    between atoms: C_5  and  C_7
REMARK    6  A    between atoms: C_10  and  N_11
REMARK    7  A    between atoms: C_18  and  C_19
REMARK                            x       y       z     vdW  Elec       q    Type
REMARK                         _______ _______ _______ _____ _____    ______ ____
ROOT
ATOM      1  N   UNL     1       5.521   4.790  16.582  0.00  0.00    +0.000 N 
ATOM      2  C   UNL     1       6.763   4.504  16.036  0.00  0.00    +0.000 C 
ATOM      3  O   UNL     1       7.781   4.366  16.703  0.00  0.00    +0.000 OA
ATOM      4  H   UNL     1       4.730   4.780  15.949  0.00  0.00    +0.000 HD
ENDROOT
BRANCH   2   5
ATOM      5  C   UNL     1       6.775   4.376  14.592  0.00  0.00    +0.000 A 
ATOM      6  C   UNL     1       7.549   5.015  13.632  0.00  0.00    +0.000 A 
ATOM      7  C   UNL     1       7.134   4.524  12.369  0.00  0.00    +0.000 A 
ATOM      8  C   UNL     1       6.137   3.622  12.644  0.00  0.00    +0.000 A 
ATOM      9  O   UNL     1       5.902   3.513  13.980  0.00  0.00    +0.000 OA
BRANCH   8  10
ATOM     10  N   UNL     1       5.326   2.809  11.794  0.00  0.00    +0.000 N 
ATOM     11  O   UNL     1       5.817   1.731  11.434  0.00  0.00    +0.000 OA
ATOM     12  O   UNL     1       4.207   3.238  11.487  0.00  0.00    +0.000 OA
ENDBRANCH   8  10
ENDBRANCH   2   5
BRANCH   1  14
ATOM     13  C   UNL     1       4.757   3.591  18.584  0.00  0.00    +0.000 C 
ATOM     14  C   UNL     1       5.264   4.940  18.026  0.00  0.00    +0.000 C 
ATOM     15  C   UNL     1       6.566   5.335  18.764  0.00  0.00    +0.000 C 
BRANCH  14  16
ATOM     16  C   UNL     1       4.226   6.076  18.257  0.00  0.00    +0.000 A 
ATOM     17  C   UNL     1       4.078   7.162  17.371  0.00  0.00    +0.000 A 
ATOM     18  C   UNL     1       3.096   8.144  17.564  0.00  0.00    +0.000 A 
ATOM     19  C   UNL     1       2.233   8.069  18.655  0.00  0.00    +0.000 A 
ATOM     20  C   UNL     1       2.363   7.008  19.554  0.00  0.00    +0.000 A 
ATOM     21  C   UNL     1       3.349   6.029  19.360  0.00  0.00    +0.000 A 
BRANCH  19  22
ATOM     22  C   UNL     1       1.226   9.072  18.850  0.00  0.00    +0.000 C 
ATOM     23  N   UNL     1       0.412   9.880  19.010  0.00  0.00    +0.000 NA
ENDBRANCH  19  22
ENDBRANCH  14  16
ENDBRANCH   1  14
TORSDOF 5
ENDMDL
MODEL 3
REMARK VINA RESULT:      -7.4      2.146      2.946
REMARK  Name = 
REMARK  7 active torsions:
REMARK  status: ('A' for Active; 'I' for Inactive)
REMARK    1  A    between atoms: C_1  and  C_2
REMARK    2  A    between atoms: C_2  and  C_3
REMARK    3  A    between atoms: C_2  and  N_4
REMARK    4  A    between atoms: C_2  and  C_15
REMARK    5  A    between atoms: C_5  and  C_7
REMARK    6  A    between atoms: C_10  and  N_11
REMARK    7  A    between atoms: C_18  and  C_19
REMARK                            x       y       z     vdW  Elec       q    Type
REMARK                         _______ _______ _______ _____ _____    ______ ____
ROOT
ATOM      1  N   UNL     1       5.449   4.665  16.609  0.00  0.00    +0.000 N 
ATOM      2  C   UNL     1       6.719   4.545  16.066  0.00  0.00    +0.000 C 
ATOM      3  O   UNL     1       7.746   4.559  16.734  0.00  0.00    +0.000 OA
ATOM      4  H   UNL     1       4.668   4.537  15.977  0.00  0.00    +0.000 HD
ENDROOT
BRANCH   2   5
ATOM      5  C   UNL     1       6.750   4.396  14.624  0.00  0.00    +0.000 A 
ATOM      6  C   UNL     1       7.543   5.014  13.666  0.00  0.00    +0.000 A 
ATOM      7  C   UNL     1       7.142   4.509  12.405  0.00  0.00    +0.000 A 
ATOM      8  C   UNL     1       6.133   3.619  12.678  0.00  0.00    +0.000 A 
ATOM      9  O   UNL     1       5.878   3.531  14.012  0.00  0.00    +0.000 OA
BRANCH   8  10
ATOM     10  N   UNL     1       5.327   2.801  11.829  0.00  0.00    +0.000 N 
ATOM     11  O   UNL     1       4.218   3.256  11.519  0.00  0.00    +0.000 OA
ATOM     12  O   UNL     1       5.794   1.713  11.469  0.00  0.00    +0.000 OA
ENDBRANCH   8  10
ENDBRANCH   2   5
BRANCH   1  14
ATOM     13  C   UNL     1       4.685   3.440  18.595  0.00  0.00    +0.000 C 
ATOM     14  C   UNL     1       5.172   4.803  18.051  0.00  0.00    +0.000 C 
ATOM     15  C   UNL     1       6.457   5.219  18.806  0.00  0.00    +0.000 C 
BRANCH  14  16
ATOM     16  C   UNL     1       4.110   5.916  18.275  0.00  0.00    +0.000 A 
ATOM     17  C   UNL     1       3.248   5.931  19.391  0.00  0.00    +0.000 A 
ATOM     18  C   UNL     1       2.337   6.975  19.607  0.00  0.00    +0.000 A 
ATOM     19  C   UNL     1       2.261   8.038  18.708  0.00  0.00    +0.000 A 
ATOM     20  C   UNL     1       3.097   8.045  17.590  0.00  0.00    +0.000 A 
ATOM     21  C   UNL     1       4.005   6.996  17.374  0.00  0.00    +0.000 A 
BRANCH  19  22
ATOM     22  C   UNL     1       1.332   9.108  18.932  0.00  0.00    +0.000 C 
ATOM     23  N   UNL     1       0.580   9.970  19.111  0.00  0.00    +0.000 NA
ENDBRANCH  19  22
ENDBRANCH  14  16
ENDBRANCH   1  14
TORSDOF 5
ENDMDL
MODEL 4
REMARK VINA RESULT:      -7.4      1.052      1.448
REMARK  Name = 
REMARK  7 active torsions:
REMARK  status: ('A' for Active; 'I' for Inactive)
REMARK    1  A    between atoms: C_1  and  C_2
REMARK    2  A    between atoms: C_2  and  C_3
REMARK    3  A    between atoms: C_2  and  N_4
REMARK    4  A    between atoms: C_2  and  C_15
REMARK    5  A    between atoms: C_5  and  C_7
REMARK    6  A    between atoms: C_10  and  N_11
REMARK    7  A    between atoms: C_18  and  C_19
REMARK                            x       y       z     vdW  Elec       q    Type
REMARK                         _______ _______ _______ _____ _____    ______ ____
ROOT
ATOM      1  N   UNL     1       6.811   5.064  16.242  0.00  0.00    +0.000 N 
ATOM      2  C   UNL     1       6.118   5.516  15.130  0.00  0.00    +0.000 C 
ATOM      3  O   UNL     1       5.322   6.447  15.161  0.00  0.00    +0.000 OA
ATOM      4  H   UNL     1       7.519   4.357  16.083  0.00  0.00    +0.000 HD
ENDROOT
BRANCH   2   5
ATOM      5  C   UNL     1       6.406   4.800  13.904  0.00  0.00    +0.000 A 
ATOM      6  C   UNL     1       7.508   4.854  13.060  0.00  0.00    +0.000 A 
ATOM      7  C   UNL     1       7.261   3.953  11.995  0.00  0.00    +0.000 A 
ATOM      8  C   UNL     1       6.028   3.411  12.261  0.00  0.00    +0.000 A 
ATOM      9  O   UNL     1       5.491   3.905  13.410  0.00  0.00    +0.000 OA
BRANCH   8  10
ATOM     10  N   UNL     1       5.236   2.453  11.557  0.00  0.00    +0.000 N 
ATOM     11  O   UNL     1       5.761   1.351  11.351  0.00  0.00    +0.000 OA
ATOM     12  O   UNL     1       4.097   2.792  11.213  0.00  0.00    +0.000 OA
ENDBRANCH   8  10
ENDBRANCH   2   5
BRANCH   1  14
ATOM     13  C   UNL     1       7.896   5.178  18.442  0.00  0.00    +0.000 C 
ATOM     14  C   UNL     1       6.698   5.653  17.589  0.00  0.00    +0.000 C 
ATOM     15  C   UNL     1       6.722   7.198  17.500  0.00  0.00    +0.000 C 
BRANCH  14  16
ATOM     16  C   UNL     1       5.343   5.237  18.230  0.00  0.00    +0.000 A 
ATOM     17  C   UNL     1       4.222   6.091  18.261  0.00  0.00    +0.000 A 
ATOM     18  C   UNL     1       2.991   5.677  18.790  0.00  0.00    +0.000 A 
ATOM     19  C   UNL     1       2.848   4.390  19.307  0.00  0.00    +0.000 A 
ATOM     20  C   UNL     1       3.944   3.526  19.297  0.00  0.00    +0.000 A 
ATOM     21  C   UNL     1       5.176   3.946  18.770  0.00  0.00    +0.000 A 
BRANCH  19  22
ATOM     22  C   UNL     1       1.587   3.965  19.844  0.00  0.00    +0.000 C 
ATOM     23  N   UNL     1       0.568   3.623  20.274  0.00  0.00    +0.000 NA
ENDBRANCH  19  22
ENDBRANCH  14  16
ENDBRANCH   1  14
TORSDOF 5
ENDMDL
MODEL 5
REMARK VINA RESULT:      -7.4      0.188      1.042
REMARK  Name = 
REMARK  7 active torsions:
REMARK  status: ('A' for Active; 'I' for Inactive)
REMARK    1  A    between atoms: C_1  and  C_2
REMARK    2  A    between atoms: C_2  and  C_3
REMARK    3  A    between atoms: C_2  and  N_4
REMARK    4  A    between atoms: C_2  and  C_15
REMARK    5  A    between atoms: C_5  and  C_7
REMARK    6  A    between atoms: C_10  and  N_11
REMARK    7  A    between atoms: C_18  and  C_19
REMARK                            x       y       z     vdW  Elec       q    Type
REMARK                         _______ _______ _______ _____ _____    ______ ____
ROOT
ATOM      1  N   UNL     1       6.225   5.930  15.892  0.00  0.00    +0.000 N 
ATOM      2  C   UNL     1       7.048   4.884  15.504  0.00  0.00    +0.000 C 
ATOM      3  O   UNL     1       7.790   4.285  16.272  0.00  0.00    +0.000 OA
ATOM      4  H   UNL     1       5.578   6.284  15.198  0.00  0.00    +0.000 HD
ENDROOT
BRANCH   2   5
ATOM      5  C   UNL     1       6.969   4.541  14.098  0.00  0.00    +0.000 A 
ATOM      6  C   UNL     1       7.715   4.985  13.013  0.00  0.00    +0.000 A 
ATOM      7  C   UNL     1       7.203   4.333  11.863  0.00  0.00    +0.000 A 
ATOM      8  C   UNL     1       6.183   3.539  12.323  0.00  0.00    +0.000 A 
ATOM      9  O   UNL     1       6.022   3.645  13.670  0.00  0.00    +0.000 OA
BRANCH   8  10
ATOM     10  N   UNL     1       5.286   2.653  11.650  0.00  0.00    +0.000 N 
ATOM     11  O   UNL     1       5.730   1.533  11.369  0.00  0.00    +0.000 OA
ATOM     12  O   UNL     1       4.147   3.069  11.405  0.00  0.00    +0.000 OA
ENDBRANCH   8  10
ENDBRANCH   2   5
BRANCH   1  14
ATOM     13  C   UNL     1       7.490   6.264  17.971  0.00  0.00    +0.000 C 
ATOM     14  C   UNL     1       6.121   6.436  17.274  0.00  0.00    +0.000 C 
ATOM     15  C   UNL     1       5.742   7.936  17.266  0.00  0.00    +0.000 C 
BRANCH  14  16
ATOM     16  C   UNL     1       4.998   5.668  18.029  0.00  0.00    +0.000 A 
ATOM     17  C   UNL     1       3.642   6.047  17.964  0.00  0.00    +0.000 A 
ATOM     18  C   UNL     1       2.637   5.307  18.603  0.00  0.00    +0.000 A 
ATOM     19  C   UNL     1       2.962   4.163  19.330  0.00  0.00    +0.000 A 
ATOM     20  C   UNL     1       4.298   3.769  19.417  0.00  0.00    +0.000 A 
ATOM     21  C   UNL     1       5.303   4.514  18.780  0.00  0.00    +0.000 A 
BRANCH  19  22
ATOM     22  C   UNL     1       1.933   3.404  19.980  0.00  0.00    +0.000 C 
ATOM     23  N   UNL     1       1.102   2.794  20.508  0.00  0.00    +0.000 NA
ENDBRANCH  19  22
ENDBRANCH  14  16
ENDBRANCH   1  14
TORSDOF 5
ENDMDL
MODEL 6
REMARK VINA RESULT:      -7.3      3.145      4.322
REMARK  Name = 
REMARK  7 active torsions:
REMARK  status: ('A' for Active; 'I' for Inactive)
REMARK    1  A    between atoms: C_1  and  C_2
REMARK    2  A    between atoms: C_2  and  C_3
REMARK    3  A    between atoms: C_2  and  N_4
REMARK    4  A    between atoms: C_2  and  C_15
REMARK    5  A    between atoms: C_5  and  C_7
REMARK    6  A    between atoms: C_10  and  N_11
REMARK    7  A    between atoms: C_18  and  C_19
REMARK                            x       y       z     vdW  Elec       q    Type
REMARK                         _______ _______ _______ _____ _____    ______ ____
ROOT
ATOM      1  N   UNL     1       3.898   5.236  17.470  0.00  0.00    +0.000 N 
ATOM      2  C   UNL     1       4.497   4.091  16.970  0.00  0.00    +0.000 C 
ATOM      3  O   UNL     1       4.206   2.958  17.336  0.00  0.00    +0.000 OA
ATOM      4  H   UNL     1       4.142   6.112  17.024  0.00  0.00    +0.000 HD
ENDROOT
BRANCH   2   5
ATOM      5  C   UNL     1       5.513   4.329  15.964  0.00  0.00    +0.000 A 
ATOM      6  C   UNL     1       6.709   5.032  16.032  0.00  0.00    +0.000 A 
ATOM      7  C   UNL     1       7.308   4.959  14.749  0.00  0.00    +0.000 A 
ATOM      8  C   UNL     1       6.438   4.218  13.988  0.00  0.00    +0.000 A 
ATOM      9  O   UNL     1       5.347   3.824  14.699  0.00  0.00    +0.000 OA
BRANCH   8  10
ATOM     10  N   UNL     1       6.479   3.809  12.620  0.00  0.00    +0.000 N 
ATOM     11  O   UNL     1       5.667   2.938  12.283  0.00  0.00    +0.000 OA
ATOM     12  O   UNL     1       7.313   4.351  11.885  0.00  0.00    +0.000 OA
ENDBRANCH   8  10
ENDBRANCH   2   5
BRANCH   1  14
ATOM     13  C   UNL     1       1.652   4.373  17.965  0.00  0.00    +0.000 C 
ATOM     14  C   UNL     1       2.825   5.238  18.482  0.00  0.00    +0.000 C 
ATOM     15  C   UNL     1       3.343   4.642  19.813  0.00  0.00    +0.000 C 
BRANCH  14  16
ATOM     16  C   UNL     1       2.373   6.699  18.762  0.00  0.00    +0.000 A 
ATOM     17  C   UNL     1       2.283   7.675  17.749  0.00  0.00    +0.000 A 
ATOM     18  C   UNL     1       1.816   8.971  18.010  0.00  0.00    +0.000 A 
ATOM     19  C   UNL     1       1.426   9.330  19.299  0.00  0.00    +0.000 A 
ATOM     20  C   UNL     1       1.512   8.386  20.324  0.00  0.00    +0.000 A 
ATOM     21  C   UNL     1       1.984   7.090  20.060  0.00  0.00    +0.000 A 
BRANCH  19  22
ATOM     22  C   UNL     1       0.944  10.655  19.565  0.00  0.00    +0.000 C 
ATOM     23  N   UNL     1       0.558  11.725  19.782  0.00  0.00    +0.000 NA
ENDBRANCH  19  22
ENDBRANCH  14  16
ENDBRANCH   1  14
TORSDOF 5
ENDMDL
MODEL 7
REMARK VINA RESULT:      -7.3      0.766      1.032
REMARK  Name = 
REMARK  7 active torsions:
REMARK  status: ('A' for Active; 'I' for Inactive)
REMARK    1  A    between atoms: C_1  and  C_2
REMARK    2  A    between atoms: C_2  and  C_3
REMARK    3  A    between atoms: C_2  and  N_4
REMARK    4  A    between atoms: C_2  and  C_15
REMARK    5  A    between atoms: C_5  and  C_7
REMARK    6  A    between atoms: C_10  and  N_11
REMARK    7  A    between atoms: C_18  and  C_19
REMARK                            x       y       z     vdW  Elec       q    Type
REMARK                         _______ _______ _______ _____ _____    ______ ____
ROOT
ATOM      1  N   UNL     1       6.580   6.110  15.937  0.00  0.00    +0.000 N 
ATOM      2  C   UNL     1       6.807   4.782  15.616  0.00  0.00    +0.000 C 
ATOM      3  O   UNL     1       6.977   3.902  16.451  0.00  0.00    +0.000 OA
ATOM      4  H   UNL     1       6.351   6.733  15.172  0.00  0.00    +0.000 HD
ENDROOT
BRANCH   2   5
ATOM      5  C   UNL     1       6.831   4.498  14.195  0.00  0.00    +0.000 A 
ATOM      6  C   UNL     1       7.608   5.034  13.176  0.00  0.00    +0.000 A 
ATOM      7  C   UNL     1       7.206   4.406  11.971  0.00  0.00    +0.000 A 
ATOM      8  C   UNL     1       6.213   3.530  12.336  0.00  0.00    +0.000 A 
ATOM      9  O   UNL     1       5.969   3.566  13.674  0.00  0.00    +0.000 OA
BRANCH   8  10
ATOM     10  N   UNL     1       5.415   2.623  11.574  0.00  0.00    +0.000 N 
ATOM     11  O   UNL     1       4.280   3.012  11.271  0.00  0.00    +0.000 OA
ATOM     12  O   UNL     1       5.915   1.531  11.277  0.00  0.00    +0.000 OA
ENDBRANCH   8  10
ENDBRANCH   2   5
BRANCH   1  14
ATOM     13  C   UNL     1       7.775   6.233  18.079  0.00  0.00    +0.000 C 
ATOM     14  C   UNL     1       6.490   6.628  17.315  0.00  0.00    +0.000 C 
ATOM     15  C   UNL     1       6.365   8.171  17.300  0.00  0.00    +0.000 C 
BRANCH  14  16
ATOM     16  C   UNL     1       5.220   6.057  18.007  0.00  0.00    +0.000 A 
ATOM     17  C   UNL     1       5.282   5.218  19.138  0.00  0.00    +0.000 A 
ATOM     18  C   UNL     1       4.124   4.761  19.784  0.00  0.00    +0.000 A 
ATOM     19  C   UNL     1       2.865   5.132  19.313  0.00  0.00    +0.000 A 
ATOM     20  C   UNL     1       2.774   5.956  18.190  0.00  0.00    +0.000 A 
ATOM     21  C   UNL     1       3.935   6.408  17.543  0.00  0.00    +0.000 A 
BRANCH  19  22
ATOM     22  C   UNL     1       1.681   4.668  19.977  0.00  0.00    +0.000 C 
ATOM     23  N   UNL     1       0.725   4.297  20.515  0.00  0.00    +0.000 NA
ENDBRANCH  19  22
ENDBRANCH  14  16
ENDBRANCH   1  14
TORSDOF 5
ENDMDL
MODEL 8
REMARK VINA RESULT:      -7.3      1.034      1.249
REMARK  Name = 
REMARK  7 active torsions:
REMARK  status: ('A' for Active; 'I' for Inactive)
REMARK    1  A    between atoms: C_1  and  C_2
REMARK    2  A    between atoms: C_2  and  C_3
REMARK    3  A    between atoms: C_2  and  N_4
REMARK    4  A    between atoms: C_2  and  C_15
REMARK    5  A    between atoms: C_5  and  C_7
REMARK    6  A    between atoms: C_10  and  N_11
REMARK    7  A    between atoms: C_18  and  C_19
REMARK                            x       y       z     vdW  Elec       q    Type
REMARK                         _______ _______ _______ _____ _____    ______ ____
ROOT
ATOM      1  N   UNL     1       6.801   4.994  16.289  0.00  0.00    +0.000 N 
ATOM      2  C   UNL     1       6.080   5.445  15.196  0.00  0.00    +0.000 C 
ATOM      3  O   UNL     1       5.252   6.346  15.255  0.00  0.00    +0.000 OA
ATOM      4  H   UNL     1       7.532   4.316  16.107  0.00  0.00    +0.000 HD
ENDROOT
BRANCH   2   5
ATOM      5  C   UNL     1       6.378   4.765  13.951  0.00  0.00    +0.000 A 
ATOM      6  C   UNL     1       7.475   4.864  13.104  0.00  0.00    +0.000 A 
ATOM      7  C   UNL     1       7.243   3.984  12.018  0.00  0.00    +0.000 A 
ATOM      8  C   UNL     1       6.022   3.410  12.275  0.00  0.00    +0.000 A 
ATOM      9  O   UNL     1       5.480   3.864  13.438  0.00  0.00    +0.000 OA
BRANCH   8  10
ATOM     10  N   UNL     1       5.248   2.453  11.551  0.00  0.00    +0.000 N 
ATOM     11  O   UNL     1       4.111   2.809  11.214  0.00  0.00    +0.000 OA
ATOM     12  O   UNL     1       5.767   1.355  11.315  0.00  0.00    +0.000 OA
ENDBRANCH   8  10
ENDBRANCH   2   5
BRANCH   1  14
ATOM     13  C   UNL     1       7.935   5.147  18.462  0.00  0.00    +0.000 C 
ATOM     14  C   UNL     1       6.683   5.550  17.650  0.00  0.00    +0.000 C 
ATOM     15  C   UNL     1       6.595   7.094  17.590  0.00  0.00    +0.000 C 
BRANCH  14  16
ATOM     16  C   UNL     1       5.380   5.027  18.318  0.00  0.00    +0.000 A 
ATOM     17  C   UNL     1       5.153   3.660  18.575  0.00  0.00    +0.000 A 
ATOM     18  C   UNL     1       3.998   3.213  19.233  0.00  0.00    +0.000 A 
ATOM     19  C   UNL     1       3.031   4.126  19.651  0.00  0.00    +0.000 A 
ATOM     20  C   UNL     1       3.226   5.486  19.402  0.00  0.00    +0.000 A 
ATOM     21  C   UNL     1       4.382   5.929  18.740  0.00  0.00    +0.000 A 
BRANCH  19  22
ATOM     22  C   UNL     1       1.851   3.669  20.327  0.00  0.00    +0.000 C 
ATOM     23  N   UNL     1       0.898   3.303  20.874  0.00  0.00    +0.000 NA
ENDBRANCH  19  22
ENDBRANCH  14  16
ENDBRANCH   1  14
TORSDOF 5
ENDMDL
MODEL 9
REMARK VINA RESULT:      -7.3      2.290      3.533
REMARK  Name = 
REMARK  7 active torsions:
REMARK  status: ('A' for Active; 'I' for Inactive)
REMARK    1  A    between atoms: C_1  and  C_2
REMARK    2  A    between atoms: C_2  and  C_3
REMARK    3  A    between atoms: C_2  and  N_4
REMARK    4  A    between atoms: C_2  and  C_15
REMARK    5  A    between atoms: C_5  and  C_7
REMARK    6  A    between atoms: C_10  and  N_11
REMARK    7  A    between atoms: C_18  and  C_19
REMARK                            x       y       z     vdW  Elec       q    Type
REMARK                         _______ _______ _______ _____ _____    ______ ____
ROOT
ATOM      1  N   UNL     1       4.142   3.607  17.101  0.00  0.00    +0.000 N 
ATOM      2  C   UNL     1       5.428   4.123  17.136  0.00  0.00    +0.000 C 
ATOM      3  O   UNL     1       6.008   4.428  18.171  0.00  0.00    +0.000 OA
ATOM      4  H   UNL     1       3.800   3.293  16.200  0.00  0.00    +0.000 HD
ENDROOT
BRANCH   2   5
ATOM      5  C   UNL     1       6.054   4.279  15.838  0.00  0.00    +0.000 A 
ATOM      6  C   UNL     1       7.158   5.027  15.449  0.00  0.00    +0.000 A 
ATOM      7  C   UNL     1       7.324   4.828  14.055  0.00  0.00    +0.000 A 
ATOM      8  C   UNL     1       6.312   3.975  13.690  0.00  0.00    +0.000 A 
ATOM      9  O   UNL     1       5.532   3.627  14.750  0.00  0.00    +0.000 OA
BRANCH   8  10
ATOM     10  N   UNL     1       5.947   3.413  12.429  0.00  0.00    +0.000 N 
ATOM     11  O   UNL     1       4.742   3.432  12.148  0.00  0.00    +0.000 OA
ATOM     12  O   UNL     1       6.854   2.958  11.720  0.00  0.00    +0.000 OA
ENDBRANCH   8  10
ENDBRANCH   2   5
BRANCH   1  14
ATOM     13  C   UNL     1       2.116   2.462  17.886  0.00  0.00    +0.000 C 
ATOM     14  C   UNL     1       3.321   3.339  18.296  0.00  0.00    +0.000 C 
ATOM     15  C   UNL     1       4.155   2.586  19.361  0.00  0.00    +0.000 C 
BRANCH  14  16
ATOM     16  C   UNL     1       2.857   4.685  18.924  0.00  0.00    +0.000 A 
ATOM     17  C   UNL     1       2.872   5.901  18.212  0.00  0.00    +0.000 A 
ATOM     18  C   UNL     1       2.393   7.093  18.774  0.00  0.00    +0.000 A 
ATOM     19  C   UNL     1       1.886   7.102  20.072  0.00  0.00    +0.000 A 
ATOM     20  C   UNL     1       1.866   5.913  20.804  0.00  0.00    +0.000 A 
ATOM     21  C   UNL     1       2.350   4.722  20.239  0.00  0.00    +0.000 A 
BRANCH  19  22
ATOM     22  C   UNL     1       1.393   8.321  20.646  0.00  0.00    +0.000 C 
ATOM     23  N   UNL     1       0.993   9.303  21.112  0.00  0.00    +0.000 NA
ENDBRANCH  19  22
ENDBRANCH  14  16
ENDBRANCH   1  14
TORSDOF 5
ENDMDL
