MODEL 1
REMARK VINA RESULT:      -9.2      0.000      0.000
REMARK  Name = 
REMARK  6 active torsions:
REMARK  status: ('A' for Active; 'I' for Inactive)
REMARK    1  A    between atoms: C_2  and  C_3
REMARK    2  A    between atoms: C_3  and  N_4
REMARK    3  A    between atoms: C_7  and  N_8
REMARK    4  A    between atoms: N_21  and  C_22
REMARK    5  A    between atoms: C_25  and  O_26
REMARK    6  A    between atoms: O_26  and  C_27
REMARK                            x       y       z     vdW  Elec       q    Type
REMARK                         _______ _______ _______ _____ _____    ______ ____
ROOT
ATOM      1  C   UNL     1      -0.210   9.483  23.015  0.00  0.00    +0.000 C 
ENDROOT
BRANCH   1   2
ATOM      2  N   UNL     1      -0.172  10.899  22.586  0.00  0.00    +0.000 NA
ATOM      3  C   UNL     1       0.047  11.002  21.114  0.00  0.00    +0.000 C 
ATOM      4  C   UNL     1      -0.153  12.436  20.592  0.00  0.00    +0.000 C 
ATOM      5  C   UNL     1      -1.466  13.119  21.047  0.00  0.00    +0.000 C 
ATOM      6  C   UNL     1      -1.585  12.973  22.570  0.00  0.00    +0.000 C 
ATOM      7  C   UNL     1      -1.434  11.535  23.055  0.00  0.00    +0.000 C 
BRANCH   5   8
ATOM      8  N   UNL     1      -2.702  12.823  20.250  0.00  0.00    +0.000 N 
ATOM      9  C   UNL     1      -3.935  13.390  20.528  0.00  0.00    +0.000 C 
ATOM     10  O   UNL     1      -4.067  14.253  21.364  0.00  0.00    +0.000 OA
ATOM     11  O   UNL     1      -5.065  13.000  19.893  0.00  0.00    +0.000 OA
ATOM     12  C   UNL     1      -5.184  12.029  18.935  0.00  0.00    +0.000 C 
ATOM     13  C   UNL     1      -3.866  11.475  18.511  0.00  0.00    +0.000 A 
ATOM     14  C   UNL     1      -3.867  10.555  17.450  0.00  0.00    +0.000 A 
ATOM     15  C   UNL     1      -2.674  10.041  16.964  0.00  0.00    +0.000 A 
ATOM     16  C   UNL     1      -1.471  10.442  17.528  0.00  0.00    +0.000 A 
ATOM     17  C   UNL     1      -1.453  11.343  18.596  0.00  0.00    +0.000 A 
ATOM     18  C   UNL     1      -2.661  11.877  19.137  0.00  0.00    +0.000 A 
ENDBRANCH   5   8
ENDBRANCH   1   2
BRANCH   1  20
ATOM     19  O   UNL     1      -0.791   7.916  21.406  0.00  0.00    +0.000 OA
ATOM     20  C   UNL     1       0.139   8.517  21.920  0.00  0.00    +0.000 C 
ATOM     21  N   UNL     1       1.442   8.271  21.565  0.00  0.00    +0.000 N 
ATOM     22  H   UNL     1       2.176   8.756  22.106  0.00  0.00    +0.000 HD
BRANCH  21  23
ATOM     23  C   UNL     1       1.871   7.353  20.543  0.00  0.00    +0.000 A 
ATOM     24  C   UNL     1       1.951   5.967  20.764  0.00  0.00    +0.000 A 
ATOM     25  C   UNL     1       2.370   5.108  19.772  0.00  0.00    +0.000 A 
ATOM     26  C   UNL     1       2.705   5.572  18.492  0.00  0.00    +0.000 A 
ATOM     27  C   UNL     1       2.650   6.953  18.243  0.00  0.00    +0.000 A 
ATOM     28  C   UNL     1       2.228   7.836  19.260  0.00  0.00    +0.000 A 
BRANCH  26  29
ATOM     29  O   UNL     1       3.076   4.689  17.517  0.00  0.00    +0.000 OA
BRANCH  29  30
ATOM     30  C   UNL     1       4.376   4.556  17.121  0.00  0.00    +0.000 A 
ATOM     31  C   UNL     1       5.420   4.586  18.073  0.00  0.00    +0.000 A 
ATOM     32  C   UNL     1       6.751   4.553  17.672  0.00  0.00    +0.000 A 
ATOM     33  C   UNL     1       7.066   4.469  16.317  0.00  0.00    +0.000 A 
ATOM     34  C   UNL     1       6.044   4.398  15.363  0.00  0.00    +0.000 A 
ATOM     35  C   UNL     1       4.699   4.435  15.763  0.00  0.00    +0.000 A 
ENDBRANCH  29  30
ENDBRANCH  26  29
ENDBRANCH  21  23
ENDBRANCH   1  20
TORSDOF 6
ENDMDL
MODEL 2
REMARK VINA RESULT:      -9.1      1.768      2.696
REMARK  Name = 
REMARK  6 active torsions:
REMARK  status: ('A' for Active; 'I' for Inactive)
REMARK    1  A    between atoms: C_2  and  C_3
REMARK    2  A    between atoms: C_3  and  N_4
REMARK    3  A    between atoms: C_7  and  N_8
REMARK    4  A    between atoms: N_21  and  C_22
REMARK    5  A    between atoms: C_25  and  O_26
REMARK    6  A    between atoms: O_26  and  C_27
REMARK                            x       y       z     vdW  Elec       q    Type
REMARK                         _______ _______ _______ _____ _____    ______ ____
ROOT
ATOM      1  C   UNL     1      -0.412   9.998  23.379  0.00  0.00    +0.000 C 
ENDROOT
BRANCH   1   2
ATOM      2  N   UNL     1      -0.719  11.378  22.940  0.00  0.00    +0.000 NA
ATOM      3  C   UNL     1      -0.310  11.586  21.520  0.00  0.00    +0.000 C 
ATOM      4  C   UNL     1      -0.832  12.917  20.951  0.00  0.00    +0.000 C 
ATOM      5  C   UNL     1      -2.341  13.177  21.179  0.00  0.00    +0.000 C 
ATOM      6  C   UNL     1      -2.652  12.955  22.665  0.00  0.00    +0.000 C 
ATOM      7  C   UNL     1      -2.168  11.607  23.190  0.00  0.00    +0.000 C 
BRANCH   5   8
ATOM      8  N   UNL     1      -3.296  12.562  20.199  0.00  0.00    +0.000 N 
ATOM      9  C   UNL     1      -2.893  12.017  18.991  0.00  0.00    +0.000 C 
ATOM     10  O   UNL     1      -1.725  11.899  18.702  0.00  0.00    +0.000 OA
ATOM     11  O   UNL     1      -3.781  11.601  18.058  0.00  0.00    +0.000 OA
ATOM     12  C   UNL     1      -5.148  11.654  18.133  0.00  0.00    +0.000 C 
ATOM     13  C   UNL     1      -5.633  12.118  19.465  0.00  0.00    +0.000 A 
ATOM     14  C   UNL     1      -7.019  12.098  19.686  0.00  0.00    +0.000 A 
ATOM     15  C   UNL     1      -7.540  12.462  20.919  0.00  0.00    +0.000 A 
ATOM     16  C   UNL     1      -6.683  12.843  21.942  0.00  0.00    +0.000 A 
ATOM     17  C   UNL     1      -5.302  12.885  21.734  0.00  0.00    +0.000 A 
ATOM     18  C   UNL     1      -4.731  12.539  20.472  0.00  0.00    +0.000 A 
ENDBRANCH   5   8
ENDBRANCH   1   2
BRANCH   1  20
ATOM     19  O   UNL     1       1.782   9.523  22.793  0.00  0.00    +0.000 OA
ATOM     20  C   UNL     1       0.612   9.311  22.522  0.00  0.00    +0.000 C 
ATOM     21  N   UNL     1       0.248   8.541  21.444  0.00  0.00    +0.000 N 
ATOM     22  H   UNL     1      -0.760   8.481  21.228  0.00  0.00    +0.000 HD
BRANCH  21  23
ATOM     23  C   UNL     1       1.156   7.861  20.559  0.00  0.00    +0.000 A 
ATOM     24  C   UNL     1       1.572   6.536  20.782  0.00  0.00    +0.000 A 
ATOM     25  C   UNL     1       2.447   5.908  19.923  0.00  0.00    +0.000 A 
ATOM     26  C   UNL     1       2.937   6.547  18.776  0.00  0.00    +0.000 A 
ATOM     27  C   UNL     1       2.552   7.876  18.533  0.00  0.00    +0.000 A 
ATOM     28  C   UNL     1       1.661   8.525  19.414  0.00  0.00    +0.000 A 
BRANCH  26  29
ATOM     29  O   UNL     1       3.770   5.882  17.921  0.00  0.00    +0.000 OA
BRANCH  29  30
ATOM     30  C   UNL     1       5.128   5.992  18.005  0.00  0.00    +0.000 A 
ATOM     31  C   UNL     1       5.834   5.358  19.052  0.00  0.00    +0.000 A 
ATOM     32  C   UNL     1       7.203   5.548  19.205  0.00  0.00    +0.000 A 
ATOM     33  C   UNL     1       7.897   6.356  18.306  0.00  0.00    +0.000 A 
ATOM     34  C   UNL     1       7.220   6.960  17.239  0.00  0.00    +0.000 A 
ATOM     35  C   UNL     1       5.838   6.775  17.084  0.00  0.00    +0.000 A 
ENDBRANCH  29  30
ENDBRANCH  26  29
ENDBRANCH  21  23
ENDBRANCH   1  20
TORSDOF 6
ENDMDL
MODEL 3
REMARK VINA RESULT:      -9.1      2.024      3.257
REMARK  Name = 
REMARK  6 active torsions:
REMARK  status: ('A' for Active; 'I' for Inactive)
REMARK    1  A    between atoms: C_2  and  C_3
REMARK    2  A    between atoms: C_3  and  N_4
REMARK    3  A    between atoms: C_7  and  N_8
REMARK    4  A    between atoms: N_21  and  C_22
REMARK    5  A    between atoms: C_25  and  O_26
REMARK    6  A    between atoms: O_26  and  C_27
REMARK                            x       y       z     vdW  Elec       q    Type
REMARK                         _______ _______ _______ _____ _____    ______ ____
ROOT
ATOM      1  C   UNL     1      -0.509  10.055  23.051  0.00  0.00    +0.000 C 
ENDROOT
BRANCH   1   2
ATOM      2  N   UNL     1      -0.833  11.410  22.551  0.00  0.00    +0.000 NA
ATOM      3  C   UNL     1      -0.950  11.413  21.064  0.00  0.00    +0.000 C 
ATOM      4  C   UNL     1      -1.524  12.736  20.525  0.00  0.00    +0.000 C 
ATOM      5  C   UNL     1      -2.820  13.217  21.224  0.00  0.00    +0.000 C 
ATOM      6  C   UNL     1      -2.590  13.193  22.741  0.00  0.00    +0.000 C 
ATOM      7  C   UNL     1      -2.068  11.854  23.254  0.00  0.00    +0.000 C 
BRANCH   5   8
ATOM      8  N   UNL     1      -4.115  12.635  20.737  0.00  0.00    +0.000 N 
ATOM      9  C   UNL     1      -4.266  12.074  19.480  0.00  0.00    +0.000 C 
ATOM     10  O   UNL     1      -3.327  11.913  18.735  0.00  0.00    +0.000 OA
ATOM     11  O   UNL     1      -5.474  11.689  19.005  0.00  0.00    +0.000 OA
ATOM     12  C   UNL     1      -6.684  11.793  19.638  0.00  0.00    +0.000 C 
ATOM     13  C   UNL     1      -6.559  12.276  21.043  0.00  0.00    +0.000 A 
ATOM     14  C   UNL     1      -7.729  12.307  21.818  0.00  0.00    +0.000 A 
ATOM     15  C   UNL     1      -7.680  12.691  23.150  0.00  0.00    +0.000 A 
ATOM     16  C   UNL     1      -6.465  13.042  23.720  0.00  0.00    +0.000 A 
ATOM     17  C   UNL     1      -5.294  13.033  22.959  0.00  0.00    +0.000 A 
ATOM     18  C   UNL     1      -5.308  12.665  21.580  0.00  0.00    +0.000 A 
ENDBRANCH   5   8
ENDBRANCH   1   2
BRANCH   1  20
ATOM     19  O   UNL     1       1.706   9.602  22.533  0.00  0.00    +0.000 OA
ATOM     20  C   UNL     1       0.547   9.356  22.243  0.00  0.00    +0.000 C 
ATOM     21  N   UNL     1       0.223   8.540  21.188  0.00  0.00    +0.000 N 
ATOM     22  H   UNL     1      -0.778   8.451  20.952  0.00  0.00    +0.000 HD
BRANCH  21  23
ATOM     23  C   UNL     1       1.164   7.845  20.350  0.00  0.00    +0.000 A 
ATOM     24  C   UNL     1       1.697   8.419  19.182  0.00  0.00    +0.000 A 
ATOM     25  C   UNL     1       2.592   7.732  18.392  0.00  0.00    +0.000 A 
ATOM     26  C   UNL     1       3.035   6.446  18.732  0.00  0.00    +0.000 A 
ATOM     27  C   UNL     1       2.512   5.839  19.886  0.00  0.00    +0.000 A 
ATOM     28  C   UNL     1       1.589   6.537  20.693  0.00  0.00    +0.000 A 
BRANCH  26  29
ATOM     29  O   UNL     1       3.957   5.808  17.950  0.00  0.00    +0.000 OA
BRANCH  29  30
ATOM     30  C   UNL     1       5.297   6.027  18.092  0.00  0.00    +0.000 A 
ATOM     31  C   UNL     1       6.021   5.391  19.127  0.00  0.00    +0.000 A 
ATOM     32  C   UNL     1       7.362   5.686  19.342  0.00  0.00    +0.000 A 
ATOM     33  C   UNL     1       8.013   6.602  18.518  0.00  0.00    +0.000 A 
ATOM     34  C   UNL     1       7.323   7.210  17.463  0.00  0.00    +0.000 A 
ATOM     35  C   UNL     1       5.967   6.920  17.245  0.00  0.00    +0.000 A 
ENDBRANCH  29  30
ENDBRANCH  26  29
ENDBRANCH  21  23
ENDBRANCH   1  20
TORSDOF 6
ENDMDL
MODEL 4
REMARK VINA RESULT:      -9.0      7.901     10.520
REMARK  Name = 
REMARK  6 active torsions:
REMARK  status: ('A' for Active; 'I' for Inactive)
REMARK    1  A    between atoms: C_2  and  C_3
REMARK    2  A    between atoms: C_3  and  N_4
REMARK    3  A    between atoms: C_7  and  N_8
REMARK    4  A    between atoms: N_21  and  C_22
REMARK    5  A    between atoms: C_25  and  O_26
REMARK    6  A    between atoms: O_26  and  C_27
REMARK                            x       y       z     vdW  Elec       q    Type
REMARK                         _______ _______ _______ _____ _____    ______ ____
ROOT
ATOM      1  C   UNL     1       8.533  10.163  17.681  0.00  0.00    +0.000 C 
ENDROOT
BRANCH   1   2
ATOM      2  N   UNL     1       9.690  10.473  18.550  0.00  0.00    +0.000 NA
ATOM      3  C   UNL     1      10.608  11.444  17.885  0.00  0.00    +0.000 C 
ATOM      4  C   UNL     1      11.686  11.980  18.844  0.00  0.00    +0.000 C 
ATOM      5  C   UNL     1      11.152  12.501  20.201  0.00  0.00    +0.000 C 
ATOM      6  C   UNL     1      10.238  11.428  20.806  0.00  0.00    +0.000 C 
ATOM      7  C   UNL     1       9.147  10.951  19.852  0.00  0.00    +0.000 C 
BRANCH   5   8
ATOM      8  N   UNL     1      10.639  13.911  20.237  0.00  0.00    +0.000 N 
ATOM      9  C   UNL     1       9.782  14.378  21.220  0.00  0.00    +0.000 C 
ATOM     10  O   UNL     1       9.484  13.706  22.180  0.00  0.00    +0.000 OA
ATOM     11  O   UNL     1       9.215  15.606  21.154  0.00  0.00    +0.000 OA
ATOM     12  C   UNL     1       9.368  16.537  20.162  0.00  0.00    +0.000 C 
ATOM     13  C   UNL     1      10.378  16.132  19.143  0.00  0.00    +0.000 A 
ATOM     14  C   UNL     1      10.696  17.067  18.146  0.00  0.00    +0.000 A 
ATOM     15  C   UNL     1      11.668  16.782  17.198  0.00  0.00    +0.000 A 
ATOM     16  C   UNL     1      12.333  15.565  17.240  0.00  0.00    +0.000 A 
ATOM     17  C   UNL     1      12.017  14.616  18.215  0.00  0.00    +0.000 A 
ATOM     18  C   UNL     1      11.009  14.865  19.194  0.00  0.00    +0.000 A 
ENDBRANCH   5   8
ENDBRANCH   1   2
BRANCH   1  20
ATOM     19  O   UNL     1       8.512   8.109  18.759  0.00  0.00    +0.000 OA
ATOM     20  C   UNL     1       7.975   8.785  17.897  0.00  0.00    +0.000 C 
ATOM     21  N   UNL     1       6.961   8.290  17.116  0.00  0.00    +0.000 N 
ATOM     22  H   UNL     1       6.618   8.893  16.351  0.00  0.00    +0.000 HD
BRANCH  21  23
ATOM     23  C   UNL     1       6.377   6.980  17.238  0.00  0.00    +0.000 A 
ATOM     24  C   UNL     1       5.098   6.776  17.788  0.00  0.00    +0.000 A 
ATOM     25  C   UNL     1       4.563   5.512  17.900  0.00  0.00    +0.000 A 
ATOM     26  C   UNL     1       5.251   4.379  17.444  0.00  0.00    +0.000 A 
ATOM     27  C   UNL     1       6.536   4.548  16.902  0.00  0.00    +0.000 A 
ATOM     28  C   UNL     1       7.091   5.841  16.793  0.00  0.00    +0.000 A 
BRANCH  26  29
ATOM     29  O   UNL     1       4.673   3.143  17.530  0.00  0.00    +0.000 OA
BRANCH  29  30
ATOM     30  C   UNL     1       3.577   2.912  18.310  0.00  0.00    +0.000 A 
ATOM     31  C   UNL     1       2.286   2.868  17.736  0.00  0.00    +0.000 A 
ATOM     32  C   UNL     1       1.155   2.736  18.534  0.00  0.00    +0.000 A 
ATOM     33  C   UNL     1       1.291   2.622  19.917  0.00  0.00    +0.000 A 
ATOM     34  C   UNL     1       2.565   2.623  20.499  0.00  0.00    +0.000 A 
ATOM     35  C   UNL     1       3.708   2.762  19.698  0.00  0.00    +0.000 A 
ENDBRANCH  29  30
ENDBRANCH  26  29
ENDBRANCH  21  23
ENDBRANCH   1  20
TORSDOF 6
ENDMDL
MODEL 5
REMARK VINA RESULT:      -9.0      7.866     10.741
REMARK  Name = 
REMARK  6 active torsions:
REMARK  status: ('A' for Active; 'I' for Inactive)
REMARK    1  A    between atoms: C_2  and  C_3
REMARK    2  A    between atoms: C_3  and  N_4
REMARK    3  A    between atoms: C_7  and  N_8
REMARK    4  A    between atoms: N_21  and  C_22
REMARK    5  A    between atoms: C_25  and  O_26
REMARK    6  A    between atoms: O_26  and  C_27
REMARK                            x       y       z     vdW  Elec       q    Type
REMARK                         _______ _______ _______ _____ _____    ______ ____
ROOT
ATOM      1  C   UNL     1       8.686  10.196  17.835  0.00  0.00    +0.000 C 
ENDROOT
BRANCH   1   2
ATOM      2  N   UNL     1       9.783  10.475  18.789  0.00  0.00    +0.000 NA
ATOM      3  C   UNL     1      10.939  11.116  18.096  0.00  0.00    +0.000 C 
ATOM      4  C   UNL     1      11.993  11.645  19.085  0.00  0.00    +0.000 C 
ATOM      5  C   UNL     1      11.430  12.518  20.234  0.00  0.00    +0.000 C 
ATOM      6  C   UNL     1      10.264  11.764  20.888  0.00  0.00    +0.000 C 
ATOM      7  C   UNL     1       9.209  11.295  19.890  0.00  0.00    +0.000 C 
BRANCH   5   8
ATOM      8  N   UNL     1      11.202  13.971  19.939  0.00  0.00    +0.000 N 
ATOM      9  C   UNL     1      11.680  14.595  18.798  0.00  0.00    +0.000 C 
ATOM     10  O   UNL     1      12.214  13.975  17.907  0.00  0.00    +0.000 OA
ATOM     11  O   UNL     1      11.591  15.934  18.621  0.00  0.00    +0.000 OA
ATOM     12  C   UNL     1      11.061  16.851  19.488  0.00  0.00    +0.000 C 
ATOM     13  C   UNL     1      10.422  16.217  20.676  0.00  0.00    +0.000 A 
ATOM     14  C   UNL     1       9.746  17.063  21.570  0.00  0.00    +0.000 A 
ATOM     15  C   UNL     1       9.078  16.537  22.667  0.00  0.00    +0.000 A 
ATOM     16  C   UNL     1       9.077  15.166  22.879  0.00  0.00    +0.000 A 
ATOM     17  C   UNL     1       9.759  14.312  22.009  0.00  0.00    +0.000 A 
ATOM     18  C   UNL     1      10.474  14.817  20.882  0.00  0.00    +0.000 A 
ENDBRANCH   5   8
ENDBRANCH   1   2
BRANCH   1  20
ATOM     19  O   UNL     1       8.613   8.097  18.820  0.00  0.00    +0.000 OA
ATOM     20  C   UNL     1       8.099   8.822  17.984  0.00  0.00    +0.000 C 
ATOM     21  N   UNL     1       7.082   8.382  17.173  0.00  0.00    +0.000 N 
ATOM     22  H   UNL     1       6.759   9.025  16.433  0.00  0.00    +0.000 HD
BRANCH  21  23
ATOM     23  C   UNL     1       6.470   7.081  17.232  0.00  0.00    +0.000 A 
ATOM     24  C   UNL     1       7.226   5.898  17.315  0.00  0.00    +0.000 A 
ATOM     25  C   UNL     1       6.618   4.663  17.364  0.00  0.00    +0.000 A 
ATOM     26  C   UNL     1       5.223   4.531  17.364  0.00  0.00    +0.000 A 
ATOM     27  C   UNL     1       4.439   5.692  17.268  0.00  0.00    +0.000 A 
ATOM     28  C   UNL     1       5.059   6.959  17.210  0.00  0.00    +0.000 A 
BRANCH  26  29
ATOM     29  O   UNL     1       4.650   3.294  17.457  0.00  0.00    +0.000 OA
BRANCH  29  30
ATOM     30  C   UNL     1       3.611   3.042  18.307  0.00  0.00    +0.000 A 
ATOM     31  C   UNL     1       2.345   2.670  17.799  0.00  0.00    +0.000 A 
ATOM     32  C   UNL     1       1.255   2.512  18.648  0.00  0.00    +0.000 A 
ATOM     33  C   UNL     1       1.412   2.701  20.021  0.00  0.00    +0.000 A 
ATOM     34  C   UNL     1       2.667   3.030  20.545  0.00  0.00    +0.000 A 
ATOM     35  C   UNL     1       3.769   3.196  19.691  0.00  0.00    +0.000 A 
ENDBRANCH  29  30
ENDBRANCH  26  29
ENDBRANCH  21  23
ENDBRANCH   1  20
TORSDOF 6
ENDMDL
MODEL 6
REMARK VINA RESULT:      -8.9      2.884      4.982
REMARK  Name = 
REMARK  6 active torsions:
REMARK  status: ('A' for Active; 'I' for Inactive)
REMARK    1  A    between atoms: C_2  and  C_3
REMARK    2  A    between atoms: C_3  and  N_4
REMARK    3  A    between atoms: C_7  and  N_8
REMARK    4  A    between atoms: N_21  and  C_22
REMARK    5  A    between atoms: C_25  and  O_26
REMARK    6  A    between atoms: O_26  and  C_27
REMARK                            x       y       z     vdW  Elec       q    Type
REMARK                         _______ _______ _______ _____ _____    ______ ____
ROOT
ATOM      1  C   UNL     1      -1.721  12.730  19.364  0.00  0.00    +0.000 C 
ENDROOT
BRANCH   1   2
ATOM      2  N   UNL     1      -1.487  13.363  20.682  0.00  0.00    +0.000 NA
ATOM      3  C   UNL     1      -2.285  14.617  20.817  0.00  0.00    +0.000 C 
ATOM      4  C   UNL     1      -2.264  15.171  22.253  0.00  0.00    +0.000 C 
ATOM      5  C   UNL     1      -2.591  14.136  23.357  0.00  0.00    +0.000 C 
ATOM      6  C   UNL     1      -1.709  12.899  23.138  0.00  0.00    +0.000 C 
ATOM      7  C   UNL     1      -1.788  12.341  21.721  0.00  0.00    +0.000 C 
BRANCH   5   8
ATOM      8  N   UNL     1      -4.042  13.878  23.643  0.00  0.00    +0.000 N 
ATOM      9  C   UNL     1      -4.522  12.648  24.063  0.00  0.00    +0.000 C 
ATOM     10  O   UNL     1      -3.781  11.733  24.338  0.00  0.00    +0.000 OA
ATOM     11  O   UNL     1      -5.847  12.395  24.175  0.00  0.00    +0.000 OA
ATOM     12  C   UNL     1      -6.880  13.249  23.897  0.00  0.00    +0.000 C 
ATOM     13  C   UNL     1      -6.414  14.625  23.560  0.00  0.00    +0.000 A 
ATOM     14  C   UNL     1      -7.399  15.608  23.372  0.00  0.00    +0.000 A 
ATOM     15  C   UNL     1      -7.039  16.923  23.113  0.00  0.00    +0.000 A 
ATOM     16  C   UNL     1      -5.697  17.267  23.043  0.00  0.00    +0.000 A 
ATOM     17  C   UNL     1      -4.705  16.298  23.211  0.00  0.00    +0.000 A 
ATOM     18  C   UNL     1      -5.036  14.932  23.458  0.00  0.00    +0.000 A 
ENDBRANCH   5   8
ENDBRANCH   1   2
BRANCH   1  20
ATOM     19  O   UNL     1      -1.838  10.453  18.941  0.00  0.00    +0.000 OA
ATOM     20  C   UNL     1      -1.093  11.373  19.233  0.00  0.00    +0.000 C 
ATOM     21  N   UNL     1       0.239  11.167  19.498  0.00  0.00    +0.000 N 
ATOM     22  H   UNL     1       0.784  11.982  19.825  0.00  0.00    +0.000 HD
BRANCH  21  23
ATOM     23  C   UNL     1       0.922   9.904  19.416  0.00  0.00    +0.000 A 
ATOM     24  C   UNL     1       1.534   9.456  18.232  0.00  0.00    +0.000 A 
ATOM     25  C   UNL     1       2.178   8.239  18.176  0.00  0.00    +0.000 A 
ATOM     26  C   UNL     1       2.277   7.409  19.300  0.00  0.00    +0.000 A 
ATOM     27  C   UNL     1       1.664   7.821  20.495  0.00  0.00    +0.000 A 
ATOM     28  C   UNL     1       0.998   9.063  20.554  0.00  0.00    +0.000 A 
BRANCH  26  29
ATOM     29  O   UNL     1       2.960   6.227  19.224  0.00  0.00    +0.000 OA
BRANCH  29  30
ATOM     30  C   UNL     1       2.335   5.022  19.376  0.00  0.00    +0.000 A 
ATOM     31  C   UNL     1       2.219   4.434  20.656  0.00  0.00    +0.000 A 
ATOM     32  C   UNL     1       1.677   3.162  20.808  0.00  0.00    +0.000 A 
ATOM     33  C   UNL     1       1.221   2.463  19.692  0.00  0.00    +0.000 A 
ATOM     34  C   UNL     1       1.292   3.048  18.422  0.00  0.00    +0.000 A 
ATOM     35  C   UNL     1       1.843   4.329  18.262  0.00  0.00    +0.000 A 
ENDBRANCH  29  30
ENDBRANCH  26  29
ENDBRANCH  21  23
ENDBRANCH   1  20
TORSDOF 6
ENDMDL
MODEL 7
REMARK VINA RESULT:      -8.9      1.949      2.704
REMARK  Name = 
REMARK  6 active torsions:
REMARK  status: ('A' for Active; 'I' for Inactive)
REMARK    1  A    between atoms: C_2  and  C_3
REMARK    2  A    between atoms: C_3  and  N_4
REMARK    3  A    between atoms: C_7  and  N_8
REMARK    4  A    between atoms: N_21  and  C_22
REMARK    5  A    between atoms: C_25  and  O_26
REMARK    6  A    between atoms: O_26  and  C_27
REMARK                            x       y       z     vdW  Elec       q    Type
REMARK                         _______ _______ _______ _____ _____    ______ ____
ROOT
ATOM      1  C   UNL     1      -0.786  10.547  22.936  0.00  0.00    +0.000 C 
ENDROOT
BRANCH   1   2
ATOM      2  N   UNL     1      -1.143  11.811  22.253  0.00  0.00    +0.000 NA
ATOM      3  C   UNL     1      -1.812  11.539  20.948  0.00  0.00    +0.000 C 
ATOM      4  C   UNL     1      -2.418  12.809  20.325  0.00  0.00    +0.000 C 
ATOM      5  C   UNL     1      -3.301  13.648  21.282  0.00  0.00    +0.000 C 
ATOM      6  C   UNL     1      -2.518  13.885  22.580  0.00  0.00    +0.000 C 
ATOM      7  C   UNL     1      -1.972  12.604  23.202  0.00  0.00    +0.000 C 
BRANCH   5   8
ATOM      8  N   UNL     1      -4.733  13.226  21.434  0.00  0.00    +0.000 N 
ATOM      9  C   UNL     1      -5.497  13.535  22.548  0.00  0.00    +0.000 C 
ATOM     10  O   UNL     1      -5.089  14.267  23.420  0.00  0.00    +0.000 OA
ATOM     11  O   UNL     1      -6.736  13.024  22.733  0.00  0.00    +0.000 OA
ATOM     12  C   UNL     1      -7.406  12.156  21.912  0.00  0.00    +0.000 C 
ATOM     13  C   UNL     1      -6.676  11.890  20.639  0.00  0.00    +0.000 A 
ATOM     14  C   UNL     1      -7.330  11.104  19.676  0.00  0.00    +0.000 A 
ATOM     15  C   UNL     1      -6.737  10.863  18.445  0.00  0.00    +0.000 A 
ATOM     16  C   UNL     1      -5.492  11.405  18.163  0.00  0.00    +0.000 A 
ATOM     17  C   UNL     1      -4.820  12.175  19.116  0.00  0.00    +0.000 A 
ATOM     18  C   UNL     1      -5.388  12.428  20.401  0.00  0.00    +0.000 A 
ENDBRANCH   5   8
ENDBRANCH   1   2
BRANCH   1  20
ATOM     19  O   UNL     1      -0.830   8.409  22.037  0.00  0.00    +0.000 OA
ATOM     20  C   UNL     1      -0.267   9.490  22.003  0.00  0.00    +0.000 C 
ATOM     21  N   UNL     1       0.829   9.710  21.206  0.00  0.00    +0.000 N 
ATOM     22  H   UNL     1       1.303  10.623  21.299  0.00  0.00    +0.000 HD
BRANCH  21  23
ATOM     23  C   UNL     1       1.406   8.754  20.298  0.00  0.00    +0.000 A 
ATOM     24  C   UNL     1       1.826   7.479  20.716  0.00  0.00    +0.000 A 
ATOM     25  C   UNL     1       2.381   6.583  19.829  0.00  0.00    +0.000 A 
ATOM     26  C   UNL     1       2.525   6.889  18.469  0.00  0.00    +0.000 A 
ATOM     27  C   UNL     1       2.128   8.161  18.022  0.00  0.00    +0.000 A 
ATOM     28  C   UNL     1       1.565   9.083  18.929  0.00  0.00    +0.000 A 
BRANCH  26  29
ATOM     29  O   UNL     1       3.040   5.963  17.606  0.00  0.00    +0.000 OA
BRANCH  29  30
ATOM     30  C   UNL     1       3.049   4.630  17.901  0.00  0.00    +0.000 A 
ATOM     31  C   UNL     1       4.240   4.000  18.329  0.00  0.00    +0.000 A 
ATOM     32  C   UNL     1       4.285   2.625  18.532  0.00  0.00    +0.000 A 
ATOM     33  C   UNL     1       3.140   1.856  18.335  0.00  0.00    +0.000 A 
ATOM     34  C   UNL     1       1.941   2.469  17.950  0.00  0.00    +0.000 A 
ATOM     35  C   UNL     1       1.892   3.855  17.738  0.00  0.00    +0.000 A 
ENDBRANCH  29  30
ENDBRANCH  26  29
ENDBRANCH  21  23
ENDBRANCH   1  20
TORSDOF 6
ENDMDL
MODEL 8
REMARK VINA RESULT:      -8.8      2.769      4.831
REMARK  Name = 
REMARK  6 active torsions:
REMARK  status: ('A' for Active; 'I' for Inactive)
REMARK    1  A    between atoms: C_2  and  C_3
REMARK    2  A    between atoms: C_3  and  N_4
REMARK    3  A    between atoms: C_7  and  N_8
REMARK    4  A    between atoms: N_21  and  C_22
REMARK    5  A    between atoms: C_25  and  O_26
REMARK    6  A    between atoms: O_26  and  C_27
REMARK                            x       y       z     vdW  Elec       q    Type
REMARK                         _______ _______ _______ _____ _____    ______ ____
ROOT
ATOM      1  C   UNL     1      -1.489  12.452  19.189  0.00  0.00    +0.000 C 
ENDROOT
BRANCH   1   2
ATOM      2  N   UNL     1      -1.184  13.093  20.488  0.00  0.00    +0.000 NA
ATOM      3  C   UNL     1      -1.918  14.384  20.628  0.00  0.00    +0.000 C 
ATOM      4  C   UNL     1      -1.825  14.957  22.053  0.00  0.00    +0.000 C 
ATOM      5  C   UNL     1      -2.163  13.955  23.184  0.00  0.00    +0.000 C 
ATOM      6  C   UNL     1      -1.347  12.675  22.958  0.00  0.00    +0.000 C 
ATOM      7  C   UNL     1      -1.498  12.100  21.552  0.00  0.00    +0.000 C 
BRANCH   5   8
ATOM      8  N   UNL     1      -3.614  13.769  23.521  0.00  0.00    +0.000 N 
ATOM      9  C   UNL     1      -4.149  12.554  23.916  0.00  0.00    +0.000 C 
ATOM     10  O   UNL     1      -3.452  11.588  24.127  0.00  0.00    +0.000 OA
ATOM     11  O   UNL     1      -5.480  12.372  24.073  0.00  0.00    +0.000 OA
ATOM     12  C   UNL     1      -6.472  13.294  23.868  0.00  0.00    +0.000 C 
ATOM     13  C   UNL     1      -5.940  14.653  23.562  0.00  0.00    +0.000 A 
ATOM     14  C   UNL     1      -6.872  15.697  23.449  0.00  0.00    +0.000 A 
ATOM     15  C   UNL     1      -6.447  16.998  23.222  0.00  0.00    +0.000 A 
ATOM     16  C   UNL     1      -5.090  17.268  23.110  0.00  0.00    +0.000 A 
ATOM     17  C   UNL     1      -4.151  16.238  23.202  0.00  0.00    +0.000 A 
ATOM     18  C   UNL     1      -4.551  14.885  23.414  0.00  0.00    +0.000 A 
ENDBRANCH   5   8
ENDBRANCH   1   2
BRANCH   1  20
ATOM     19  O   UNL     1      -1.571  10.178  18.737  0.00  0.00    +0.000 OA
ATOM     20  C   UNL     1      -0.836  11.111  19.015  0.00  0.00    +0.000 C 
ATOM     21  N   UNL     1       0.509  10.933  19.229  0.00  0.00    +0.000 N 
ATOM     22  H   UNL     1       1.048  11.755  19.547  0.00  0.00    +0.000 HD
BRANCH  21  23
ATOM     23  C   UNL     1       1.217   9.686  19.104  0.00  0.00    +0.000 A 
ATOM     24  C   UNL     1       1.282   8.751  20.152  0.00  0.00    +0.000 A 
ATOM     25  C   UNL     1       1.971   7.566  20.010  0.00  0.00    +0.000 A 
ATOM     26  C   UNL     1       2.610   7.227  18.810  0.00  0.00    +0.000 A 
ATOM     27  C   UNL     1       2.575   8.146  17.748  0.00  0.00    +0.000 A 
ATOM     28  C   UNL     1       1.877   9.363  17.892  0.00  0.00    +0.000 A 
BRANCH  26  29
ATOM     29  O   UNL     1       3.249   6.025  18.687  0.00  0.00    +0.000 OA
BRANCH  29  30
ATOM     30  C   UNL     1       2.630   4.845  18.990  0.00  0.00    +0.000 A 
ATOM     31  C   UNL     1       1.686   4.284  18.100  0.00  0.00    +0.000 A 
ATOM     32  C   UNL     1       0.977   3.138  18.444  0.00  0.00    +0.000 A 
ATOM     33  C   UNL     1       1.211   2.520  19.671  0.00  0.00    +0.000 A 
ATOM     34  C   UNL     1       2.171   3.039  20.547  0.00  0.00    +0.000 A 
ATOM     35  C   UNL     1       2.886   4.198  20.207  0.00  0.00    +0.000 A 
ENDBRANCH  29  30
ENDBRANCH  26  29
ENDBRANCH  21  23
ENDBRANCH   1  20
TORSDOF 6
ENDMDL
MODEL 9
REMARK VINA RESULT:      -8.8      1.652      2.182
REMARK  Name = 
REMARK  6 active torsions:
REMARK  status: ('A' for Active; 'I' for Inactive)
REMARK    1  A    between atoms: C_2  and  C_3
REMARK    2  A    between atoms: C_3  and  N_4
REMARK    3  A    between atoms: C_7  and  N_8
REMARK    4  A    between atoms: N_21  and  C_22
REMARK    5  A    between atoms: C_25  and  O_26
REMARK    6  A    between atoms: O_26  and  C_27
REMARK                            x       y       z     vdW  Elec       q    Type
REMARK                         _______ _______ _______ _____ _____    ______ ____
ROOT
ATOM      1  C   UNL     1      -0.595  10.350  23.241  0.00  0.00    +0.000 C 
ENDROOT
BRANCH   1   2
ATOM      2  N   UNL     1      -0.870  11.663  22.617  0.00  0.00    +0.000 NA
ATOM      3  C   UNL     1      -0.622  11.614  21.146  0.00  0.00    +0.000 C 
ATOM      4  C   UNL     1      -1.129  12.876  20.426  0.00  0.00    +0.000 C 
ATOM      5  C   UNL     1      -2.582  13.285  20.770  0.00  0.00    +0.000 C 
ATOM      6  C   UNL     1      -2.726  13.323  22.297  0.00  0.00    +0.000 C 
ATOM      7  C   UNL     1      -2.263  12.040  22.982  0.00  0.00    +0.000 C 
BRANCH   5   8
ATOM      8  N   UNL     1      -3.682  12.600  20.014  0.00  0.00    +0.000 N 
ATOM      9  C   UNL     1      -5.000  12.589  20.441  0.00  0.00    +0.000 C 
ATOM     10  O   UNL     1      -5.367  13.234  21.395  0.00  0.00    +0.000 OA
ATOM     11  O   UNL     1      -5.948  11.845  19.825  0.00  0.00    +0.000 OA
ATOM     12  C   UNL     1      -5.780  11.013  18.750  0.00  0.00    +0.000 C 
ATOM     13  C   UNL     1      -4.406  11.085  18.176  0.00  0.00    +0.000 A 
ATOM     14  C   UNL     1      -4.163  10.359  16.999  0.00  0.00    +0.000 A 
ATOM     15  C   UNL     1      -2.925  10.423  16.377  0.00  0.00    +0.000 A 
ATOM     16  C   UNL     1      -1.922  11.214  16.920  0.00  0.00    +0.000 A 
ATOM     17  C   UNL     1      -2.142  11.930  18.099  0.00  0.00    +0.000 A 
ATOM     18  C   UNL     1      -3.395  11.872  18.780  0.00  0.00    +0.000 A 
ENDBRANCH   5   8
ENDBRANCH   1   2
BRANCH   1  20
ATOM     19  O   UNL     1       1.575   9.611  22.884  0.00  0.00    +0.000 OA
ATOM     20  C   UNL     1       0.422   9.534  22.495  0.00  0.00    +0.000 C 
ATOM     21  N   UNL     1       0.080   8.796  21.389  0.00  0.00    +0.000 N 
ATOM     22  H   UNL     1      -0.901   8.851  21.071  0.00  0.00    +0.000 HD
BRANCH  21  23
ATOM     23  C   UNL     1       0.986   8.000  20.603  0.00  0.00    +0.000 A 
ATOM     24  C   UNL     1       1.594   8.489  19.432  0.00  0.00    +0.000 A 
ATOM     25  C   UNL     1       2.453   7.706  18.694  0.00  0.00    +0.000 A 
ATOM     26  C   UNL     1       2.784   6.403  19.089  0.00  0.00    +0.000 A 
ATOM     27  C   UNL     1       2.183   5.880  20.246  0.00  0.00    +0.000 A 
ATOM     28  C   UNL     1       1.296   6.677  21.001  0.00  0.00    +0.000 A 
BRANCH  26  29
ATOM     29  O   UNL     1       3.673   5.668  18.357  0.00  0.00    +0.000 OA
BRANCH  29  30
ATOM     30  C   UNL     1       3.651   4.302  18.356  0.00  0.00    +0.000 A 
ATOM     31  C   UNL     1       2.809   3.601  17.463  0.00  0.00    +0.000 A 
ATOM     32  C   UNL     1       2.703   2.216  17.524  0.00  0.00    +0.000 A 
ATOM     33  C   UNL     1       3.451   1.503  18.459  0.00  0.00    +0.000 A 
ATOM     34  C   UNL     1       4.320   2.178  19.324  0.00  0.00    +0.000 A 
ATOM     35  C   UNL     1       4.426   3.576  19.270  0.00  0.00    +0.000 A 
ENDBRANCH  29  30
ENDBRANCH  26  29
ENDBRANCH  21  23
ENDBRANCH   1  20
TORSDOF 6
ENDMDL
