MODEL 1
REMARK VINA RESULT:      -6.8      0.000      0.000
REMARK  Name = 
REMARK  6 active torsions:
REMARK  status: ('A' for Active; 'I' for Inactive)
REMARK    1  A    between atoms: C_1  and  C_2
REMARK    2  A    between atoms: C_2  and  C_3
REMARK    3  A    between atoms: C_5  and  C_6
REMARK    4  A    between atoms: C_14  and  C_15
REMARK    5  A    between atoms: N_24  and  C_25
REMARK    6  A    between atoms: C_25  and  C_26
REMARK                            x       y       z     vdW  Elec       q    Type
REMARK                         _______ _______ _______ _____ _____    ______ ____
ROOT
ATOM      1  C   UNL     1       1.599  17.014  20.566  0.00  0.00    +0.000 C 
ATOM      2  O   UNL     1       0.824  17.967  20.475  0.00  0.00    +0.000 OA
ATOM      3  N   UNL     1       1.280  15.890  21.337  0.00  0.00    +0.000 N 
ATOM      4  C   UNL     1       0.036  15.873  22.091  0.00  0.00    +0.000 C 
ATOM      5  C   UNL     1      -1.029  15.066  21.336  0.00  0.00    +0.000 C 
ATOM      6  C   UNL     1      -0.480  13.762  20.782  0.00  0.00    +0.000 A 
ATOM      7  C   UNL     1       0.856  13.562  20.747  0.00  0.00    +0.000 A 
ATOM      8  C   UNL     1       1.392  12.305  20.274  0.00  0.00    +0.000 A 
ATOM      9  C   UNL     1       0.593  11.317  19.854  0.00  0.00    +0.000 A 
ATOM     10  C   UNL     1      -0.885  11.539  19.814  0.00  0.00    +0.000 A 
ATOM     11  O   UNL     1      -1.618  10.656  19.367  0.00  0.00    +0.000 OA
ATOM     12  N   UNL     1      -1.353  12.768  20.299  0.00  0.00    +0.000 N 
ATOM     13  C   UNL     1       1.895  14.580  21.165  0.00  0.00    +0.000 C 
ENDROOT
BRANCH   9  14
ATOM     14  C   UNL     1       1.174  10.022  19.473  0.00  0.00    +0.000 A 
ATOM     15  C   UNL     1       1.613   9.837  18.154  0.00  0.00    +0.000 A 
ATOM     16  C   UNL     1       2.176   8.622  17.761  0.00  0.00    +0.000 A 
ATOM     17  C   UNL     1       2.308   7.584  18.678  0.00  0.00    +0.000 A 
ATOM     18  C   UNL     1       1.878   7.753  19.994  0.00  0.00    +0.000 A 
ATOM     19  C   UNL     1       1.311   8.969  20.392  0.00  0.00    +0.000 A 
ATOM     20 CL   UNL     1       0.807   9.121  22.041  0.00  0.00    +0.000 Cl
ENDBRANCH   9  14
BRANCH   1  23
ATOM     21  C   UNL     1       5.015  17.056  19.298  0.00  0.00    +0.000 A 
ATOM     22  C   UNL     1       4.171  17.008  20.379  0.00  0.00    +0.000 A 
ATOM     23  C   UNL     1       2.866  17.026  19.821  0.00  0.00    +0.000 A 
ATOM     24  N   UNL     1       2.931  17.021  18.480  0.00  0.00    +0.000 NA
ATOM     25  O   UNL     1       4.274  17.064  18.158  0.00  0.00    +0.000 OA
BRANCH  21  27
ATOM     26  C   UNL     1       7.206  16.464  20.322  0.00  0.00    +0.000 C 
ATOM     27  C   UNL     1       6.486  17.077  19.132  0.00  0.00    +0.000 C 
ENDBRANCH  21  27
ENDBRANCH   1  23
BRANCH  12  28
ATOM     28  C   UNL     1      -2.807  12.967  20.247  0.00  0.00    +0.000 C 
BRANCH  28  29
ATOM     29  C   UNL     1      -3.493  12.783  21.582  0.00  0.00    +0.000 A 
ATOM     30  C   UNL     1      -4.843  13.114  21.737  0.00  0.00    +0.000 A 
ATOM     31  C   UNL     1      -5.424  12.982  22.989  0.00  0.00    +0.000 A 
ATOM     32  N   UNL     1      -4.770  12.523  24.077  0.00  0.00    +0.000 NA
ATOM     33  C   UNL     1      -3.483  12.161  23.898  0.00  0.00    +0.000 A 
ATOM     34  C   UNL     1      -2.816  12.259  22.688  0.00  0.00    +0.000 A 
ENDBRANCH  28  29
ENDBRANCH  12  28
TORSDOF 5
ENDMDL
MODEL 2
REMARK VINA RESULT:      -6.7      2.142      2.614
REMARK  Name = 
REMARK  6 active torsions:
REMARK  status: ('A' for Active; 'I' for Inactive)
REMARK    1  A    between atoms: C_1  and  C_2
REMARK    2  A    between atoms: C_2  and  C_3
REMARK    3  A    between atoms: C_5  and  C_6
REMARK    4  A    between atoms: C_14  and  C_15
REMARK    5  A    between atoms: N_24  and  C_25
REMARK    6  A    between atoms: C_25  and  C_26
REMARK                            x       y       z     vdW  Elec       q    Type
REMARK                         _______ _______ _______ _____ _____    ______ ____
ROOT
ATOM      1  C   UNL     1       2.394  15.813  18.934  0.00  0.00    +0.000 C 
ATOM      2  O   UNL     1       1.895  16.735  18.285  0.00  0.00    +0.000 OA
ATOM      3  N   UNL     1       1.597  14.941  19.684  0.00  0.00    +0.000 N 
ATOM      4  C   UNL     1       0.160  15.163  19.747  0.00  0.00    +0.000 C 
ATOM      5  C   UNL     1      -0.563  14.223  18.774  0.00  0.00    +0.000 C 
ATOM      6  C   UNL     1      -0.028  12.802  18.839  0.00  0.00    +0.000 A 
ATOM      7  C   UNL     1       1.135  12.555  19.482  0.00  0.00    +0.000 A 
ATOM      8  C   UNL     1       1.628  11.201  19.600  0.00  0.00    +0.000 A 
ATOM      9  C   UNL     1       0.962  10.165  19.077  0.00  0.00    +0.000 A 
ATOM     10  C   UNL     1      -0.289  10.418  18.299  0.00  0.00    +0.000 A 
ATOM     11  O   UNL     1      -0.869   9.474  17.761  0.00  0.00    +0.000 OA
ATOM     12  N   UNL     1      -0.732  11.746  18.229  0.00  0.00    +0.000 N 
ATOM     13  C   UNL     1       2.018  13.612  20.109  0.00  0.00    +0.000 C 
ENDROOT
BRANCH   9  14
ATOM     14  C   UNL     1       1.448   8.797  19.304  0.00  0.00    +0.000 A 
ATOM     15  C   UNL     1       2.204   8.171  18.302  0.00  0.00    +0.000 A 
ATOM     16  C   UNL     1       2.688   6.875  18.488  0.00  0.00    +0.000 A 
ATOM     17  C   UNL     1       2.423   6.194  19.672  0.00  0.00    +0.000 A 
ATOM     18  C   UNL     1       1.673   6.803  20.678  0.00  0.00    +0.000 A 
ATOM     19  C   UNL     1       1.186   8.102  20.496  0.00  0.00    +0.000 A 
ATOM     20 CL   UNL     1       0.272   8.808  21.785  0.00  0.00    +0.000 Cl
ENDBRANCH   9  14
BRANCH   1  23
ATOM     21  C   UNL     1       5.874  14.973  18.262  0.00  0.00    +0.000 A 
ATOM     22  C   UNL     1       4.571  14.980  17.833  0.00  0.00    +0.000 A 
ATOM     23  C   UNL     1       3.846  15.588  18.890  0.00  0.00    +0.000 A 
ATOM     24  N   UNL     1       4.680  15.979  19.866  0.00  0.00    +0.000 NA
ATOM     25  O   UNL     1       5.944  15.571  19.481  0.00  0.00    +0.000 OA
BRANCH  21  27
ATOM     26  C   UNL     1       8.300  14.595  18.679  0.00  0.00    +0.000 C 
ATOM     27  C   UNL     1       7.152  14.493  17.687  0.00  0.00    +0.000 C 
ENDBRANCH  21  27
ENDBRANCH   1  23
BRANCH  12  28
ATOM     28  C   UNL     1      -1.962  11.973  17.457  0.00  0.00    +0.000 C 
BRANCH  28  29
ATOM     29  C   UNL     1      -3.226  11.827  18.272  0.00  0.00    +0.000 A 
ATOM     30  C   UNL     1      -4.290  11.053  17.797  0.00  0.00    +0.000 A 
ATOM     31  C   UNL     1      -5.454  10.985  18.548  0.00  0.00    +0.000 A 
ATOM     32  N   UNL     1      -5.621  11.605  19.735  0.00  0.00    +0.000 NA
ATOM     33  C   UNL     1      -4.567  12.306  20.202  0.00  0.00    +0.000 A 
ATOM     34  C   UNL     1      -3.365  12.434  19.525  0.00  0.00    +0.000 A 
ENDBRANCH  28  29
ENDBRANCH  12  28
TORSDOF 5
ENDMDL
MODEL 3
REMARK VINA RESULT:      -6.7      6.186      9.710
REMARK  Name = 
REMARK  6 active torsions:
REMARK  status: ('A' for Active; 'I' for Inactive)
REMARK    1  A    between atoms: C_1  and  C_2
REMARK    2  A    between atoms: C_2  and  C_3
REMARK    3  A    between atoms: C_5  and  C_6
REMARK    4  A    between atoms: C_14  and  C_15
REMARK    5  A    between atoms: N_24  and  C_25
REMARK    6  A    between atoms: C_25  and  C_26
REMARK                            x       y       z     vdW  Elec       q    Type
REMARK                         _______ _______ _______ _____ _____    ______ ____
ROOT
ATOM      1  C   UNL     1       6.930   6.251  17.047  0.00  0.00    +0.000 C 
ATOM      2  O   UNL     1       7.471   5.164  16.834  0.00  0.00    +0.000 OA
ATOM      3  N   UNL     1       5.590   6.471  16.711  0.00  0.00    +0.000 N 
ATOM      4  C   UNL     1       4.838   5.418  16.045  0.00  0.00    +0.000 C 
ATOM      5  C   UNL     1       3.965   4.669  17.060  0.00  0.00    +0.000 C 
ATOM      6  C   UNL     1       3.241   5.612  18.006  0.00  0.00    +0.000 A 
ATOM      7  C   UNL     1       3.610   6.910  18.066  0.00  0.00    +0.000 A 
ATOM      8  C   UNL     1       2.894   7.832  18.919  0.00  0.00    +0.000 A 
ATOM      9  C   UNL     1       1.862   7.432  19.673  0.00  0.00    +0.000 A 
ATOM     10  C   UNL     1       1.480   5.987  19.680  0.00  0.00    +0.000 A 
ATOM     11  O   UNL     1       0.574   5.604  20.421  0.00  0.00    +0.000 OA
ATOM     12  N   UNL     1       2.195   5.140  18.822  0.00  0.00    +0.000 N 
ATOM     13  C   UNL     1       4.763   7.519  17.297  0.00  0.00    +0.000 C 
ENDROOT
BRANCH   9  14
ATOM     14  C   UNL     1       1.102   8.420  20.451  0.00  0.00    +0.000 A 
ATOM     15  C   UNL     1       1.128   8.346  21.851  0.00  0.00    +0.000 A 
ATOM     16  C   UNL     1       0.423   9.273  22.620  0.00  0.00    +0.000 A 
ATOM     17  C   UNL     1      -0.311  10.280  22.002  0.00  0.00    +0.000 A 
ATOM     18  C   UNL     1      -0.346  10.367  20.610  0.00  0.00    +0.000 A 
ATOM     19  C   UNL     1       0.358   9.440  19.835  0.00  0.00    +0.000 A 
ATOM     20 CL   UNL     1       0.286   9.609  18.114  0.00  0.00    +0.000 Cl
ENDBRANCH   9  14
BRANCH   1  23
ATOM     21  C   UNL     1       8.588   9.285  18.195  0.00  0.00    +0.000 A 
ATOM     22  C   UNL     1       7.756   8.682  17.286  0.00  0.00    +0.000 A 
ATOM     23  C   UNL     1       7.683   7.328  17.706  0.00  0.00    +0.000 A 
ATOM     24  N   UNL     1       8.383   7.150  18.838  0.00  0.00    +0.000 NA
ATOM     25  O   UNL     1       8.966   8.370  19.126  0.00  0.00    +0.000 OA
BRANCH  21  27
ATOM     26  C   UNL     1       9.689  10.882  19.756  0.00  0.00    +0.000 C 
ATOM     27  C   UNL     1       9.112  10.660  18.368  0.00  0.00    +0.000 C 
ENDBRANCH  21  27
ENDBRANCH   1  23
BRANCH  12  28
ATOM     28  C   UNL     1       1.805   3.723  18.848  0.00  0.00    +0.000 C 
BRANCH  28  29
ATOM     29  C   UNL     1       2.928   2.792  19.245  0.00  0.00    +0.000 A 
ATOM     30  C   UNL     1       3.286   1.721  18.419  0.00  0.00    +0.000 A 
ATOM     31  C   UNL     1       4.285   0.857  18.841  0.00  0.00    +0.000 A 
ATOM     32  N   UNL     1       4.961   0.998  20.000  0.00  0.00    +0.000 NA
ATOM     33  C   UNL     1       4.638   2.065  20.761  0.00  0.00    +0.000 A 
ATOM     34  C   UNL     1       3.654   2.980  20.426  0.00  0.00    +0.000 A 
ENDBRANCH  28  29
ENDBRANCH  12  28
TORSDOF 5
ENDMDL
MODEL 4
REMARK VINA RESULT:      -6.6      1.213      1.331
REMARK  Name = 
REMARK  6 active torsions:
REMARK  status: ('A' for Active; 'I' for Inactive)
REMARK    1  A    between atoms: C_1  and  C_2
REMARK    2  A    between atoms: C_2  and  C_3
REMARK    3  A    between atoms: C_5  and  C_6
REMARK    4  A    between atoms: C_14  and  C_15
REMARK    5  A    between atoms: N_24  and  C_25
REMARK    6  A    between atoms: C_25  and  C_26
REMARK                            x       y       z     vdW  Elec       q    Type
REMARK                         _______ _______ _______ _____ _____    ______ ____
ROOT
ATOM      1  C   UNL     1       2.576  16.229  19.520  0.00  0.00    +0.000 C 
ATOM      2  O   UNL     1       1.934  17.229  19.193  0.00  0.00    +0.000 OA
ATOM      3  N   UNL     1       2.061  15.303  20.434  0.00  0.00    +0.000 N 
ATOM      4  C   UNL     1       0.770  15.557  21.056  0.00  0.00    +0.000 C 
ATOM      5  C   UNL     1      -0.325  14.748  20.349  0.00  0.00    +0.000 C 
ATOM      6  C   UNL     1       0.099  13.314  20.078  0.00  0.00    +0.000 A 
ATOM      7  C   UNL     1       1.398  12.967  20.208  0.00  0.00    +0.000 A 
ATOM      8  C   UNL     1       1.809  11.595  20.008  0.00  0.00    +0.000 A 
ATOM      9  C   UNL     1       0.928  10.640  19.686  0.00  0.00    +0.000 A 
ATOM     10  C   UNL     1      -0.503  11.011  19.466  0.00  0.00    +0.000 A 
ATOM     11  O   UNL     1      -1.304  10.147  19.105  0.00  0.00    +0.000 OA
ATOM     12  N   UNL     1      -0.851  12.351  19.688  0.00  0.00    +0.000 N 
ATOM     13  C   UNL     1       2.521  13.925  20.547  0.00  0.00    +0.000 C 
ENDROOT
BRANCH   9  14
ATOM     14  C   UNL     1       1.371   9.243  19.588  0.00  0.00    +0.000 A 
ATOM     15  C   UNL     1       1.887   8.779  18.368  0.00  0.00    +0.000 A 
ATOM     16  C   UNL     1       2.325   7.460  18.243  0.00  0.00    +0.000 A 
ATOM     17  C   UNL     1       2.252   6.593  19.329  0.00  0.00    +0.000 A 
ATOM     18  C   UNL     1       1.743   7.040  20.549  0.00  0.00    +0.000 A 
ATOM     19  C   UNL     1       1.302   8.361  20.679  0.00  0.00    +0.000 A 
ATOM     20 CL   UNL     1       0.692   8.859  22.220  0.00  0.00    +0.000 Cl
ENDBRANCH   9  14
BRANCH   1  23
ATOM     21  C   UNL     1       6.062  15.909  18.510  0.00  0.00    +0.000 A 
ATOM     22  C   UNL     1       5.150  16.340  19.440  0.00  0.00    +0.000 A 
ATOM     23  C   UNL     1       3.888  15.970  18.909  0.00  0.00    +0.000 A 
ATOM     24  N   UNL     1       4.043  15.299  17.757  0.00  0.00    +0.000 NA
ATOM     25  O   UNL     1       5.401  15.284  17.499  0.00  0.00    +0.000 OA
BRANCH  21  27
ATOM     26  C   UNL     1       8.159  14.579  18.329  0.00  0.00    +0.000 C 
ATOM     27  C   UNL     1       7.538  15.965  18.401  0.00  0.00    +0.000 C 
ENDBRANCH  21  27
ENDBRANCH   1  23
BRANCH  12  28
ATOM     28  C   UNL     1      -2.262  12.694  19.463  0.00  0.00    +0.000 C 
BRANCH  28  29
ATOM     29  C   UNL     1      -3.110  12.626  20.712  0.00  0.00    +0.000 A 
ATOM     30  C   UNL     1      -4.498  12.782  20.636  0.00  0.00    +0.000 A 
ATOM     31  C   UNL     1      -5.238  12.767  21.809  0.00  0.00    +0.000 A 
ATOM     32  N   UNL     1      -4.702  12.582  23.033  0.00  0.00    +0.000 NA
ATOM     33  C   UNL     1      -3.368  12.383  23.084  0.00  0.00    +0.000 A 
ATOM     34  C   UNL     1      -2.546  12.384  21.969  0.00  0.00    +0.000 A 
ENDBRANCH  28  29
ENDBRANCH  12  28
TORSDOF 5
ENDMDL
MODEL 5
REMARK VINA RESULT:      -6.6      1.085      1.379
REMARK  Name = 
REMARK  6 active torsions:
REMARK  status: ('A' for Active; 'I' for Inactive)
REMARK    1  A    between atoms: C_1  and  C_2
REMARK    2  A    between atoms: C_2  and  C_3
REMARK    3  A    between atoms: C_5  and  C_6
REMARK    4  A    between atoms: C_14  and  C_15
REMARK    5  A    between atoms: N_24  and  C_25
REMARK    6  A    between atoms: C_25  and  C_26
REMARK                            x       y       z     vdW  Elec       q    Type
REMARK                         _______ _______ _______ _____ _____    ______ ____
ROOT
ATOM      1  C   UNL     1       2.311  16.513  20.052  0.00  0.00    +0.000 C 
ATOM      2  O   UNL     1       1.631  17.514  19.817  0.00  0.00    +0.000 OA
ATOM      3  N   UNL     1       1.846  15.504  20.901  0.00  0.00    +0.000 N 
ATOM      4  C   UNL     1       0.561  15.665  21.565  0.00  0.00    +0.000 C 
ATOM      5  C   UNL     1      -0.523  14.879  20.818  0.00  0.00    +0.000 C 
ATOM      6  C   UNL     1      -0.061  13.485  20.428  0.00  0.00    +0.000 A 
ATOM      7  C   UNL     1       1.252  13.171  20.505  0.00  0.00    +0.000 A 
ATOM      8  C   UNL     1       1.700  11.833  20.191  0.00  0.00    +0.000 A 
ATOM      9  C   UNL     1       0.843  10.878  19.811  0.00  0.00    +0.000 A 
ATOM     10  C   UNL     1      -0.604  11.217  19.648  0.00  0.00    +0.000 A 
ATOM     11  O   UNL     1      -1.384  10.359  19.236  0.00  0.00    +0.000 OA
ATOM     12  N   UNL     1      -0.988  12.524  19.982  0.00  0.00    +0.000 N 
ATOM     13  C   UNL     1       2.351  14.136  20.896  0.00  0.00    +0.000 C 
ENDROOT
BRANCH   9  14
ATOM     14  C   UNL     1       1.328   9.508  19.596  0.00  0.00    +0.000 A 
ATOM     15  C   UNL     1       1.799   9.147  18.325  0.00  0.00    +0.000 A 
ATOM     16  C   UNL     1       2.273   7.856  18.088  0.00  0.00    +0.000 A 
ATOM     17  C   UNL     1       2.283   6.916  19.113  0.00  0.00    +0.000 A 
ATOM     18  C   UNL     1       1.818   7.260  20.383  0.00  0.00    +0.000 A 
ATOM     19  C   UNL     1       1.341   8.552  20.625  0.00  0.00    +0.000 A 
ATOM     20 CL   UNL     1       0.789   8.921  22.224  0.00  0.00    +0.000 Cl
ENDBRANCH   9  14
BRANCH   1  23
ATOM     21  C   UNL     1       5.359  15.492  18.337  0.00  0.00    +0.000 A 
ATOM     22  C   UNL     1       4.098  15.168  18.770  0.00  0.00    +0.000 A 
ATOM     23  C   UNL     1       3.617  16.346  19.398  0.00  0.00    +0.000 A 
ATOM     24  N   UNL     1       4.518  17.335  19.290  0.00  0.00    +0.000 NA
ATOM     25  O   UNL     1       5.614  16.791  18.648  0.00  0.00    +0.000 OA
BRANCH  21  27
ATOM     26  C   UNL     1       7.817  15.214  18.049  0.00  0.00    +0.000 C 
ATOM     27  C   UNL     1       6.430  14.760  17.622  0.00  0.00    +0.000 C 
ENDBRANCH  21  27
ENDBRANCH   1  23
BRANCH  12  28
ATOM     28  C   UNL     1      -2.413  12.837  19.810  0.00  0.00    +0.000 C 
BRANCH  28  29
ATOM     29  C   UNL     1      -3.210  12.757  21.092  0.00  0.00    +0.000 A 
ATOM     30  C   UNL     1      -2.603  12.333  22.279  0.00  0.00    +0.000 A 
ATOM     31  C   UNL     1      -3.378  12.221  23.423  0.00  0.00    +0.000 A 
ATOM     32  N   UNL     1      -4.692  12.523  23.474  0.00  0.00    +0.000 NA
ATOM     33  C   UNL     1      -5.250  12.978  22.333  0.00  0.00    +0.000 A 
ATOM     34  C   UNL     1      -4.560  13.121  21.141  0.00  0.00    +0.000 A 
ENDBRANCH  28  29
ENDBRANCH  12  28
TORSDOF 5
ENDMDL
MODEL 6
REMARK VINA RESULT:      -6.5      1.773      2.182
REMARK  Name = 
REMARK  6 active torsions:
REMARK  status: ('A' for Active; 'I' for Inactive)
REMARK    1  A    between atoms: C_1  and  C_2
REMARK    2  A    between atoms: C_2  and  C_3
REMARK    3  A    between atoms: C_5  and  C_6
REMARK    4  A    between atoms: C_14  and  C_15
REMARK    5  A    between atoms: N_24  and  C_25
REMARK    6  A    between atoms: C_25  and  C_26
REMARK                            x       y       z     vdW  Elec       q    Type
REMARK                         _______ _______ _______ _____ _____    ______ ____
ROOT
ATOM      1  C   UNL     1       2.600  16.056  18.974  0.00  0.00    +0.000 C 
ATOM      2  O   UNL     1       2.019  17.013  18.458  0.00  0.00    +0.000 OA
ATOM      3  N   UNL     1       1.936  15.193  19.853  0.00  0.00    +0.000 N 
ATOM      4  C   UNL     1       0.552  15.465  20.210  0.00  0.00    +0.000 C 
ATOM      5  C   UNL     1      -0.391  14.579  19.386  0.00  0.00    +0.000 C 
ATOM      6  C   UNL     1       0.087  13.138  19.313  0.00  0.00    +0.000 A 
ATOM      7  C   UNL     1       1.344  12.832  19.702  0.00  0.00    +0.000 A 
ATOM      8  C   UNL     1       1.795  11.458  19.691  0.00  0.00    +0.000 A 
ATOM      9  C   UNL     1       0.995  10.461  19.293  0.00  0.00    +0.000 A 
ATOM     10  C   UNL     1      -0.375  10.781  18.790  0.00  0.00    +0.000 A 
ATOM     11  O   UNL     1      -1.090   9.874  18.363  0.00  0.00    +0.000 OA
ATOM     12  N   UNL     1      -0.768  12.126  18.838  0.00  0.00    +0.000 N 
ATOM     13  C   UNL     1       2.379  13.839  20.158  0.00  0.00    +0.000 C 
ENDROOT
BRANCH   9  14
ATOM     14  C   UNL     1       1.461   9.072  19.390  0.00  0.00    +0.000 A 
ATOM     15  C   UNL     1       2.064   8.478  18.271  0.00  0.00    +0.000 A 
ATOM     16  C   UNL     1       2.524   7.162  18.331  0.00  0.00    +0.000 A 
ATOM     17  C   UNL     1       2.388   6.427  19.505  0.00  0.00    +0.000 A 
ATOM     18  C   UNL     1       1.792   7.004  20.627  0.00  0.00    +0.000 A 
ATOM     19  C   UNL     1       1.329   8.322  20.571  0.00  0.00    +0.000 A 
ATOM     20 CL   UNL     1       0.609   8.985  21.999  0.00  0.00    +0.000 Cl
ENDBRANCH   9  14
BRANCH   1  23
ATOM     21  C   UNL     1       5.861  14.794  17.951  0.00  0.00    +0.000 A 
ATOM     22  C   UNL     1       4.509  14.586  18.056  0.00  0.00    +0.000 A 
ATOM     23  C   UNL     1       4.003  15.780  18.632  0.00  0.00    +0.000 A 
ATOM     24  N   UNL     1       4.990  16.673  18.802  0.00  0.00    +0.000 NA
ATOM     25  O   UNL     1       6.153  16.044  18.398  0.00  0.00    +0.000 OA
BRANCH  21  27
ATOM     26  C   UNL     1       8.183  14.021  18.411  0.00  0.00    +0.000 C 
ATOM     27  C   UNL     1       6.999  13.985  17.458  0.00  0.00    +0.000 C 
ENDBRANCH  21  27
ENDBRANCH   1  23
BRANCH  12  28
ATOM     28  C   UNL     1      -2.118  12.418  18.335  0.00  0.00    +0.000 C 
BRANCH  28  29
ATOM     29  C   UNL     1      -3.180  12.416  19.411  0.00  0.00    +0.000 A 
ATOM     30  C   UNL     1      -2.853  12.751  20.729  0.00  0.00    +0.000 A 
ATOM     31  C   UNL     1      -3.842  12.687  21.700  0.00  0.00    +0.000 A 
ATOM     32  N   UNL     1      -5.122  12.343  21.447  0.00  0.00    +0.000 NA
ATOM     33  C   UNL     1      -5.431  12.072  20.162  0.00  0.00    +0.000 A 
ATOM     34  C   UNL     1      -4.513  12.106  19.125  0.00  0.00    +0.000 A 
ENDBRANCH  28  29
ENDBRANCH  12  28
TORSDOF 5
ENDMDL
MODEL 7
REMARK VINA RESULT:      -6.5      3.287      6.884
REMARK  Name = 
REMARK  6 active torsions:
REMARK  status: ('A' for Active; 'I' for Inactive)
REMARK    1  A    between atoms: C_1  and  C_2
REMARK    2  A    between atoms: C_2  and  C_3
REMARK    3  A    between atoms: C_5  and  C_6
REMARK    4  A    between atoms: C_14  and  C_15
REMARK    5  A    between atoms: N_24  and  C_25
REMARK    6  A    between atoms: C_25  and  C_26
REMARK                            x       y       z     vdW  Elec       q    Type
REMARK                         _______ _______ _______ _____ _____    ______ ____
ROOT
ATOM      1  C   UNL     1      -3.243  13.015  23.779  0.00  0.00    +0.000 C 
ATOM      2  O   UNL     1      -4.141  12.171  23.798  0.00  0.00    +0.000 OA
ATOM      3  N   UNL     1      -1.913  12.654  23.536  0.00  0.00    +0.000 N 
ATOM      4  C   UNL     1      -1.575  11.250  23.361  0.00  0.00    +0.000 C 
ATOM      5  C   UNL     1      -1.437  10.922  21.868  0.00  0.00    +0.000 C 
ATOM      6  C   UNL     1      -0.641  11.976  21.116  0.00  0.00    +0.000 A 
ATOM      7  C   UNL     1      -0.383  13.163  21.707  0.00  0.00    +0.000 A 
ATOM      8  C   UNL     1       0.421  14.155  21.026  0.00  0.00    +0.000 A 
ATOM      9  C   UNL     1       0.920  13.933  19.804  0.00  0.00    +0.000 A 
ATOM     10  C   UNL     1       0.590  12.657  19.100  0.00  0.00    +0.000 A 
ATOM     11  O   UNL     1       0.993  12.478  17.951  0.00  0.00    +0.000 OA
ATOM     12  N   UNL     1      -0.179  11.724  19.811  0.00  0.00    +0.000 N 
ATOM     13  C   UNL     1      -0.888  13.580  23.072  0.00  0.00    +0.000 C 
ENDROOT
BRANCH   9  14
ATOM     14  C   UNL     1       1.811  14.927  19.191  0.00  0.00    +0.000 A 
ATOM     15  C   UNL     1       3.198  14.725  19.252  0.00  0.00    +0.000 A 
ATOM     16  C   UNL     1       4.072  15.646  18.673  0.00  0.00    +0.000 A 
ATOM     17  C   UNL     1       3.573  16.774  18.029  0.00  0.00    +0.000 A 
ATOM     18  C   UNL     1       2.197  16.989  17.959  0.00  0.00    +0.000 A 
ATOM     19  C   UNL     1       1.316  16.069  18.539  0.00  0.00    +0.000 A 
ATOM     20 CL   UNL     1      -0.380  16.385  18.408  0.00  0.00    +0.000 Cl
ENDBRANCH   9  14
BRANCH   1  23
ATOM     21  C   UNL     1      -4.238  16.517  23.639  0.00  0.00    +0.000 A 
ATOM     22  C   UNL     1      -4.153  15.301  23.010  0.00  0.00    +0.000 A 
ATOM     23  C   UNL     1      -3.569  14.436  23.971  0.00  0.00    +0.000 A 
ATOM     24  N   UNL     1      -3.377  15.085  25.130  0.00  0.00    +0.000 NA
ATOM     25  O   UNL     1      -3.773  16.391  24.911  0.00  0.00    +0.000 OA
BRANCH  21  27
ATOM     26  C   UNL     1      -3.724  18.597  22.371  0.00  0.00    +0.000 C 
ATOM     27  C   UNL     1      -4.726  17.858  23.243  0.00  0.00    +0.000 C 
ENDBRANCH  21  27
ENDBRANCH   1  23
BRANCH  12  28
ATOM     28  C   UNL     1      -0.495  10.478  19.098  0.00  0.00    +0.000 C 
BRANCH  28  29
ATOM     29  C   UNL     1      -1.664  10.603  18.148  0.00  0.00    +0.000 A 
ATOM     30  C   UNL     1      -2.735  11.452  18.449  0.00  0.00    +0.000 A 
ATOM     31  C   UNL     1      -3.814  11.500  17.579  0.00  0.00    +0.000 A 
ATOM     32  N   UNL     1      -3.888  10.793  16.432  0.00  0.00    +0.000 NA
ATOM     33  C   UNL     1      -2.824  10.018  16.133  0.00  0.00    +0.000 A 
ATOM     34  C   UNL     1      -1.704   9.902  16.938  0.00  0.00    +0.000 A 
ENDBRANCH  28  29
ENDBRANCH  12  28
TORSDOF 5
ENDMDL
MODEL 8
REMARK VINA RESULT:      -6.4      6.079      9.439
REMARK  Name = 
REMARK  6 active torsions:
REMARK  status: ('A' for Active; 'I' for Inactive)
REMARK    1  A    between atoms: C_1  and  C_2
REMARK    2  A    between atoms: C_2  and  C_3
REMARK    3  A    between atoms: C_5  and  C_6
REMARK    4  A    between atoms: C_14  and  C_15
REMARK    5  A    between atoms: N_24  and  C_25
REMARK    6  A    between atoms: C_25  and  C_26
REMARK                            x       y       z     vdW  Elec       q    Type
REMARK                         _______ _______ _______ _____ _____    ______ ____
ROOT
ATOM      1  C   UNL     1       9.093  11.796  18.369  0.00  0.00    +0.000 C 
ATOM      2  O   UNL     1       8.934  12.467  17.347  0.00  0.00    +0.000 OA
ATOM      3  N   UNL     1       9.528  12.384  19.561  0.00  0.00    +0.000 N 
ATOM      4  C   UNL     1       9.855  13.802  19.580  0.00  0.00    +0.000 C 
ATOM      5  C   UNL     1       8.687  14.606  20.167  0.00  0.00    +0.000 C 
ATOM      6  C   UNL     1       8.112  13.961  21.417  0.00  0.00    +0.000 A 
ATOM      7  C   UNL     1       8.451  12.691  21.728  0.00  0.00    +0.000 A 
ATOM      8  C   UNL     1       7.956  12.082  22.943  0.00  0.00    +0.000 A 
ATOM      9  C   UNL     1       7.152  12.747  23.782  0.00  0.00    +0.000 A 
ATOM     10  C   UNL     1       6.704  14.127  23.426  0.00  0.00    +0.000 A 
ATOM     11  O   UNL     1       5.912  14.716  24.162  0.00  0.00    +0.000 OA
ATOM     12  N   UNL     1       7.226  14.676  22.245  0.00  0.00    +0.000 N 
ATOM     13  C   UNL     1       9.331  11.797  20.881  0.00  0.00    +0.000 C 
ENDROOT
BRANCH   9  14
ATOM     14  C   UNL     1       6.751  12.125  25.052  0.00  0.00    +0.000 A 
ATOM     15  C   UNL     1       5.708  11.188  25.049  0.00  0.00    +0.000 A 
ATOM     16  C   UNL     1       5.308  10.573  26.236  0.00  0.00    +0.000 A 
ATOM     17  C   UNL     1       5.942  10.887  27.434  0.00  0.00    +0.000 A 
ATOM     18  C   UNL     1       6.982  11.816  27.453  0.00  0.00    +0.000 A 
ATOM     19  C   UNL     1       7.387  12.435  26.266  0.00  0.00    +0.000 A 
ATOM     20 CL   UNL     1       8.690  13.571  26.352  0.00  0.00    +0.000 Cl
ENDBRANCH   9  14
BRANCH   1  23
ATOM     21  C   UNL     1       7.916   8.386  17.865  0.00  0.00    +0.000 A 
ATOM     22  C   UNL     1       7.895   9.698  17.468  0.00  0.00    +0.000 A 
ATOM     23  C   UNL     1       8.780  10.360  18.358  0.00  0.00    +0.000 A 
ATOM     24  N   UNL     1       9.345   9.478  19.198  0.00  0.00    +0.000 NA
ATOM     25  O   UNL     1       8.784   8.250  18.902  0.00  0.00    +0.000 OA
BRANCH  21  27
ATOM     26  C   UNL     1       7.597   5.947  18.259  0.00  0.00    +0.000 C 
ATOM     27  C   UNL     1       7.237   7.152  17.404  0.00  0.00    +0.000 C 
ENDBRANCH  21  27
ENDBRANCH   1  23
BRANCH  12  28
ATOM     28  C   UNL     1       6.770  16.032  21.912  0.00  0.00    +0.000 C 
BRANCH  28  29
ATOM     29  C   UNL     1       5.713  16.069  20.832  0.00  0.00    +0.000 A 
ATOM     30  C   UNL     1       4.586  15.244  20.915  0.00  0.00    +0.000 A 
ATOM     31  C   UNL     1       3.665  15.265  19.879  0.00  0.00    +0.000 A 
ATOM     32  N   UNL     1       3.771  16.061  18.794  0.00  0.00    +0.000 NA
ATOM     33  C   UNL     1       4.838  16.886  18.755  0.00  0.00    +0.000 A 
ATOM     34  C   UNL     1       5.812  16.935  19.738  0.00  0.00    +0.000 A 
ENDBRANCH  28  29
ENDBRANCH  12  28
TORSDOF 5
ENDMDL
MODEL 9
REMARK VINA RESULT:      -6.4      1.801      2.163
REMARK  Name = 
REMARK  6 active torsions:
REMARK  status: ('A' for Active; 'I' for Inactive)
REMARK    1  A    between atoms: C_1  and  C_2
REMARK    2  A    between atoms: C_2  and  C_3
REMARK    3  A    between atoms: C_5  and  C_6
REMARK    4  A    between atoms: C_14  and  C_15
REMARK    5  A    between atoms: N_24  and  C_25
REMARK    6  A    between atoms: C_25  and  C_26
REMARK                            x       y       z     vdW  Elec       q    Type
REMARK                         _______ _______ _______ _____ _____    ______ ____
ROOT
ATOM      1  C   UNL     1       1.760  16.394  19.056  0.00  0.00    +0.000 C 
ATOM      2  O   UNL     1       1.153  17.278  18.449  0.00  0.00    +0.000 OA
ATOM      3  N   UNL     1       1.111  15.575  19.985  0.00  0.00    +0.000 N 
ATOM      4  C   UNL     1      -0.295  15.809  20.284  0.00  0.00    +0.000 C 
ATOM      5  C   UNL     1      -1.171  14.816  19.510  0.00  0.00    +0.000 C 
ATOM      6  C   UNL     1      -0.627  13.398  19.567  0.00  0.00    +0.000 A 
ATOM      7  C   UNL     1       0.631  13.184  20.012  0.00  0.00    +0.000 A 
ATOM      8  C   UNL     1       1.143  11.837  20.125  0.00  0.00    +0.000 A 
ATOM      9  C   UNL     1       0.401  10.774  19.790  0.00  0.00    +0.000 A 
ATOM     10  C   UNL     1      -0.967  10.987  19.228  0.00  0.00    +0.000 A 
ATOM     11  O   UNL     1      -1.627  10.016  18.858  0.00  0.00    +0.000 OA
ATOM     12  N   UNL     1      -1.422  12.312  19.155  0.00  0.00    +0.000 N 
ATOM     13  C   UNL     1       1.605  14.272  20.411  0.00  0.00    +0.000 C 
ENDROOT
BRANCH   9  14
ATOM     14  C   UNL     1       0.926   9.420  20.012  0.00  0.00    +0.000 A 
ATOM     15  C   UNL     1       0.583   8.745  21.194  0.00  0.00    +0.000 A 
ATOM     16  C   UNL     1       1.058   7.455  21.433  0.00  0.00    +0.000 A 
ATOM     17  C   UNL     1       1.877   6.827  20.499  0.00  0.00    +0.000 A 
ATOM     18  C   UNL     1       2.226   7.485  19.319  0.00  0.00    +0.000 A 
ATOM     19  C   UNL     1       1.752   8.778  19.075  0.00  0.00    +0.000 A 
ATOM     20 CL   UNL     1       2.210   9.537  17.588  0.00  0.00    +0.000 Cl
ENDBRANCH   9  14
BRANCH   1  23
ATOM     21  C   UNL     1       5.088  15.252  18.109  0.00  0.00    +0.000 A 
ATOM     22  C   UNL     1       3.734  15.032  18.109  0.00  0.00    +0.000 A 
ATOM     23  C   UNL     1       3.184  16.158  18.774  0.00  0.00    +0.000 A 
ATOM     24  N   UNL     1       4.152  17.031  19.096  0.00  0.00    +0.000 NA
ATOM     25  O   UNL     1       5.342  16.450  18.701  0.00  0.00    +0.000 OA
BRANCH  21  27
ATOM     26  C   UNL     1       7.545  15.310  17.706  0.00  0.00    +0.000 C 
ATOM     27  C   UNL     1       6.261  14.502  17.605  0.00  0.00    +0.000 C 
ENDBRANCH  21  27
ENDBRANCH   1  23
BRANCH  12  28
ATOM     28  C   UNL     1      -2.768  12.498  18.596  0.00  0.00    +0.000 C 
BRANCH  28  29
ATOM     29  C   UNL     1      -3.872  12.383  19.622  0.00  0.00    +0.000 A 
ATOM     30  C   UNL     1      -5.127  11.881  19.259  0.00  0.00    +0.000 A 
ATOM     31  C   UNL     1      -6.131  11.840  20.214  0.00  0.00    +0.000 A 
ATOM     32  N   UNL     1      -5.968  12.234  21.494  0.00  0.00    +0.000 NA
ATOM     33  C   UNL     1      -4.738  12.669  21.839  0.00  0.00    +0.000 A 
ATOM     34  C   UNL     1      -3.674  12.749  20.957  0.00  0.00    +0.000 A 
ENDBRANCH  28  29
ENDBRANCH  12  28
TORSDOF 5
ENDMDL
