MODEL 1
REMARK VINA RESULT:      -5.6      0.000      0.000
REMARK  Name = 
REMARK  6 active torsions:
REMARK  status: ('A' for Active; 'I' for Inactive)
REMARK    1  A    between atoms: C_1  and  C_2
REMARK    2  A    between atoms: C_2  and  C_3
REMARK    3  A    between atoms: C_3  and  S_4
REMARK    4  A    between atoms: S_4  and  C_5
REMARK    5  A    between atoms: C_5  and  C_6
REMARK    6  A    between atoms: C_10  and  O_11
REMARK                            x       y       z     vdW  Elec       q    Type
REMARK                         _______ _______ _______ _____ _____    ______ ____
ROOT
ATOM      1  C   UNL     1       4.066   5.206  18.022  0.00  0.00    +0.000 A 
ATOM      2  C   UNL     1       4.887   5.422  19.063  0.00  0.00    +0.000 A 
ATOM      3  C   UNL     1       6.315   5.085  18.928  0.00  0.00    +0.000 A 
ATOM      4  O   UNL     1       7.123   5.264  19.833  0.00  0.00    +0.000 OA
ATOM      5  C   UNL     1       6.753   4.519  17.629  0.00  0.00    +0.000 A 
ATOM      6  C   UNL     1       5.828   4.326  16.688  0.00  0.00    +0.000 A 
ATOM      7  O   UNL     1       4.494   4.627  16.832  0.00  0.00    +0.000 OA
ENDROOT
BRANCH   5   8
ATOM      8  O   UNL     1       8.084   4.213  17.443  0.00  0.00    +0.000 OA
ATOM      9  H   UNL     1       8.319   3.637  18.201  0.00  0.00    +0.000 HD
ENDBRANCH   5   8
BRANCH   1  10
ATOM     10  C   UNL     1       2.602   5.540  18.055  0.00  0.00    +0.000 C 
BRANCH  10  11
ATOM     11  S   UNL     1       1.580   4.033  18.105  0.00  0.00    +0.000 S 
BRANCH  11  12
ATOM     12  C   UNL     1       1.082   4.029  19.861  0.00  0.00    +0.000 C 
BRANCH  12  14
ATOM     13  C   UNL     1       2.299   2.813  21.703  0.00  0.00    +0.000 C 
ATOM     14  C   UNL     1       1.414   2.670  20.474  0.00  0.00    +0.000 C 
ENDBRANCH  12  14
ENDBRANCH  11  12
ENDBRANCH  10  11
ENDBRANCH   1  10
TORSDOF 5
ENDMDL
MODEL 2
REMARK VINA RESULT:      -5.6      1.713      2.408
REMARK  Name = 
REMARK  6 active torsions:
REMARK  status: ('A' for Active; 'I' for Inactive)
REMARK    1  A    between atoms: C_1  and  C_2
REMARK    2  A    between atoms: C_2  and  C_3
REMARK    3  A    between atoms: C_3  and  S_4
REMARK    4  A    between atoms: S_4  and  C_5
REMARK    5  A    between atoms: C_5  and  C_6
REMARK    6  A    between atoms: C_10  and  O_11
REMARK                            x       y       z     vdW  Elec       q    Type
REMARK                         _______ _______ _______ _____ _____    ______ ____
ROOT
ATOM      1  C   UNL     1       5.078   5.115  18.284  0.00  0.00    +0.000 A 
ATOM      2  C   UNL     1       4.688   5.911  17.274  0.00  0.00    +0.000 A 
ATOM      3  C   UNL     1       5.577   6.078  16.112  0.00  0.00    +0.000 A 
ATOM      4  O   UNL     1       5.281   6.781  15.151  0.00  0.00    +0.000 OA
ATOM      5  C   UNL     1       6.865   5.345  16.139  0.00  0.00    +0.000 A 
ATOM      6  C   UNL     1       7.145   4.613  17.218  0.00  0.00    +0.000 A 
ATOM      7  O   UNL     1       6.315   4.479  18.306  0.00  0.00    +0.000 OA
ENDROOT
BRANCH   5   8
ATOM      8  O   UNL     1       7.720   5.447  15.062  0.00  0.00    +0.000 OA
ATOM      9  H   UNL     1       8.281   4.644  15.109  0.00  0.00    +0.000 HD
ENDBRANCH   5   8
BRANCH   1  10
ATOM     10  C   UNL     1       4.232   4.863  19.498  0.00  0.00    +0.000 C 
BRANCH  10  11
ATOM     11  S   UNL     1       2.654   5.768  19.406  0.00  0.00    +0.000 S 
BRANCH  11  12
ATOM     12  C   UNL     1       1.812   5.116  20.889  0.00  0.00    +0.000 C 
BRANCH  12  14
ATOM     13  C   UNL     1       1.500   2.694  21.511  0.00  0.00    +0.000 C 
ATOM     14  C   UNL     1       1.122   3.799  20.536  0.00  0.00    +0.000 C 
ENDBRANCH  12  14
ENDBRANCH  11  12
ENDBRANCH  10  11
ENDBRANCH   1  10
TORSDOF 5
ENDMDL
MODEL 3
REMARK VINA RESULT:      -5.5      1.816      1.904
REMARK  Name = 
REMARK  6 active torsions:
REMARK  status: ('A' for Active; 'I' for Inactive)
REMARK    1  A    between atoms: C_1  and  C_2
REMARK    2  A    between atoms: C_2  and  C_3
REMARK    3  A    between atoms: C_3  and  S_4
REMARK    4  A    between atoms: S_4  and  C_5
REMARK    5  A    between atoms: C_5  and  C_6
REMARK    6  A    between atoms: C_10  and  O_11
REMARK                            x       y       z     vdW  Elec       q    Type
REMARK                         _______ _______ _______ _____ _____    ______ ____
ROOT
ATOM      1  C   UNL     1       4.122   4.827  17.206  0.00  0.00    +0.000 A 
ATOM      2  C   UNL     1       4.748   6.003  17.381  0.00  0.00    +0.000 A 
ATOM      3  C   UNL     1       6.003   6.259  16.653  0.00  0.00    +0.000 A 
ATOM      4  O   UNL     1       6.622   7.313  16.757  0.00  0.00    +0.000 OA
ATOM      5  C   UNL     1       6.498   5.180  15.765  0.00  0.00    +0.000 A 
ATOM      6  C   UNL     1       5.797   4.048  15.707  0.00  0.00    +0.000 A 
ATOM      7  O   UNL     1       4.636   3.812  16.405  0.00  0.00    +0.000 OA
ENDROOT
BRANCH   5   8
ATOM      8  O   UNL     1       7.654   5.382  15.041  0.00  0.00    +0.000 OA
ATOM      9  H   UNL     1       8.381   5.256  15.686  0.00  0.00    +0.000 HD
ENDBRANCH   5   8
BRANCH   1  10
ATOM     10  C   UNL     1       2.828   4.483  17.884  0.00  0.00    +0.000 C 
BRANCH  10  11
ATOM     11  S   UNL     1       2.615   2.680  18.031  0.00  0.00    +0.000 S 
BRANCH  11  12
ATOM     12  C   UNL     1       0.966   2.604  18.811  0.00  0.00    +0.000 C 
BRANCH  12  14
ATOM     13  C   UNL     1       1.412   2.794  21.284  0.00  0.00    +0.000 C 
ATOM     14  C   UNL     1       0.945   3.521  20.032  0.00  0.00    +0.000 C 
ENDBRANCH  12  14
ENDBRANCH  11  12
ENDBRANCH  10  11
ENDBRANCH   1  10
TORSDOF 5
ENDMDL
MODEL 4
REMARK VINA RESULT:      -5.5      1.197      1.368
REMARK  Name = 
REMARK  6 active torsions:
REMARK  status: ('A' for Active; 'I' for Inactive)
REMARK    1  A    between atoms: C_1  and  C_2
REMARK    2  A    between atoms: C_2  and  C_3
REMARK    3  A    between atoms: C_3  and  S_4
REMARK    4  A    between atoms: S_4  and  C_5
REMARK    5  A    between atoms: C_5  and  C_6
REMARK    6  A    between atoms: C_10  and  O_11
REMARK                            x       y       z     vdW  Elec       q    Type
REMARK                         _______ _______ _______ _____ _____    ______ ____
ROOT
ATOM      1  C   UNL     1       4.322   5.077  18.138  0.00  0.00    +0.000 A 
ATOM      2  C   UNL     1       5.497   4.608  18.592  0.00  0.00    +0.000 A 
ATOM      3  C   UNL     1       6.713   4.833  17.791  0.00  0.00    +0.000 A 
ATOM      4  O   UNL     1       7.819   4.441  18.149  0.00  0.00    +0.000 OA
ATOM      5  C   UNL     1       6.552   5.572  16.516  0.00  0.00    +0.000 A 
ATOM      6  C   UNL     1       5.323   5.954  16.166  0.00  0.00    +0.000 A 
ATOM      7  O   UNL     1       4.192   5.723  16.913  0.00  0.00    +0.000 OA
ENDROOT
BRANCH   5   8
ATOM      8  O   UNL     1       7.664   5.832  15.744  0.00  0.00    +0.000 OA
ATOM      9  H   UNL     1       7.331   6.366  14.993  0.00  0.00    +0.000 HD
ENDBRANCH   5   8
BRANCH   1  10
ATOM     10  C   UNL     1       3.034   4.919  18.893  0.00  0.00    +0.000 C 
BRANCH  10  11
ATOM     11  S   UNL     1       1.786   4.042  17.898  0.00  0.00    +0.000 S 
BRANCH  11  12
ATOM     12  C   UNL     1       1.229   2.786  19.100  0.00  0.00    +0.000 C 
BRANCH  12  14
ATOM     13  C   UNL     1       1.579   2.711  21.595  0.00  0.00    +0.000 C 
ATOM     14  C   UNL     1       0.940   3.464  20.438  0.00  0.00    +0.000 C 
ENDBRANCH  12  14
ENDBRANCH  11  12
ENDBRANCH  10  11
ENDBRANCH   1  10
TORSDOF 5
ENDMDL
MODEL 5
REMARK VINA RESULT:      -5.4      1.007      1.136
REMARK  Name = 
REMARK  6 active torsions:
REMARK  status: ('A' for Active; 'I' for Inactive)
REMARK    1  A    between atoms: C_1  and  C_2
REMARK    2  A    between atoms: C_2  and  C_3
REMARK    3  A    between atoms: C_3  and  S_4
REMARK    4  A    between atoms: S_4  and  C_5
REMARK    5  A    between atoms: C_5  and  C_6
REMARK    6  A    between atoms: C_10  and  O_11
REMARK                            x       y       z     vdW  Elec       q    Type
REMARK                         _______ _______ _______ _____ _____    ______ ____
ROOT
ATOM      1  C   UNL     1       4.112   5.128  18.058  0.00  0.00    +0.000 A 
ATOM      2  C   UNL     1       5.004   5.374  19.033  0.00  0.00    +0.000 A 
ATOM      3  C   UNL     1       6.424   5.057  18.798  0.00  0.00    +0.000 A 
ATOM      4  O   UNL     1       7.293   5.264  19.639  0.00  0.00    +0.000 OA
ATOM      5  C   UNL     1       6.775   4.475  17.480  0.00  0.00    +0.000 A 
ATOM      6  C   UNL     1       5.786   4.251  16.613  0.00  0.00    +0.000 A 
ATOM      7  O   UNL     1       4.461   4.534  16.850  0.00  0.00    +0.000 OA
ENDROOT
BRANCH   5   8
ATOM      8  O   UNL     1       8.093   4.187  17.202  0.00  0.00    +0.000 OA
ATOM      9  H   UNL     1       8.255   3.315  17.621  0.00  0.00    +0.000 HD
ENDBRANCH   5   8
BRANCH   1  10
ATOM     10  C   UNL     1       2.650   5.439  18.194  0.00  0.00    +0.000 C 
BRANCH  10  11
ATOM     11  S   UNL     1       2.340   6.576  19.582  0.00  0.00    +0.000 S 
BRANCH  11  12
ATOM     12  C   UNL     1       1.729   5.403  20.840  0.00  0.00    +0.000 C 
BRANCH  12  14
ATOM     13  C   UNL     1       1.313   2.921  20.969  0.00  0.00    +0.000 C 
ATOM     14  C   UNL     1       1.129   4.184  20.142  0.00  0.00    +0.000 C 
ENDBRANCH  12  14
ENDBRANCH  11  12
ENDBRANCH  10  11
ENDBRANCH   1  10
TORSDOF 5
ENDMDL
MODEL 6
REMARK VINA RESULT:      -5.4      1.853      2.565
REMARK  Name = 
REMARK  6 active torsions:
REMARK  status: ('A' for Active; 'I' for Inactive)
REMARK    1  A    between atoms: C_1  and  C_2
REMARK    2  A    between atoms: C_2  and  C_3
REMARK    3  A    between atoms: C_3  and  S_4
REMARK    4  A    between atoms: S_4  and  C_5
REMARK    5  A    between atoms: C_5  and  C_6
REMARK    6  A    between atoms: C_10  and  O_11
REMARK                            x       y       z     vdW  Elec       q    Type
REMARK                         _______ _______ _______ _____ _____    ______ ____
ROOT
ATOM      1  C   UNL     1       5.063   4.991  18.328  0.00  0.00    +0.000 A 
ATOM      2  C   UNL     1       4.652   5.804  17.340  0.00  0.00    +0.000 A 
ATOM      3  C   UNL     1       5.538   6.027  16.184  0.00  0.00    +0.000 A 
ATOM      4  O   UNL     1       5.224   6.748  15.242  0.00  0.00    +0.000 OA
ATOM      5  C   UNL     1       6.846   5.328  16.194  0.00  0.00    +0.000 A 
ATOM      6  C   UNL     1       7.143   4.575  17.253  0.00  0.00    +0.000 A 
ATOM      7  O   UNL     1       6.316   4.388  18.336  0.00  0.00    +0.000 OA
ENDROOT
BRANCH   5   8
ATOM      8  O   UNL     1       7.699   5.482  15.122  0.00  0.00    +0.000 OA
ATOM      9  H   UNL     1       8.128   6.352  15.264  0.00  0.00    +0.000 HD
ENDBRANCH   5   8
BRANCH   1  10
ATOM     10  C   UNL     1       4.222   4.683  19.533  0.00  0.00    +0.000 C 
BRANCH  10  11
ATOM     11  S   UNL     1       3.820   2.909  19.625  0.00  0.00    +0.000 S 
BRANCH  11  12
ATOM     12  C   UNL     1       2.633   2.766  18.246  0.00  0.00    +0.000 C 
BRANCH  12  14
ATOM     13  C   UNL     1       1.088   2.934  20.230  0.00  0.00    +0.000 C 
ATOM     14  C   UNL     1       1.243   3.171  18.736  0.00  0.00    +0.000 C 
ENDBRANCH  12  14
ENDBRANCH  11  12
ENDBRANCH  10  11
ENDBRANCH   1  10
TORSDOF 5
ENDMDL
MODEL 7
REMARK VINA RESULT:      -5.4      1.657      2.474
REMARK  Name = 
REMARK  6 active torsions:
REMARK  status: ('A' for Active; 'I' for Inactive)
REMARK    1  A    between atoms: C_1  and  C_2
REMARK    2  A    between atoms: C_2  and  C_3
REMARK    3  A    between atoms: C_3  and  S_4
REMARK    4  A    between atoms: S_4  and  C_5
REMARK    5  A    between atoms: C_5  and  C_6
REMARK    6  A    between atoms: C_10  and  O_11
REMARK                            x       y       z     vdW  Elec       q    Type
REMARK                         _______ _______ _______ _____ _____    ______ ____
ROOT
ATOM      1  C   UNL     1       5.011   4.276  18.166  0.00  0.00    +0.000 A 
ATOM      2  C   UNL     1       4.568   5.049  17.159  0.00  0.00    +0.000 A 
ATOM      3  C   UNL     1       5.499   6.000  16.527  0.00  0.00    +0.000 A 
ATOM      4  O   UNL     1       5.167   6.729  15.598  0.00  0.00    +0.000 OA
ATOM      5  C   UNL     1       6.884   6.040  17.057  0.00  0.00    +0.000 A 
ATOM      6  C   UNL     1       7.183   5.241  18.082  0.00  0.00    +0.000 A 
ATOM      7  O   UNL     1       6.301   4.370  18.677  0.00  0.00    +0.000 OA
ENDROOT
BRANCH   5   8
ATOM      8  O   UNL     1       7.800   6.893  16.480  0.00  0.00    +0.000 OA
ATOM      9  H   UNL     1       7.311   7.337  15.756  0.00  0.00    +0.000 HD
ENDBRANCH   5   8
BRANCH   1  10
ATOM     10  C   UNL     1       4.146   3.262  18.856  0.00  0.00    +0.000 C 
BRANCH  10  11
ATOM     11  S   UNL     1       2.577   3.012  17.964  0.00  0.00    +0.000 S 
BRANCH  11  12
ATOM     12  C   UNL     1       1.654   2.024  19.191  0.00  0.00    +0.000 C 
BRANCH  12  14
ATOM     13  C   UNL     1       0.950   4.145  20.357  0.00  0.00    +0.000 C 
ATOM     14  C   UNL     1       1.609   2.783  20.516  0.00  0.00    +0.000 C 
ENDBRANCH  12  14
ENDBRANCH  11  12
ENDBRANCH  10  11
ENDBRANCH   1  10
TORSDOF 5
ENDMDL
MODEL 8
REMARK VINA RESULT:      -5.4      2.809      5.337
REMARK  Name = 
REMARK  6 active torsions:
REMARK  status: ('A' for Active; 'I' for Inactive)
REMARK    1  A    between atoms: C_1  and  C_2
REMARK    2  A    between atoms: C_2  and  C_3
REMARK    3  A    between atoms: C_3  and  S_4
REMARK    4  A    between atoms: S_4  and  C_5
REMARK    5  A    between atoms: C_5  and  C_6
REMARK    6  A    between atoms: C_10  and  O_11
REMARK                            x       y       z     vdW  Elec       q    Type
REMARK                         _______ _______ _______ _____ _____    ______ ____
ROOT
ATOM      1  C   UNL     1       4.809   4.438  18.649  0.00  0.00    +0.000 A 
ATOM      2  C   UNL     1       3.734   4.602  17.860  0.00  0.00    +0.000 A 
ATOM      3  C   UNL     1       2.684   3.568  17.861  0.00  0.00    +0.000 A 
ATOM      4  O   UNL     1       1.672   3.656  17.173  0.00  0.00    +0.000 OA
ATOM      5  C   UNL     1       2.893   2.397  18.745  0.00  0.00    +0.000 A 
ATOM      6  C   UNL     1       4.022   2.343  19.454  0.00  0.00    +0.000 A 
ATOM      7  O   UNL     1       5.004   3.305  19.432  0.00  0.00    +0.000 OA
ENDROOT
BRANCH   5   8
ATOM      8  O   UNL     1       1.927   1.415  18.802  0.00  0.00    +0.000 OA
ATOM      9  H   UNL     1       1.076   1.900  18.844  0.00  0.00    +0.000 HD
ENDBRANCH   5   8
BRANCH   1  10
ATOM     10  C   UNL     1       5.918   5.447  18.736  0.00  0.00    +0.000 C 
BRANCH  10  11
ATOM     11  S   UNL     1       7.411   4.866  17.870  0.00  0.00    +0.000 S 
BRANCH  11  12
ATOM     12  C   UNL     1       7.001   5.333  16.154  0.00  0.00    +0.000 C 
BRANCH  12  14
ATOM     13  C   UNL     1       5.471   4.389  14.388  0.00  0.00    +0.000 C 
ATOM     14  C   UNL     1       6.584   4.085  15.380  0.00  0.00    +0.000 C 
ENDBRANCH  12  14
ENDBRANCH  11  12
ENDBRANCH  10  11
ENDBRANCH   1  10
TORSDOF 5
ENDMDL
MODEL 9
REMARK VINA RESULT:      -5.4      1.593      2.070
REMARK  Name = 
REMARK  6 active torsions:
REMARK  status: ('A' for Active; 'I' for Inactive)
REMARK    1  A    between atoms: C_1  and  C_2
REMARK    2  A    between atoms: C_2  and  C_3
REMARK    3  A    between atoms: C_3  and  S_4
REMARK    4  A    between atoms: S_4  and  C_5
REMARK    5  A    between atoms: C_5  and  C_6
REMARK    6  A    between atoms: C_10  and  O_11
REMARK                            x       y       z     vdW  Elec       q    Type
REMARK                         _______ _______ _______ _____ _____    ______ ____
ROOT
ATOM      1  C   UNL     1       4.869   4.985  17.978  0.00  0.00    +0.000 A 
ATOM      2  C   UNL     1       6.104   4.497  18.185  0.00  0.00    +0.000 A 
ATOM      3  C   UNL     1       7.108   4.618  17.114  0.00  0.00    +0.000 A 
ATOM      4  O   UNL     1       8.257   4.204  17.237  0.00  0.00    +0.000 OA
ATOM      5  C   UNL     1       6.677   5.279  15.859  0.00  0.00    +0.000 A 
ATOM      6  C   UNL     1       5.411   5.689  15.772  0.00  0.00    +0.000 A 
ATOM      7  O   UNL     1       4.477   5.555  16.772  0.00  0.00    +0.000 OA
ENDROOT
BRANCH   5   8
ATOM      8  O   UNL     1       7.587   5.441  14.837  0.00  0.00    +0.000 OA
ATOM      9  H   UNL     1       7.130   6.005  14.178  0.00  0.00    +0.000 HD
ENDBRANCH   5   8
BRANCH   1  10
ATOM     10  C   UNL     1       3.787   4.931  19.017  0.00  0.00    +0.000 C 
BRANCH  10  11
ATOM     11  S   UNL     1       3.597   3.250  19.691  0.00  0.00    +0.000 S 
BRANCH  11  12
ATOM     12  C   UNL     1       2.468   2.523  18.455  0.00  0.00    +0.000 C 
BRANCH  12  14
ATOM     13  C   UNL     1       0.919   3.097  20.359  0.00  0.00    +0.000 C 
ATOM     14  C   UNL     1       1.024   2.798  18.871  0.00  0.00    +0.000 C 
ENDBRANCH  12  14
ENDBRANCH  11  12
ENDBRANCH  10  11
ENDBRANCH   1  10
TORSDOF 5
ENDMDL
