MODEL 1
REMARK VINA RESULT:      -6.5      0.000      0.000
REMARK  Name = 
REMARK  9 active torsions:
REMARK  status: ('A' for Active; 'I' for Inactive)
REMARK    1  A    between atoms: C_1  and  C_2
REMARK    2  A    between atoms: C_2  and  C_3
REMARK    3  A    between atoms: C_3  and  O_4
REMARK    4  A    between atoms: O_4  and  C_5
REMARK    5  A    between atoms: C_6  and  C_7
REMARK    6  A    between atoms: C_7  and  N_8
REMARK    7  A    between atoms: N_8  and  C_9
REMARK    8  A    between atoms: C_17  and  O_18
REMARK    9  A    between atoms: O_18  and  C_19
REMARK                            x       y       z     vdW  Elec       q    Type
REMARK                         _______ _______ _______ _____ _____    ______ ____
ROOT
ATOM      1  C   UNL     1       6.798   4.906  16.737  0.00  0.00    +0.000 A 
ATOM      2  C   UNL     1       5.641   4.406  17.390  0.00  0.00    +0.000 A 
ATOM      3  C   UNL     1       4.538   3.992  16.623  0.00  0.00    +0.000 A 
ATOM      4  C   UNL     1       4.546   4.104  15.242  0.00  0.00    +0.000 A 
ATOM      5  C   UNL     1       5.677   4.600  14.600  0.00  0.00    +0.000 A 
ATOM      6  C   UNL     1       6.819   4.977  15.325  0.00  0.00    +0.000 A 
ENDROOT
BRANCH   6   7
ATOM      7  O   UNL     1       7.952   5.424  14.691  0.00  0.00    +0.000 OA
ATOM      8  C   UNL     1       7.969   5.338  13.268  0.00  0.00    +0.000 C 
ENDBRANCH   6   7
BRANCH   1   9
ATOM      9  O   UNL     1       7.832   5.229  17.587  0.00  0.00    +0.000 OA
BRANCH   9  10
ATOM     10  C   UNL     1       7.715   6.414  18.380  0.00  0.00    +0.000 C 
BRANCH  10  12
ATOM     11  C   UNL     1       8.243   8.866  18.016  0.00  0.00    +0.000 C 
ATOM     12  C   UNL     1       7.621   7.609  17.428  0.00  0.00    +0.000 C 
ENDBRANCH  10  12
ENDBRANCH   9  10
ENDBRANCH   1   9
BRANCH   2  13
ATOM     13  C   UNL     1       5.523   4.296  18.900  0.00  0.00    +0.000 C 
BRANCH  13  14
ATOM     14  N   UNL     1       5.001   3.021  19.407  0.00  0.00    +0.000 NA
ATOM     15  H   UNL     1       5.680   2.696  20.101  0.00  0.00    +0.000 HD
BRANCH  14  16
ATOM     16  C   UNL     1       3.683   3.105  20.050  0.00  0.00    +0.000 C 
ATOM     17  C   UNL     1       3.091   4.512  20.175  0.00  0.00    +0.000 C 
ATOM     18  C   UNL     1       1.714   4.304  20.797  0.00  0.00    +0.000 C 
ATOM     19  S   UNL     1       1.034   2.856  19.939  0.00  0.00    +0.000 S 
ATOM     20  C   UNL     1       2.632   2.331  19.238  0.00  0.00    +0.000 C 
ENDBRANCH  14  16
ENDBRANCH  13  14
ENDBRANCH   2  13
TORSDOF 7
ENDMDL
MODEL 2
REMARK VINA RESULT:      -6.4      1.714      3.373
REMARK  Name = 
REMARK  9 active torsions:
REMARK  status: ('A' for Active; 'I' for Inactive)
REMARK    1  A    between atoms: C_1  and  C_2
REMARK    2  A    between atoms: C_2  and  C_3
REMARK    3  A    between atoms: C_3  and  O_4
REMARK    4  A    between atoms: O_4  and  C_5
REMARK    5  A    between atoms: C_6  and  C_7
REMARK    6  A    between atoms: C_7  and  N_8
REMARK    7  A    between atoms: N_8  and  C_9
REMARK    8  A    between atoms: C_17  and  O_18
REMARK    9  A    between atoms: O_18  and  C_19
REMARK                            x       y       z     vdW  Elec       q    Type
REMARK                         _______ _______ _______ _____ _____    ______ ____
ROOT
ATOM      1  C   UNL     1       5.374   5.061  16.846  0.00  0.00    +0.000 A 
ATOM      2  C   UNL     1       4.037   4.689  17.143  0.00  0.00    +0.000 A 
ATOM      3  C   UNL     1       3.144   5.655  17.641  0.00  0.00    +0.000 A 
ATOM      4  C   UNL     1       3.561   6.953  17.885  0.00  0.00    +0.000 A 
ATOM      5  C   UNL     1       4.873   7.318  17.601  0.00  0.00    +0.000 A 
ATOM      6  C   UNL     1       5.783   6.397  17.056  0.00  0.00    +0.000 A 
ENDROOT
BRANCH   6   7
ATOM      7  O   UNL     1       7.066   6.767  16.732  0.00  0.00    +0.000 OA
ATOM      8  C   UNL     1       7.652   7.807  17.512  0.00  0.00    +0.000 C 
ENDBRANCH   6   7
BRANCH   1   9
ATOM      9  O   UNL     1       6.138   4.046  16.315  0.00  0.00    +0.000 OA
BRANCH   9  10
ATOM     10  C   UNL     1       6.726   4.240  15.025  0.00  0.00    +0.000 C 
BRANCH  10  12
ATOM     11  C   UNL     1       6.089   3.493  12.689  0.00  0.00    +0.000 C 
ATOM     12  C   UNL     1       5.612   4.137  13.981  0.00  0.00    +0.000 C 
ENDBRANCH  10  12
ENDBRANCH   9  10
ENDBRANCH   1   9
BRANCH   2  13
ATOM     13  C   UNL     1       3.507   3.278  16.956  0.00  0.00    +0.000 C 
BRANCH  13  14
ATOM     14  N   UNL     1       4.033   2.270  17.884  0.00  0.00    +0.000 NA
ATOM     15  H   UNL     1       4.986   2.571  18.112  0.00  0.00    +0.000 HD
BRANCH  14  16
ATOM     16  C   UNL     1       3.278   2.128  19.136  0.00  0.00    +0.000 C 
ATOM     17  C   UNL     1       3.750   3.002  20.302  0.00  0.00    +0.000 C 
ATOM     18  C   UNL     1       2.764   2.718  21.430  0.00  0.00    +0.000 C 
ATOM     19  S   UNL     1       1.139   2.679  20.622  0.00  0.00    +0.000 S 
ATOM     20  C   UNL     1       1.811   2.540  18.934  0.00  0.00    +0.000 C 
ENDBRANCH  14  16
ENDBRANCH  13  14
ENDBRANCH   2  13
TORSDOF 7
ENDMDL
MODEL 3
REMARK VINA RESULT:      -6.4      3.942      5.978
REMARK  Name = 
REMARK  9 active torsions:
REMARK  status: ('A' for Active; 'I' for Inactive)
REMARK    1  A    between atoms: C_1  and  C_2
REMARK    2  A    between atoms: C_2  and  C_3
REMARK    3  A    between atoms: C_3  and  O_4
REMARK    4  A    between atoms: O_4  and  C_5
REMARK    5  A    between atoms: C_6  and  C_7
REMARK    6  A    between atoms: C_7  and  N_8
REMARK    7  A    between atoms: N_8  and  C_9
REMARK    8  A    between atoms: C_17  and  O_18
REMARK    9  A    between atoms: O_18  and  C_19
REMARK                            x       y       z     vdW  Elec       q    Type
REMARK                         _______ _______ _______ _____ _____    ______ ____
ROOT
ATOM      1  C   UNL     1       3.312   5.037  19.021  0.00  0.00    +0.000 A 
ATOM      2  C   UNL     1       3.242   6.342  18.468  0.00  0.00    +0.000 A 
ATOM      3  C   UNL     1       4.091   6.688  17.402  0.00  0.00    +0.000 A 
ATOM      4  C   UNL     1       5.024   5.789  16.911  0.00  0.00    +0.000 A 
ATOM      5  C   UNL     1       5.099   4.512  17.457  0.00  0.00    +0.000 A 
ATOM      6  C   UNL     1       4.235   4.109  18.488  0.00  0.00    +0.000 A 
ENDROOT
BRANCH   6   7
ATOM      7  O   UNL     1       4.277   2.833  18.998  0.00  0.00    +0.000 OA
ATOM      8  C   UNL     1       3.601   1.821  18.255  0.00  0.00    +0.000 C 
ENDBRANCH   6   7
BRANCH   1   9
ATOM      9  O   UNL     1       2.397   4.797  20.022  0.00  0.00    +0.000 OA
BRANCH   9  10
ATOM     10  C   UNL     1       1.209   4.068  19.697  0.00  0.00    +0.000 C 
BRANCH  10  12
ATOM     11  C   UNL     1       2.156   2.943  21.760  0.00  0.00    +0.000 C 
ATOM     12  C   UNL     1       0.991   3.017  20.788  0.00  0.00    +0.000 C 
ENDBRANCH  10  12
ENDBRANCH   9  10
ENDBRANCH   1   9
BRANCH   2  13
ATOM     13  C   UNL     1       2.287   7.408  18.975  0.00  0.00    +0.000 C 
BRANCH  13  14
ATOM     14  N   UNL     1       2.215   7.558  20.434  0.00  0.00    +0.000 NA
ATOM     15  H   UNL     1       3.087   8.021  20.710  0.00  0.00    +0.000 HD
BRANCH  14  16
ATOM     16  C   UNL     1       1.087   8.364  20.917  0.00  0.00    +0.000 C 
ATOM     17  C   UNL     1       1.282   9.034  22.281  0.00  0.00    +0.000 C 
ATOM     18  C   UNL     1       0.015   9.853  22.501  0.00  0.00    +0.000 C 
ATOM     19  S   UNL     1      -0.320  10.624  20.892  0.00  0.00    +0.000 S 
ATOM     20  C   UNL     1       0.810   9.538  19.964  0.00  0.00    +0.000 C 
ENDBRANCH  14  16
ENDBRANCH  13  14
ENDBRANCH   2  13
TORSDOF 7
ENDMDL
MODEL 4
REMARK VINA RESULT:      -6.4      4.256      5.985
REMARK  Name = 
REMARK  9 active torsions:
REMARK  status: ('A' for Active; 'I' for Inactive)
REMARK    1  A    between atoms: C_1  and  C_2
REMARK    2  A    between atoms: C_2  and  C_3
REMARK    3  A    between atoms: C_3  and  O_4
REMARK    4  A    between atoms: O_4  and  C_5
REMARK    5  A    between atoms: C_6  and  C_7
REMARK    6  A    between atoms: C_7  and  N_8
REMARK    7  A    between atoms: N_8  and  C_9
REMARK    8  A    between atoms: C_17  and  O_18
REMARK    9  A    between atoms: O_18  and  C_19
REMARK                            x       y       z     vdW  Elec       q    Type
REMARK                         _______ _______ _______ _____ _____    ______ ____
ROOT
ATOM      1  C   UNL     1       3.032   5.117  17.866  0.00  0.00    +0.000 A 
ATOM      2  C   UNL     1       3.698   6.333  17.564  0.00  0.00    +0.000 A 
ATOM      3  C   UNL     1       4.798   6.321  16.688  0.00  0.00    +0.000 A 
ATOM      4  C   UNL     1       5.266   5.134  16.147  0.00  0.00    +0.000 A 
ATOM      5  C   UNL     1       4.619   3.940  16.447  0.00  0.00    +0.000 A 
ATOM      6  C   UNL     1       3.487   3.914  17.278  0.00  0.00    +0.000 A 
ENDROOT
BRANCH   6   7
ATOM      7  O   UNL     1       2.819   2.743  17.539  0.00  0.00    +0.000 OA
ATOM      8  C   UNL     1       3.497   1.781  18.345  0.00  0.00    +0.000 C 
ENDBRANCH   6   7
BRANCH   1   9
ATOM      9  O   UNL     1       1.940   5.260  18.692  0.00  0.00    +0.000 OA
BRANCH   9  10
ATOM     10  C   UNL     1       2.074   4.892  20.069  0.00  0.00    +0.000 C 
BRANCH  10  12
ATOM     11  C   UNL     1       1.442   2.837  21.410  0.00  0.00    +0.000 C 
ATOM     12  C   UNL     1       0.984   3.866  20.389  0.00  0.00    +0.000 C 
ENDBRANCH  10  12
ENDBRANCH   9  10
ENDBRANCH   1   9
BRANCH   2  13
ATOM     13  C   UNL     1       3.287   7.672  18.150  0.00  0.00    +0.000 C 
BRANCH  13  14
ATOM     14  N   UNL     1       1.974   8.177  17.727  0.00  0.00    +0.000 NA
ATOM     15  H   UNL     1       1.326   7.389  17.826  0.00  0.00    +0.000 HD
BRANCH  14  16
ATOM     16  C   UNL     1       1.461   9.303  18.517  0.00  0.00    +0.000 C 
ATOM     17  C   UNL     1       0.091   9.843  18.096  0.00  0.00    +0.000 C 
ATOM     18  C   UNL     1      -0.229  10.935  19.111  0.00  0.00    +0.000 C 
ATOM     19  S   UNL     1       0.278  10.241  20.710  0.00  0.00    +0.000 S 
ATOM     20  C   UNL     1       1.262   8.891  19.985  0.00  0.00    +0.000 C 
ENDBRANCH  14  16
ENDBRANCH  13  14
ENDBRANCH   2  13
TORSDOF 7
ENDMDL
MODEL 5
REMARK VINA RESULT:      -6.3      3.803      6.661
REMARK  Name = 
REMARK  9 active torsions:
REMARK  status: ('A' for Active; 'I' for Inactive)
REMARK    1  A    between atoms: C_1  and  C_2
REMARK    2  A    between atoms: C_2  and  C_3
REMARK    3  A    between atoms: C_3  and  O_4
REMARK    4  A    between atoms: O_4  and  C_5
REMARK    5  A    between atoms: C_6  and  C_7
REMARK    6  A    between atoms: C_7  and  N_8
REMARK    7  A    between atoms: N_8  and  C_9
REMARK    8  A    between atoms: C_17  and  O_18
REMARK    9  A    between atoms: O_18  and  C_19
REMARK                            x       y       z     vdW  Elec       q    Type
REMARK                         _______ _______ _______ _____ _____    ______ ____
ROOT
ATOM      1  C   UNL     1       2.174   6.387  19.645  0.00  0.00    +0.000 A 
ATOM      2  C   UNL     1       2.725   6.211  18.349  0.00  0.00    +0.000 A 
ATOM      3  C   UNL     1       2.878   7.324  17.505  0.00  0.00    +0.000 A 
ATOM      4  C   UNL     1       2.461   8.584  17.902  0.00  0.00    +0.000 A 
ATOM      5  C   UNL     1       1.914   8.758  19.170  0.00  0.00    +0.000 A 
ATOM      6  C   UNL     1       1.790   7.681  20.063  0.00  0.00    +0.000 A 
ENDROOT
BRANCH   6   7
ATOM      7  O   UNL     1       1.292   7.859  21.331  0.00  0.00    +0.000 OA
ATOM      8  C   UNL     1       0.069   8.582  21.447  0.00  0.00    +0.000 C 
ENDBRANCH   6   7
BRANCH   1   9
ATOM      9  O   UNL     1       2.123   5.236  20.399  0.00  0.00    +0.000 OA
BRANCH   9  10
ATOM     10  C   UNL     1       0.878   4.536  20.489  0.00  0.00    +0.000 C 
BRANCH  10  12
ATOM     11  C   UNL     1       2.148   2.718  21.715  0.00  0.00    +0.000 C 
ATOM     12  C   UNL     1       1.186   3.040  20.583  0.00  0.00    +0.000 C 
ENDBRANCH  10  12
ENDBRANCH   9  10
ENDBRANCH   1   9
BRANCH   2  13
ATOM     13  C   UNL     1       3.163   4.860  17.810  0.00  0.00    +0.000 C 
BRANCH  13  14
ATOM     14  N   UNL     1       4.010   4.061  18.704  0.00  0.00    +0.000 NA
ATOM     15  H   UNL     1       3.748   3.084  18.539  0.00  0.00    +0.000 HD
BRANCH  14  16
ATOM     16  C   UNL     1       5.454   4.201  18.476  0.00  0.00    +0.000 C 
ATOM     17  C   UNL     1       5.874   4.517  17.038  0.00  0.00    +0.000 C 
ATOM     18  C   UNL     1       7.389   4.681  17.098  0.00  0.00    +0.000 C 
ATOM     19  S   UNL     1       7.688   5.643  18.609  0.00  0.00    +0.000 S 
ATOM     20  C   UNL     1       6.022   5.371  19.295  0.00  0.00    +0.000 C 
ENDBRANCH  14  16
ENDBRANCH  13  14
ENDBRANCH   2  13
TORSDOF 7
ENDMDL
MODEL 6
REMARK VINA RESULT:      -6.2      4.539      6.328
REMARK  Name = 
REMARK  9 active torsions:
REMARK  status: ('A' for Active; 'I' for Inactive)
REMARK    1  A    between atoms: C_1  and  C_2
REMARK    2  A    between atoms: C_2  and  C_3
REMARK    3  A    between atoms: C_3  and  O_4
REMARK    4  A    between atoms: O_4  and  C_5
REMARK    5  A    between atoms: C_6  and  C_7
REMARK    6  A    between atoms: C_7  and  N_8
REMARK    7  A    between atoms: N_8  and  C_9
REMARK    8  A    between atoms: C_17  and  O_18
REMARK    9  A    between atoms: O_18  and  C_19
REMARK                            x       y       z     vdW  Elec       q    Type
REMARK                         _______ _______ _______ _____ _____    ______ ____
ROOT
ATOM      1  C   UNL     1       2.753   4.979  18.021  0.00  0.00    +0.000 A 
ATOM      2  C   UNL     1       3.282   6.280  17.815  0.00  0.00    +0.000 A 
ATOM      3  C   UNL     1       4.402   6.448  16.982  0.00  0.00    +0.000 A 
ATOM      4  C   UNL     1       5.023   5.359  16.393  0.00  0.00    +0.000 A 
ATOM      5  C   UNL     1       4.511   4.082  16.599  0.00  0.00    +0.000 A 
ATOM      6  C   UNL     1       3.364   3.875  17.383  0.00  0.00    +0.000 A 
ENDROOT
BRANCH   6   7
ATOM      7  O   UNL     1       2.830   2.621  17.552  0.00  0.00    +0.000 OA
ATOM      8  C   UNL     1       3.548   1.723  18.395  0.00  0.00    +0.000 C 
ENDBRANCH   6   7
BRANCH   1   9
ATOM      9  O   UNL     1       1.626   4.946  18.811  0.00  0.00    +0.000 OA
BRANCH   9  10
ATOM     10  C   UNL     1       1.780   4.663  20.206  0.00  0.00    +0.000 C 
BRANCH  10  12
ATOM     11  C   UNL     1       1.606   2.580  21.638  0.00  0.00    +0.000 C 
ATOM     12  C   UNL     1       0.980   3.396  20.519  0.00  0.00    +0.000 C 
ENDBRANCH  10  12
ENDBRANCH   9  10
ENDBRANCH   1   9
BRANCH   2  13
ATOM     13  C   UNL     1       2.698   7.525  18.460  0.00  0.00    +0.000 C 
BRANCH  13  14
ATOM     14  N   UNL     1       2.567   8.695  17.583  0.00  0.00    +0.000 NA
ATOM     15  H   UNL     1       2.298   8.329  16.665  0.00  0.00    +0.000 HD
BRANCH  14  16
ATOM     16  C   UNL     1       1.558   9.675  18.006  0.00  0.00    +0.000 C 
ATOM     17  C   UNL     1       0.970   9.464  19.405  0.00  0.00    +0.000 C 
ATOM     18  C   UNL     1       0.025  10.642  19.614  0.00  0.00    +0.000 C 
ATOM     19  S   UNL     1       0.926  12.078  18.964  0.00  0.00    +0.000 S 
ATOM     20  C   UNL     1       2.165  11.087  18.068  0.00  0.00    +0.000 C 
ENDBRANCH  14  16
ENDBRANCH  13  14
ENDBRANCH   2  13
TORSDOF 7
ENDMDL
MODEL 7
REMARK VINA RESULT:      -6.2      2.196      3.040
REMARK  Name = 
REMARK  9 active torsions:
REMARK  status: ('A' for Active; 'I' for Inactive)
REMARK    1  A    between atoms: C_1  and  C_2
REMARK    2  A    between atoms: C_2  and  C_3
REMARK    3  A    between atoms: C_3  and  O_4
REMARK    4  A    between atoms: O_4  and  C_5
REMARK    5  A    between atoms: C_6  and  C_7
REMARK    6  A    between atoms: C_7  and  N_8
REMARK    7  A    between atoms: N_8  and  C_9
REMARK    8  A    between atoms: C_17  and  O_18
REMARK    9  A    between atoms: O_18  and  C_19
REMARK                            x       y       z     vdW  Elec       q    Type
REMARK                         _______ _______ _______ _____ _____    ______ ____
ROOT
ATOM      1  C   UNL     1       5.246   5.680  16.912  0.00  0.00    +0.000 A 
ATOM      2  C   UNL     1       4.749   4.420  16.488  0.00  0.00    +0.000 A 
ATOM      3  C   UNL     1       5.516   3.633  15.612  0.00  0.00    +0.000 A 
ATOM      4  C   UNL     1       6.731   4.086  15.123  0.00  0.00    +0.000 A 
ATOM      5  C   UNL     1       7.216   5.324  15.531  0.00  0.00    +0.000 A 
ATOM      6  C   UNL     1       6.505   6.120  16.444  0.00  0.00    +0.000 A 
ENDROOT
BRANCH   6   7
ATOM      7  O   UNL     1       7.004   7.322  16.884  0.00  0.00    +0.000 OA
ATOM      8  C   UNL     1       7.803   7.294  18.065  0.00  0.00    +0.000 C 
ENDBRANCH   6   7
BRANCH   1   9
ATOM      9  O   UNL     1       4.433   6.336  17.809  0.00  0.00    +0.000 OA
BRANCH   9  10
ATOM     10  C   UNL     1       3.716   7.490  17.361  0.00  0.00    +0.000 C 
BRANCH  10  12
ATOM     11  C   UNL     1       1.697   8.912  17.929  0.00  0.00    +0.000 C 
ATOM     12  C   UNL     1       2.474   7.644  18.243  0.00  0.00    +0.000 C 
ENDBRANCH  10  12
ENDBRANCH   9  10
ENDBRANCH   1   9
BRANCH   2  13
ATOM     13  C   UNL     1       3.407   3.866  16.932  0.00  0.00    +0.000 C 
BRANCH  13  14
ATOM     14  N   UNL     1       3.455   2.855  17.996  0.00  0.00    +0.000 NA
ATOM     15  H   UNL     1       4.443   2.603  18.099  0.00  0.00    +0.000 HD
BRANCH  14  16
ATOM     16  C   UNL     1       2.951   3.305  19.300  0.00  0.00    +0.000 C 
ATOM     17  C   UNL     1       1.764   4.272  19.259  0.00  0.00    +0.000 C 
ATOM     18  C   UNL     1       1.403   4.512  20.720  0.00  0.00    +0.000 C 
ATOM     19  S   UNL     1       1.510   2.874  21.497  0.00  0.00    +0.000 S 
ATOM     20  C   UNL     1       2.432   2.114  20.122  0.00  0.00    +0.000 C 
ENDBRANCH  14  16
ENDBRANCH  13  14
ENDBRANCH   2  13
TORSDOF 7
ENDMDL
MODEL 8
REMARK VINA RESULT:      -6.2      2.057      2.943
REMARK  Name = 
REMARK  9 active torsions:
REMARK  status: ('A' for Active; 'I' for Inactive)
REMARK    1  A    between atoms: C_1  and  C_2
REMARK    2  A    between atoms: C_2  and  C_3
REMARK    3  A    between atoms: C_3  and  O_4
REMARK    4  A    between atoms: O_4  and  C_5
REMARK    5  A    between atoms: C_6  and  C_7
REMARK    6  A    between atoms: C_7  and  N_8
REMARK    7  A    between atoms: N_8  and  C_9
REMARK    8  A    between atoms: C_17  and  O_18
REMARK    9  A    between atoms: O_18  and  C_19
REMARK                            x       y       z     vdW  Elec       q    Type
REMARK                         _______ _______ _______ _____ _____    ______ ____
ROOT
ATOM      1  C   UNL     1       5.153   5.366  17.102  0.00  0.00    +0.000 A 
ATOM      2  C   UNL     1       4.892   4.068  16.592  0.00  0.00    +0.000 A 
ATOM      3  C   UNL     1       5.663   3.575  15.524  0.00  0.00    +0.000 A 
ATOM      4  C   UNL     1       6.646   4.354  14.935  0.00  0.00    +0.000 A 
ATOM      5  C   UNL     1       6.899   5.630  15.429  0.00  0.00    +0.000 A 
ATOM      6  C   UNL     1       6.185   6.141  16.526  0.00  0.00    +0.000 A 
ENDROOT
BRANCH   6   7
ATOM      7  O   UNL     1       6.464   7.382  17.044  0.00  0.00    +0.000 OA
ATOM      8  C   UNL     1       7.719   7.537  17.704  0.00  0.00    +0.000 C 
ENDBRANCH   6   7
BRANCH   1   9
ATOM      9  O   UNL     1       4.372   5.717  18.180  0.00  0.00    +0.000 OA
BRANCH   9  10
ATOM     10  C   UNL     1       3.072   6.262  17.929  0.00  0.00    +0.000 C 
BRANCH  10  12
ATOM     11  C   UNL     1       1.883   8.500  17.886  0.00  0.00    +0.000 C 
ATOM     12  C   UNL     1       3.218   7.779  17.788  0.00  0.00    +0.000 C 
ENDBRANCH  10  12
ENDBRANCH   9  10
ENDBRANCH   1   9
BRANCH   2  13
ATOM     13  C   UNL     1       3.802   3.164  17.141  0.00  0.00    +0.000 C 
BRANCH  13  14
ATOM     14  N   UNL     1       4.154   2.398  18.344  0.00  0.00    +0.000 NA
ATOM     15  H   UNL     1       5.007   2.831  18.711  0.00  0.00    +0.000 HD
BRANCH  14  16
ATOM     16  C   UNL     1       3.136   2.406  19.402  0.00  0.00    +0.000 C 
ATOM     17  C   UNL     1       3.417   3.330  20.590  0.00  0.00    +0.000 C 
ATOM     18  C   UNL     1       2.189   3.204  21.485  0.00  0.00    +0.000 C 
ATOM     19  S   UNL     1       0.780   3.219  20.339  0.00  0.00    +0.000 S 
ATOM     20  C   UNL     1       1.788   2.904  18.854  0.00  0.00    +0.000 C 
ENDBRANCH  14  16
ENDBRANCH  13  14
ENDBRANCH   2  13
TORSDOF 7
ENDMDL
MODEL 9
REMARK VINA RESULT:      -6.1      4.143      5.955
REMARK  Name = 
REMARK  9 active torsions:
REMARK  status: ('A' for Active; 'I' for Inactive)
REMARK    1  A    between atoms: C_1  and  C_2
REMARK    2  A    between atoms: C_2  and  C_3
REMARK    3  A    between atoms: C_3  and  O_4
REMARK    4  A    between atoms: O_4  and  C_5
REMARK    5  A    between atoms: C_6  and  C_7
REMARK    6  A    between atoms: C_7  and  N_8
REMARK    7  A    between atoms: N_8  and  C_9
REMARK    8  A    between atoms: C_17  and  O_18
REMARK    9  A    between atoms: O_18  and  C_19
REMARK                            x       y       z     vdW  Elec       q    Type
REMARK                         _______ _______ _______ _____ _____    ______ ____
ROOT
ATOM      1  C   UNL     1       2.613   4.705  18.389  0.00  0.00    +0.000 A 
ATOM      2  C   UNL     1       2.304   5.695  19.358  0.00  0.00    +0.000 A 
ATOM      3  C   UNL     1       1.555   5.342  20.495  0.00  0.00    +0.000 A 
ATOM      4  C   UNL     1       1.079   4.052  20.663  0.00  0.00    +0.000 A 
ATOM      5  C   UNL     1       1.375   3.082  19.712  0.00  0.00    +0.000 A 
ATOM      6  C   UNL     1       2.161   3.380  18.587  0.00  0.00    +0.000 A 
ENDROOT
BRANCH   6   7
ATOM      7  O   UNL     1       2.492   2.412  17.670  0.00  0.00    +0.000 OA
ATOM      8  C   UNL     1       3.535   1.511  18.034  0.00  0.00    +0.000 C 
ENDBRANCH   6   7
BRANCH   1   9
ATOM      9  O   UNL     1       3.394   5.155  17.349  0.00  0.00    +0.000 OA
BRANCH   9  10
ATOM     10  C   UNL     1       4.809   4.950  17.423  0.00  0.00    +0.000 C 
BRANCH  10  12
ATOM     11  C   UNL     1       5.488   4.385  15.048  0.00  0.00    +0.000 C 
ATOM     12  C   UNL     1       5.426   5.461  16.119  0.00  0.00    +0.000 C 
ENDBRANCH  10  12
ENDBRANCH   9  10
ENDBRANCH   1   9
BRANCH   2  13
ATOM     13  C   UNL     1       2.740   7.144  19.231  0.00  0.00    +0.000 C 
BRANCH  13  14
ATOM     14  N   UNL     1       2.192   7.877  18.082  0.00  0.00    +0.000 NA
ATOM     15  H   UNL     1       1.617   7.202  17.569  0.00  0.00    +0.000 HD
BRANCH  14  16
ATOM     16  C   UNL     1       1.356   9.034  18.428  0.00  0.00    +0.000 C 
ATOM     17  C   UNL     1       1.037   9.204  19.916  0.00  0.00    +0.000 C 
ATOM     18  C   UNL     1       0.236  10.499  20.000  0.00  0.00    +0.000 C 
ATOM     19  S   UNL     1       1.093  11.644  18.881  0.00  0.00    +0.000 S 
ATOM     20  C   UNL     1       2.061  10.346  18.047  0.00  0.00    +0.000 C 
ENDBRANCH  14  16
ENDBRANCH  13  14
ENDBRANCH   2  13
TORSDOF 7
ENDMDL
