MODEL 1
REMARK VINA RESULT:      -8.1      0.000      0.000
REMARK  Name = 
REMARK  7 active torsions:
REMARK  status: ('A' for Active; 'I' for Inactive)
REMARK    1  A    between atoms: C_1  and  O_2
REMARK    2  A    between atoms: O_2  and  C_3
REMARK    3  A    between atoms: C_6  and  C_7
REMARK    4  A    between atoms: N_9  and  C_10
REMARK    5  A    between atoms: C_15  and  C_16
REMARK    6  A    between atoms: C_16  and  C_17
REMARK    7  A    between atoms: N_24  and  C_25
REMARK                            x       y       z     vdW  Elec       q    Type
REMARK                         _______ _______ _______ _____ _____    ______ ____
ROOT
ATOM      1  C   UNL     1       2.384   7.152  19.134  0.00  0.00    +0.000 A 
ATOM      2  C   UNL     1       1.979   6.412  20.248  0.00  0.00    +0.000 A 
ATOM      3  C   UNL     1       1.135   6.969  21.198  0.00  0.00    +0.000 A 
ATOM      4  C   UNL     1       0.704   8.278  21.051  0.00  0.00    +0.000 A 
ATOM      5  F   UNL     1      -0.180   8.729  21.950  0.00  0.00    +0.000 F 
ATOM      6  C   UNL     1       1.145   9.096  19.998  0.00  0.00    +0.000 A 
ATOM      7  C   UNL     1       1.989   8.498  19.030  0.00  0.00    +0.000 A 
ENDROOT
BRANCH   6   8
ATOM      8  C   UNL     1       0.654  10.553  19.868  0.00  0.00    +0.000 C 
ATOM      9  C   UNL     1      -0.869  10.612  19.591  0.00  0.00    +0.000 C 
ATOM     10  C   UNL     1       1.491  11.206  18.784  0.00  0.00    +0.000 C 
ATOM     11  S   UNL     1       1.163  12.923  18.603  0.00  0.00    +0.000 S 
ATOM     12  O   UNL     1      -0.170  13.063  18.044  0.00  0.00    +0.000 OA
ATOM     13  O   UNL     1       2.289  13.419  17.824  0.00  0.00    +0.000 OA
ATOM     14  C   UNL     1       1.187  13.597  20.283  0.00  0.00    +0.000 C 
ATOM     15  C   UNL     1       0.715  15.079  20.329  0.00  0.00    +0.000 C 
ATOM     16  N   UNL     1       2.111  15.541  20.435  0.00  0.00    +0.000 NA
ATOM     17  C   UNL     1       2.592  16.044  19.142  0.00  0.00    +0.000 C 
ATOM     18  C   UNL     1       2.561  14.163  20.701  0.00  0.00    +0.000 C 
ATOM     19  C   UNL     1       0.551  12.573  21.276  0.00  0.00    +0.000 C 
ATOM     20  N   UNL     1      -0.265  12.846  22.242  0.00  0.00    +0.000 NA
ATOM     21  N   UNL     1       0.898  11.258  21.135  0.00  0.00    +0.000 N 
ATOM     22  H   UNL     1      -0.496  13.841  22.306  0.00  0.00    +0.000 HD
ATOM     23  H   UNL     1       0.455  10.746  21.903  0.00  0.00    +0.000 HD
ENDBRANCH   6   8
BRANCH   1  26
ATOM     24  C   UNL     1       4.304   5.831  18.268  0.00  0.00    +0.000 C 
ATOM     25  O   UNL     1       4.816   5.507  19.331  0.00  0.00    +0.000 OA
ATOM     26  N   UNL     1       3.156   6.592  18.100  0.00  0.00    +0.000 N 
ATOM     27  H   UNL     1       2.821   6.654  17.140  0.00  0.00    +0.000 HD
BRANCH  24  31
ATOM     28  C   UNL     1       6.050   4.460  14.659  0.00  0.00    +0.000 A 
ATOM     29  C   UNL     1       5.717   5.803  14.784  0.00  0.00    +0.000 A 
ATOM     30  C   UNL     1       5.143   6.261  15.967  0.00  0.00    +0.000 A 
ATOM     31  C   UNL     1       4.922   5.344  16.995  0.00  0.00    +0.000 A 
ATOM     32  N   UNL     1       5.239   4.026  16.921  0.00  0.00    +0.000 NA
ATOM     33  C   UNL     1       5.788   3.623  15.743  0.00  0.00    +0.000 A 
BRANCH  28  35
ATOM     34  C   UNL     1       5.722   3.403  12.560  0.00  0.00    +0.000 C 
ATOM     35  O   UNL     1       6.618   3.875  13.562  0.00  0.00    +0.000 OA
ENDBRANCH  28  35
ENDBRANCH  24  31
ENDBRANCH   1  26
TORSDOF 4
ENDMDL
MODEL 2
REMARK VINA RESULT:      -7.8      1.773      2.320
REMARK  Name = 
REMARK  7 active torsions:
REMARK  status: ('A' for Active; 'I' for Inactive)
REMARK    1  A    between atoms: C_1  and  O_2
REMARK    2  A    between atoms: O_2  and  C_3
REMARK    3  A    between atoms: C_6  and  C_7
REMARK    4  A    between atoms: N_9  and  C_10
REMARK    5  A    between atoms: C_15  and  C_16
REMARK    6  A    between atoms: C_16  and  C_17
REMARK    7  A    between atoms: N_24  and  C_25
REMARK                            x       y       z     vdW  Elec       q    Type
REMARK                         _______ _______ _______ _____ _____    ______ ____
ROOT
ATOM      1  C   UNL     1       2.414   7.454  18.949  0.00  0.00    +0.000 A 
ATOM      2  C   UNL     1       1.891   6.793  20.063  0.00  0.00    +0.000 A 
ATOM      3  C   UNL     1       1.069   7.460  20.961  0.00  0.00    +0.000 A 
ATOM      4  C   UNL     1       0.779   8.801  20.761  0.00  0.00    +0.000 A 
ATOM      5  F   UNL     1      -0.091   9.365  21.607  0.00  0.00    +0.000 F 
ATOM      6  C   UNL     1       1.344   9.538  19.707  0.00  0.00    +0.000 A 
ATOM      7  C   UNL     1       2.162   8.830  18.793  0.00  0.00    +0.000 A 
ENDROOT
BRANCH   6   8
ATOM      8  C   UNL     1       1.009  11.032  19.518  0.00  0.00    +0.000 C 
ATOM      9  C   UNL     1       1.891  11.671  18.416  0.00  0.00    +0.000 C 
ATOM     10  C   UNL     1       1.162  11.695  20.875  0.00  0.00    +0.000 C 
ATOM     11  S   UNL     1       0.674  13.383  20.873  0.00  0.00    +0.000 S 
ATOM     12  O   UNL     1       1.649  14.125  20.093  0.00  0.00    +0.000 OA
ATOM     13  O   UNL     1       0.533  13.711  22.285  0.00  0.00    +0.000 OA
ATOM     14  C   UNL     1      -0.928  13.421  20.033  0.00  0.00    +0.000 C 
ATOM     15  C   UNL     1      -1.418  14.873  19.765  0.00  0.00    +0.000 C 
ATOM     16  N   UNL     1      -2.346  14.793  20.908  0.00  0.00    +0.000 NA
ATOM     17  C   UNL     1      -1.802  15.506  22.070  0.00  0.00    +0.000 C 
ATOM     18  C   UNL     1      -2.132  13.337  20.996  0.00  0.00    +0.000 C 
ATOM     19  C   UNL     1      -0.935  12.394  18.856  0.00  0.00    +0.000 C 
ATOM     20  N   UNL     1      -1.426  12.584  17.675  0.00  0.00    +0.000 NA
ATOM     21  N   UNL     1      -0.392  11.161  19.090  0.00  0.00    +0.000 N 
ATOM     22  H   UNL     1      -1.819  13.520  17.547  0.00  0.00    +0.000 HD
ATOM     23  H   UNL     1      -0.546  10.599  18.249  0.00  0.00    +0.000 HD
ENDBRANCH   6   8
BRANCH   1  26
ATOM     24  C   UNL     1       4.247   5.949  18.202  0.00  0.00    +0.000 C 
ATOM     25  O   UNL     1       4.703   5.635  19.294  0.00  0.00    +0.000 OA
ATOM     26  N   UNL     1       3.168   6.789  17.966  0.00  0.00    +0.000 N 
ATOM     27  H   UNL     1       2.865   6.832  16.994  0.00  0.00    +0.000 HD
BRANCH  24  31
ATOM     28  C   UNL     1       5.978   4.281  14.713  0.00  0.00    +0.000 A 
ATOM     29  C   UNL     1       5.719   5.646  14.756  0.00  0.00    +0.000 A 
ATOM     30  C   UNL     1       5.150   6.201  15.899  0.00  0.00    +0.000 A 
ATOM     31  C   UNL     1       4.859   5.358  16.971  0.00  0.00    +0.000 A 
ATOM     32  N   UNL     1       5.103   4.021  16.977  0.00  0.00    +0.000 NA
ATOM     33  C   UNL     1       5.649   3.523  15.836  0.00  0.00    +0.000 A 
BRANCH  28  35
ATOM     34  C   UNL     1       5.704   3.427  12.516  0.00  0.00    +0.000 C 
ATOM     35  O   UNL     1       6.530   3.604  13.662  0.00  0.00    +0.000 OA
ENDBRANCH  28  35
ENDBRANCH  24  31
ENDBRANCH   1  26
TORSDOF 4
ENDMDL
MODEL 3
REMARK VINA RESULT:      -7.7      2.963      4.458
REMARK  Name = 
REMARK  7 active torsions:
REMARK  status: ('A' for Active; 'I' for Inactive)
REMARK    1  A    between atoms: C_1  and  O_2
REMARK    2  A    between atoms: O_2  and  C_3
REMARK    3  A    between atoms: C_6  and  C_7
REMARK    4  A    between atoms: N_9  and  C_10
REMARK    5  A    between atoms: C_15  and  C_16
REMARK    6  A    between atoms: C_16  and  C_17
REMARK    7  A    between atoms: N_24  and  C_25
REMARK                            x       y       z     vdW  Elec       q    Type
REMARK                         _______ _______ _______ _____ _____    ______ ____
ROOT
ATOM      1  C   UNL     1       0.748  10.228  19.143  0.00  0.00    +0.000 A 
ATOM      2  C   UNL     1      -0.515  10.367  18.564  0.00  0.00    +0.000 A 
ATOM      3  C   UNL     1      -1.083  11.623  18.399  0.00  0.00    +0.000 A 
ATOM      4  C   UNL     1      -0.400  12.749  18.831  0.00  0.00    +0.000 A 
ATOM      5  F   UNL     1      -0.956  13.936  18.562  0.00  0.00    +0.000 F 
ATOM      6  C   UNL     1       0.834  12.663  19.497  0.00  0.00    +0.000 A 
ATOM      7  C   UNL     1       1.403  11.373  19.634  0.00  0.00    +0.000 A 
ENDROOT
BRANCH   6   8
ATOM      8  C   UNL     1       1.566  13.935  19.975  0.00  0.00    +0.000 C 
ATOM      9  C   UNL     1       0.656  14.800  20.882  0.00  0.00    +0.000 C 
ATOM     10  C   UNL     1       2.047  14.661  18.732  0.00  0.00    +0.000 C 
ATOM     11  S   UNL     1       3.034  16.068  19.098  0.00  0.00    +0.000 S 
ATOM     12  O   UNL     1       2.171  17.075  19.689  0.00  0.00    +0.000 OA
ATOM     13  O   UNL     1       3.687  16.381  17.834  0.00  0.00    +0.000 OA
ATOM     14  C   UNL     1       4.236  15.505  20.329  0.00  0.00    +0.000 C 
ATOM     15  C   UNL     1       5.069  16.680  20.917  0.00  0.00    +0.000 C 
ATOM     16  N   UNL     1       6.215  16.323  20.061  0.00  0.00    +0.000 NA
ATOM     17  C   UNL     1       6.304  17.227  18.908  0.00  0.00    +0.000 C 
ATOM     18  C   UNL     1       5.575  15.040  19.717  0.00  0.00    +0.000 C 
ATOM     19  C   UNL     1       3.559  14.497  21.310  0.00  0.00    +0.000 C 
ATOM     20  N   UNL     1       3.711  14.455  22.594  0.00  0.00    +0.000 NA
ATOM     21  N   UNL     1       2.739  13.545  20.771  0.00  0.00    +0.000 N 
ATOM     22  H   UNL     1       4.332  15.186  22.950  0.00  0.00    +0.000 HD
ATOM     23  H   UNL     1       2.444  12.932  21.536  0.00  0.00    +0.000 HD
ENDBRANCH   6   8
BRANCH   1  26
ATOM     24  C   UNL     1       2.188   8.407  18.252  0.00  0.00    +0.000 C 
ATOM     25  O   UNL     1       2.463   8.888  17.161  0.00  0.00    +0.000 OA
ATOM     26  N   UNL     1       1.399   8.985  19.237  0.00  0.00    +0.000 N 
ATOM     27  H   UNL     1       1.386   8.483  20.123  0.00  0.00    +0.000 HD
BRANCH  24  31
ATOM     28  C   UNL     1       3.850   4.655  19.305  0.00  0.00    +0.000 A 
ATOM     29  C   UNL     1       2.830   5.188  20.084  0.00  0.00    +0.000 A 
ATOM     30  C   UNL     1       2.280   6.421  19.744  0.00  0.00    +0.000 A 
ATOM     31  C   UNL     1       2.776   7.081  18.621  0.00  0.00    +0.000 A 
ATOM     32  N   UNL     1       3.764   6.595  17.826  0.00  0.00    +0.000 NA
ATOM     33  C   UNL     1       4.278   5.393  18.203  0.00  0.00    +0.000 A 
BRANCH  28  35
ATOM     34  C   UNL     1       3.749   2.480  20.250  0.00  0.00    +0.000 C 
ATOM     35  O   UNL     1       4.479   3.461  19.519  0.00  0.00    +0.000 OA
ENDBRANCH  28  35
ENDBRANCH  24  31
ENDBRANCH   1  26
TORSDOF 4
ENDMDL
MODEL 4
REMARK VINA RESULT:      -7.7      2.013      2.674
REMARK  Name = 
REMARK  7 active torsions:
REMARK  status: ('A' for Active; 'I' for Inactive)
REMARK    1  A    between atoms: C_1  and  O_2
REMARK    2  A    between atoms: O_2  and  C_3
REMARK    3  A    between atoms: C_6  and  C_7
REMARK    4  A    between atoms: N_9  and  C_10
REMARK    5  A    between atoms: C_15  and  C_16
REMARK    6  A    between atoms: C_16  and  C_17
REMARK    7  A    between atoms: N_24  and  C_25
REMARK                            x       y       z     vdW  Elec       q    Type
REMARK                         _______ _______ _______ _____ _____    ______ ____
ROOT
ATOM      1  C   UNL     1       2.292   7.367  19.203  0.00  0.00    +0.000 A 
ATOM      2  C   UNL     1       1.895   6.640  20.328  0.00  0.00    +0.000 A 
ATOM      3  C   UNL     1       1.038   7.201  21.266  0.00  0.00    +0.000 A 
ATOM      4  C   UNL     1       0.587   8.500  21.094  0.00  0.00    +0.000 A 
ATOM      5  F   UNL     1      -0.308   8.952  21.981  0.00  0.00    +0.000 F 
ATOM      6  C   UNL     1       1.020   9.306  20.028  0.00  0.00    +0.000 A 
ATOM      7  C   UNL     1       1.877   8.705  19.074  0.00  0.00    +0.000 A 
ENDROOT
BRANCH   6   8
ATOM      8  C   UNL     1       0.507  10.753  19.871  0.00  0.00    +0.000 C 
ATOM      9  C   UNL     1       1.151  11.448  18.646  0.00  0.00    +0.000 C 
ATOM     10  C   UNL     1       0.781  11.464  21.184  0.00  0.00    +0.000 C 
ATOM     11  S   UNL     1       0.124  13.093  21.232  0.00  0.00    +0.000 S 
ATOM     12  O   UNL     1       0.894  13.909  20.310  0.00  0.00    +0.000 OA
ATOM     13  O   UNL     1       0.151  13.444  22.645  0.00  0.00    +0.000 OA
ATOM     14  C   UNL     1      -1.576  12.945  20.631  0.00  0.00    +0.000 C 
ATOM     15  C   UNL     1      -2.249  14.331  20.419  0.00  0.00    +0.000 C 
ATOM     16  N   UNL     1      -2.991  14.188  21.684  0.00  0.00    +0.000 NA
ATOM     17  C   UNL     1      -2.366  14.984  22.747  0.00  0.00    +0.000 C 
ATOM     18  C   UNL     1      -2.616  12.765  21.759  0.00  0.00    +0.000 C 
ATOM     19  C   UNL     1      -1.644  11.891  19.481  0.00  0.00    +0.000 C 
ATOM     20  N   UNL     1      -2.315  11.998  18.380  0.00  0.00    +0.000 NA
ATOM     21  N   UNL     1      -0.946  10.726  19.649  0.00  0.00    +0.000 N 
ATOM     22  H   UNL     1      -2.818  12.885  18.299  0.00  0.00    +0.000 HD
ATOM     23  H   UNL     1      -1.159  10.129  18.845  0.00  0.00    +0.000 HD
ENDBRANCH   6   8
BRANCH   1  26
ATOM     24  C   UNL     1       4.184   5.985  18.369  0.00  0.00    +0.000 C 
ATOM     25  O   UNL     1       4.641   5.608  19.440  0.00  0.00    +0.000 OA
ATOM     26  N   UNL     1       3.078   6.801  18.182  0.00  0.00    +0.000 N 
ATOM     27  H   UNL     1       2.782   6.905  17.213  0.00  0.00    +0.000 HD
BRANCH  24  31
ATOM     28  C   UNL     1       6.006   4.620  14.796  0.00  0.00    +0.000 A 
ATOM     29  C   UNL     1       5.579   3.691  15.738  0.00  0.00    +0.000 A 
ATOM     30  C   UNL     1       4.980   4.133  16.914  0.00  0.00    +0.000 A 
ATOM     31  C   UNL     1       4.827   5.505  17.106  0.00  0.00    +0.000 A 
ATOM     32  N   UNL     1       5.221   6.448  16.211  0.00  0.00    +0.000 NA
ATOM     33  C   UNL     1       5.810   5.970  15.081  0.00  0.00    +0.000 A 
BRANCH  28  35
ATOM     34  C   UNL     1       5.919   3.421  12.750  0.00  0.00    +0.000 C 
ATOM     35  O   UNL     1       6.607   4.331  13.603  0.00  0.00    +0.000 OA
ENDBRANCH  28  35
ENDBRANCH  24  31
ENDBRANCH   1  26
TORSDOF 4
ENDMDL
MODEL 5
REMARK VINA RESULT:      -7.6      3.348      4.889
REMARK  Name = 
REMARK  7 active torsions:
REMARK  status: ('A' for Active; 'I' for Inactive)
REMARK    1  A    between atoms: C_1  and  O_2
REMARK    2  A    between atoms: O_2  and  C_3
REMARK    3  A    between atoms: C_6  and  C_7
REMARK    4  A    between atoms: N_9  and  C_10
REMARK    5  A    between atoms: C_15  and  C_16
REMARK    6  A    between atoms: C_16  and  C_17
REMARK    7  A    between atoms: N_24  and  C_25
REMARK                            x       y       z     vdW  Elec       q    Type
REMARK                         _______ _______ _______ _____ _____    ______ ____
ROOT
ATOM      1  C   UNL     1       0.595  10.797  19.188  0.00  0.00    +0.000 A 
ATOM      2  C   UNL     1      -0.577  11.080  18.481  0.00  0.00    +0.000 A 
ATOM      3  C   UNL     1      -0.976  12.392  18.268  0.00  0.00    +0.000 A 
ATOM      4  C   UNL     1      -0.216  13.432  18.779  0.00  0.00    +0.000 A 
ATOM      5  F   UNL     1      -0.601  14.675  18.464  0.00  0.00    +0.000 F 
ATOM      6  C   UNL     1       0.923  13.207  19.568  0.00  0.00    +0.000 A 
ATOM      7  C   UNL     1       1.322  11.861  19.753  0.00  0.00    +0.000 A 
ENDROOT
BRANCH   6   8
ATOM      8  C   UNL     1       1.743  14.388  20.131  0.00  0.00    +0.000 C 
ATOM      9  C   UNL     1       0.896  15.251  21.099  0.00  0.00    +0.000 C 
ATOM     10  C   UNL     1       2.276  15.163  18.940  0.00  0.00    +0.000 C 
ATOM     11  S   UNL     1       3.361  16.467  19.399  0.00  0.00    +0.000 S 
ATOM     12  O   UNL     1       2.570  17.489  20.061  0.00  0.00    +0.000 OA
ATOM     13  O   UNL     1       4.036  16.819  18.157  0.00  0.00    +0.000 OA
ATOM     14  C   UNL     1       4.517  15.737  20.584  0.00  0.00    +0.000 C 
ATOM     15  C   UNL     1       5.431  16.805  21.249  0.00  0.00    +0.000 C 
ATOM     16  N   UNL     1       6.550  16.428  20.366  0.00  0.00    +0.000 NA
ATOM     17  C   UNL     1       6.705  17.401  19.278  0.00  0.00    +0.000 C 
ATOM     18  C   UNL     1       5.821  15.221  19.935  0.00  0.00    +0.000 C 
ATOM     19  C   UNL     1       3.769  14.713  21.495  0.00  0.00    +0.000 C 
ATOM     20  N   UNL     1       3.916  14.572  22.772  0.00  0.00    +0.000 NA
ATOM     21  N   UNL     1       2.884  13.861  20.894  0.00  0.00    +0.000 N 
ATOM     22  H   UNL     1       4.587  15.231  23.176  0.00  0.00    +0.000 HD
ATOM     23  H   UNL     1       2.546  13.219  21.616  0.00  0.00    +0.000 HD
ENDBRANCH   6   8
BRANCH   1  26
ATOM     24  C   UNL     1       1.888   8.814  18.428  0.00  0.00    +0.000 C 
ATOM     25  O   UNL     1       2.315   9.250  17.368  0.00  0.00    +0.000 OA
ATOM     26  N   UNL     1       1.085   9.488  19.338  0.00  0.00    +0.000 N 
ATOM     27  H   UNL     1       0.933   8.998  20.218  0.00  0.00    +0.000 HD
BRANCH  24  31
ATOM     28  C   UNL     1       3.002   4.899  19.604  0.00  0.00    +0.000 A 
ATOM     29  C   UNL     1       3.352   5.353  18.338  0.00  0.00    +0.000 A 
ATOM     30  C   UNL     1       2.989   6.638  17.945  0.00  0.00    +0.000 A 
ATOM     31  C   UNL     1       2.281   7.432  18.846  0.00  0.00    +0.000 A 
ATOM     32  N   UNL     1       1.925   7.034  20.095  0.00  0.00    +0.000 NA
ATOM     33  C   UNL     1       2.292   5.768  20.431  0.00  0.00    +0.000 A 
BRANCH  28  35
ATOM     34  C   UNL     1       4.335   2.939  19.481  0.00  0.00    +0.000 C 
ATOM     35  O   UNL     1       3.291   3.668  20.121  0.00  0.00    +0.000 OA
ENDBRANCH  28  35
ENDBRANCH  24  31
ENDBRANCH   1  26
TORSDOF 4
ENDMDL
MODEL 6
REMARK VINA RESULT:      -7.6      2.681      3.923
REMARK  Name = 
REMARK  7 active torsions:
REMARK  status: ('A' for Active; 'I' for Inactive)
REMARK    1  A    between atoms: C_1  and  O_2
REMARK    2  A    between atoms: O_2  and  C_3
REMARK    3  A    between atoms: C_6  and  C_7
REMARK    4  A    between atoms: N_9  and  C_10
REMARK    5  A    between atoms: C_15  and  C_16
REMARK    6  A    between atoms: C_16  and  C_17
REMARK    7  A    between atoms: N_24  and  C_25
REMARK                            x       y       z     vdW  Elec       q    Type
REMARK                         _______ _______ _______ _____ _____    ______ ____
ROOT
ATOM      1  C   UNL     1       0.815   9.791  18.156  0.00  0.00    +0.000 A 
ATOM      2  C   UNL     1      -0.555   9.742  17.886  0.00  0.00    +0.000 A 
ATOM      3  C   UNL     1      -1.371  10.829  18.170  0.00  0.00    +0.000 A 
ATOM      4  C   UNL     1      -0.826  11.965  18.746  0.00  0.00    +0.000 A 
ATOM      5  F   UNL     1      -1.643  13.012  18.912  0.00  0.00    +0.000 F 
ATOM      6  C   UNL     1       0.527  12.039  19.117  0.00  0.00    +0.000 A 
ATOM      7  C   UNL     1       1.343  10.927  18.797  0.00  0.00    +0.000 A 
ENDROOT
BRANCH   6   8
ATOM      8  C   UNL     1       1.101  13.316  19.765  0.00  0.00    +0.000 C 
ATOM      9  C   UNL     1       2.650  13.310  19.744  0.00  0.00    +0.000 C 
ATOM     10  C   UNL     1       0.516  13.403  21.163  0.00  0.00    +0.000 C 
ATOM     11  S   UNL     1       0.954  14.886  21.999  0.00  0.00    +0.000 S 
ATOM     12  O   UNL     1       2.373  14.824  22.298  0.00  0.00    +0.000 OA
ATOM     13  O   UNL     1       0.020  14.952  23.115  0.00  0.00    +0.000 OA
ATOM     14  C   UNL     1       0.644  16.217  20.813  0.00  0.00    +0.000 C 
ATOM     15  C   UNL     1       1.167  17.591  21.320  0.00  0.00    +0.000 C 
ATOM     16  N   UNL     1      -0.200  17.998  21.692  0.00  0.00    +0.000 NA
ATOM     17  C   UNL     1      -0.404  17.873  23.141  0.00  0.00    +0.000 C 
ATOM     18  C   UNL     1      -0.757  16.852  20.950  0.00  0.00    +0.000 C 
ATOM     19  C   UNL     1       1.031  15.748  19.374  0.00  0.00    +0.000 C 
ATOM     20  N   UNL     1       1.661  16.443  18.484  0.00  0.00    +0.000 NA
ATOM     21  N   UNL     1       0.655  14.488  18.998  0.00  0.00    +0.000 N 
ATOM     22  H   UNL     1       1.922  17.377  18.812  0.00  0.00    +0.000 HD
ATOM     23  H   UNL     1       0.920  14.375  18.016  0.00  0.00    +0.000 HD
ENDBRANCH   6   8
BRANCH   1  26
ATOM     24  C   UNL     1       2.223   7.802  18.652  0.00  0.00    +0.000 C 
ATOM     25  O   UNL     1       2.005   7.700  19.852  0.00  0.00    +0.000 OA
ATOM     26  N   UNL     1       1.690   8.752  17.792  0.00  0.00    +0.000 N 
ATOM     27  H   UNL     1       1.897   8.599  16.806  0.00  0.00    +0.000 HD
BRANCH  24  31
ATOM     28  C   UNL     1       4.747   4.948  16.799  0.00  0.00    +0.000 A 
ATOM     29  C   UNL     1       3.623   4.512  17.491  0.00  0.00    +0.000 A 
ATOM     30  C   UNL     1       2.790   5.445  18.103  0.00  0.00    +0.000 A 
ATOM     31  C   UNL     1       3.116   6.796  17.996  0.00  0.00    +0.000 A 
ATOM     32  N   UNL     1       4.197   7.268  17.323  0.00  0.00    +0.000 NA
ATOM     33  C   UNL     1       4.988   6.320  16.751  0.00  0.00    +0.000 A 
BRANCH  28  35
ATOM     34  C   UNL     1       6.999   4.601  16.137  0.00  0.00    +0.000 C 
ATOM     35  O   UNL     1       5.648   4.149  16.154  0.00  0.00    +0.000 OA
ENDBRANCH  28  35
ENDBRANCH  24  31
ENDBRANCH   1  26
TORSDOF 4
ENDMDL
MODEL 7
REMARK VINA RESULT:      -7.6      2.384      3.486
REMARK  Name = 
REMARK  7 active torsions:
REMARK  status: ('A' for Active; 'I' for Inactive)
REMARK    1  A    between atoms: C_1  and  O_2
REMARK    2  A    between atoms: O_2  and  C_3
REMARK    3  A    between atoms: C_6  and  C_7
REMARK    4  A    between atoms: N_9  and  C_10
REMARK    5  A    between atoms: C_15  and  C_16
REMARK    6  A    between atoms: C_16  and  C_17
REMARK    7  A    between atoms: N_24  and  C_25
REMARK                            x       y       z     vdW  Elec       q    Type
REMARK                         _______ _______ _______ _____ _____    ______ ____
ROOT
ATOM      1  C   UNL     1       1.056   9.920  18.150  0.00  0.00    +0.000 A 
ATOM      2  C   UNL     1      -0.333   9.858  18.008  0.00  0.00    +0.000 A 
ATOM      3  C   UNL     1      -1.123  10.965  18.288  0.00  0.00    +0.000 A 
ATOM      4  C   UNL     1      -0.531  12.137  18.732  0.00  0.00    +0.000 A 
ATOM      5  F   UNL     1      -1.333  13.195  18.898  0.00  0.00    +0.000 F 
ATOM      6  C   UNL     1       0.850  12.231  18.974  0.00  0.00    +0.000 A 
ATOM      7  C   UNL     1       1.636  11.096  18.660  0.00  0.00    +0.000 A 
ENDROOT
BRANCH   6   8
ATOM      8  C   UNL     1       1.477  13.547  19.478  0.00  0.00    +0.000 C 
ATOM      9  C   UNL     1       0.446  14.399  20.260  0.00  0.00    +0.000 C 
ATOM     10  C   UNL     1       2.051  14.256  18.265  0.00  0.00    +0.000 C 
ATOM     11  S   UNL     1       2.939  15.715  18.678  0.00  0.00    +0.000 S 
ATOM     12  O   UNL     1       1.979  16.701  19.144  0.00  0.00    +0.000 OA
ATOM     13  O   UNL     1       3.702  16.017  17.475  0.00  0.00    +0.000 OA
ATOM     14  C   UNL     1       4.032  15.244  20.041  0.00  0.00    +0.000 C 
ATOM     15  C   UNL     1       4.753  16.471  20.668  0.00  0.00    +0.000 C 
ATOM     16  N   UNL     1       5.993  16.139  19.943  0.00  0.00    +0.000 NA
ATOM     17  C   UNL     1       6.161  17.010  18.774  0.00  0.00    +0.000 C 
ATOM     18  C   UNL     1       5.443  14.820  19.581  0.00  0.00    +0.000 C 
ATOM     19  C   UNL     1       3.301  14.237  20.985  0.00  0.00    +0.000 C 
ATOM     20  N   UNL     1       3.324  14.241  22.278  0.00  0.00    +0.000 NA
ATOM     21  N   UNL     1       2.578  13.234  20.400  0.00  0.00    +0.000 N 
ATOM     22  H   UNL     1       3.876  15.010  22.668  0.00  0.00    +0.000 HD
ATOM     23  H   UNL     1       2.234  12.632  21.153  0.00  0.00    +0.000 HD
ENDBRANCH   6   8
BRANCH   1  26
ATOM     24  C   UNL     1       2.304   7.819  18.611  0.00  0.00    +0.000 C 
ATOM     25  O   UNL     1       1.983   7.652  19.780  0.00  0.00    +0.000 OA
ATOM     26  N   UNL     1       1.897   8.855  17.781  0.00  0.00    +0.000 N 
ATOM     27  H   UNL     1       2.174   8.755  16.807  0.00  0.00    +0.000 HD
BRANCH  24  31
ATOM     28  C   UNL     1       4.812   4.955  16.752  0.00  0.00    +0.000 A 
ATOM     29  C   UNL     1       5.117   6.306  16.630  0.00  0.00    +0.000 A 
ATOM     30  C   UNL     1       4.297   7.252  17.238  0.00  0.00    +0.000 A 
ATOM     31  C   UNL     1       3.188   6.805  17.956  0.00  0.00    +0.000 A 
ATOM     32  N   UNL     1       2.856   5.498  18.109  0.00  0.00    +0.000 NA
ATOM     33  C   UNL     1       3.680   4.610  17.489  0.00  0.00    +0.000 A 
BRANCH  28  35
ATOM     34  C   UNL     1       6.247   4.205  15.017  0.00  0.00    +0.000 C 
ATOM     35  O   UNL     1       5.524   3.922  16.211  0.00  0.00    +0.000 OA
ENDBRANCH  28  35
ENDBRANCH  24  31
ENDBRANCH   1  26
TORSDOF 4
ENDMDL
MODEL 8
REMARK VINA RESULT:      -7.5      5.580      7.791
REMARK  Name = 
REMARK  7 active torsions:
REMARK  status: ('A' for Active; 'I' for Inactive)
REMARK    1  A    between atoms: C_1  and  O_2
REMARK    2  A    between atoms: O_2  and  C_3
REMARK    3  A    between atoms: C_6  and  C_7
REMARK    4  A    between atoms: N_9  and  C_10
REMARK    5  A    between atoms: C_15  and  C_16
REMARK    6  A    between atoms: C_16  and  C_17
REMARK    7  A    between atoms: N_24  and  C_25
REMARK                            x       y       z     vdW  Elec       q    Type
REMARK                         _______ _______ _______ _____ _____    ______ ____
ROOT
ATOM      1  C   UNL     1       4.168  15.158  18.014  0.00  0.00    +0.000 A 
ATOM      2  C   UNL     1       3.700  16.469  17.890  0.00  0.00    +0.000 A 
ATOM      3  C   UNL     1       2.374  16.776  18.163  0.00  0.00    +0.000 A 
ATOM      4  C   UNL     1       1.500  15.770  18.543  0.00  0.00    +0.000 A 
ATOM      5  F   UNL     1       0.259  16.141  18.881  0.00  0.00    +0.000 F 
ATOM      6  C   UNL     1       1.893  14.422  18.602  0.00  0.00    +0.000 A 
ATOM      7  C   UNL     1       3.255  14.138  18.339  0.00  0.00    +0.000 A 
ENDROOT
BRANCH   6   8
ATOM      8  C   UNL     1       0.893  13.324  19.019  0.00  0.00    +0.000 C 
ATOM      9  C   UNL     1      -0.408  13.400  18.182  0.00  0.00    +0.000 C 
ATOM     10  C   UNL     1       0.662  13.479  20.511  0.00  0.00    +0.000 C 
ATOM     11  S   UNL     1      -0.346  12.208  21.186  0.00  0.00    +0.000 S 
ATOM     12  O   UNL     1      -1.694  12.395  20.678  0.00  0.00    +0.000 OA
ATOM     13  O   UNL     1      -0.134  12.314  22.623  0.00  0.00    +0.000 OA
ATOM     14  C   UNL     1       0.334  10.660  20.540  0.00  0.00    +0.000 C 
ATOM     15  C   UNL     1      -0.564   9.436  20.880  0.00  0.00    +0.000 C 
ATOM     16  N   UNL     1       0.347   9.044  21.971  0.00  0.00    +0.000 NA
ATOM     17  C   UNL     1      -0.203   9.435  23.274  0.00  0.00    +0.000 C 
ATOM     18  C   UNL     1       1.361   9.997  21.484  0.00  0.00    +0.000 C 
ATOM     19  C   UNL     1       0.807  10.861  19.066  0.00  0.00    +0.000 C 
ATOM     20  N   UNL     1       0.630  10.038  18.084  0.00  0.00    +0.000 NA
ATOM     21  N   UNL     1       1.497  12.005  18.775  0.00  0.00    +0.000 N 
ATOM     22  H   UNL     1       0.108   9.199  18.350  0.00  0.00    +0.000 HD
ATOM     23  H   UNL     1       1.791  11.939  17.796  0.00  0.00    +0.000 HD
ENDBRANCH   6   8
BRANCH   1  26
ATOM     24  C   UNL     1       6.554  15.151  18.714  0.00  0.00    +0.000 C 
ATOM     25  O   UNL     1       6.451  15.757  19.772  0.00  0.00    +0.000 OA
ATOM     26  N   UNL     1       5.523  14.825  17.843  0.00  0.00    +0.000 N 
ATOM     27  H   UNL     1       5.792  14.214  17.074  0.00  0.00    +0.000 HD
BRANCH  24  31
ATOM     28  C   UNL     1      10.376  13.758  17.533  0.00  0.00    +0.000 A 
ATOM     29  C   UNL     1      10.195  15.113  17.781  0.00  0.00    +0.000 A 
ATOM     30  C   UNL     1       8.941  15.578  18.168  0.00  0.00    +0.000 A 
ATOM     31  C   UNL     1       7.903  14.656  18.297  0.00  0.00    +0.000 A 
ATOM     32  N   UNL     1       8.036  13.323  18.075  0.00  0.00    +0.000 NA
ATOM     33  C   UNL     1       9.276  12.917  17.688  0.00  0.00    +0.000 A 
BRANCH  28  35
ATOM     34  C   UNL     1      11.959  12.028  17.901  0.00  0.00    +0.000 C 
ATOM     35  O   UNL     1      11.546  13.164  17.148  0.00  0.00    +0.000 OA
ENDBRANCH  28  35
ENDBRANCH  24  31
ENDBRANCH   1  26
TORSDOF 4
ENDMDL
MODEL 9
REMARK VINA RESULT:      -7.5      3.848      5.523
REMARK  Name = 
REMARK  7 active torsions:
REMARK  status: ('A' for Active; 'I' for Inactive)
REMARK    1  A    between atoms: C_1  and  O_2
REMARK    2  A    between atoms: O_2  and  C_3
REMARK    3  A    between atoms: C_6  and  C_7
REMARK    4  A    between atoms: N_9  and  C_10
REMARK    5  A    between atoms: C_15  and  C_16
REMARK    6  A    between atoms: C_16  and  C_17
REMARK    7  A    between atoms: N_24  and  C_25
REMARK                            x       y       z     vdW  Elec       q    Type
REMARK                         _______ _______ _______ _____ _____    ______ ____
ROOT
ATOM      1  C   UNL     1       0.155  10.148  19.383  0.00  0.00    +0.000 A 
ATOM      2  C   UNL     1      -0.080  10.890  18.222  0.00  0.00    +0.000 A 
ATOM      3  C   UNL     1      -0.811  12.069  18.272  0.00  0.00    +0.000 A 
ATOM      4  C   UNL     1      -1.329  12.506  19.481  0.00  0.00    +0.000 A 
ATOM      5  F   UNL     1      -1.945  13.694  19.482  0.00  0.00    +0.000 F 
ATOM      6  C   UNL     1      -1.197  11.759  20.663  0.00  0.00    +0.000 A 
ATOM      7  C   UNL     1      -0.430  10.571  20.591  0.00  0.00    +0.000 A 
ENDROOT
BRANCH   6   8
ATOM      8  C   UNL     1      -1.795  12.268  21.992  0.00  0.00    +0.000 C 
ATOM      9  C   UNL     1      -1.396  11.352  23.176  0.00  0.00    +0.000 C 
ATOM     10  C   UNL     1      -3.295  12.375  21.789  0.00  0.00    +0.000 C 
ATOM     11  S   UNL     1      -4.125  13.083  23.167  0.00  0.00    +0.000 S 
ATOM     12  O   UNL     1      -4.062  12.130  24.261  0.00  0.00    +0.000 OA
ATOM     13  O   UNL     1      -5.436  13.441  22.644  0.00  0.00    +0.000 OA
ATOM     14  C   UNL     1      -3.171  14.560  23.597  0.00  0.00    +0.000 C 
ATOM     15  C   UNL     1      -3.653  15.205  24.927  0.00  0.00    +0.000 C 
ATOM     16  N   UNL     1      -4.382  16.248  24.181  0.00  0.00    +0.000 NA
ATOM     17  C   UNL     1      -5.820  15.954  24.147  0.00  0.00    +0.000 C 
ATOM     18  C   UNL     1      -3.701  15.851  22.935  0.00  0.00    +0.000 C 
ATOM     19  C   UNL     1      -1.647  14.283  23.403  0.00  0.00    +0.000 C 
ATOM     20  N   UNL     1      -0.693  14.645  24.198  0.00  0.00    +0.000 NA
ATOM     21  N   UNL     1      -1.265  13.610  22.275  0.00  0.00    +0.000 N 
ATOM     22  H   UNL     1      -1.028  15.143  25.027  0.00  0.00    +0.000 HD
ATOM     23  H   UNL     1      -0.242  13.581  22.273  0.00  0.00    +0.000 HD
ENDBRANCH   6   8
BRANCH   1  26
ATOM     24  C   UNL     1       1.890   8.657  18.410  0.00  0.00    +0.000 C 
ATOM     25  O   UNL     1       2.153   9.294  17.398  0.00  0.00    +0.000 OA
ATOM     26  N   UNL     1       0.972   9.004  19.391  0.00  0.00    +0.000 N 
ATOM     27  H   UNL     1       0.982   8.406  20.216  0.00  0.00    +0.000 HD
BRANCH  24  31
ATOM     28  C   UNL     1       4.016   5.073  19.177  0.00  0.00    +0.000 A 
ATOM     29  C   UNL     1       2.993   5.453  20.037  0.00  0.00    +0.000 A 
ATOM     30  C   UNL     1       2.291   6.630  19.792  0.00  0.00    +0.000 A 
ATOM     31  C   UNL     1       2.642   7.391  18.678  0.00  0.00    +0.000 A 
ATOM     32  N   UNL     1       3.627   7.055  17.805  0.00  0.00    +0.000 NA
ATOM     33  C   UNL     1       4.292   5.903  18.091  0.00  0.00    +0.000 A 
BRANCH  28  35
ATOM     34  C   UNL     1       4.124   2.772  19.747  0.00  0.00    +0.000 C 
ATOM     35  O   UNL     1       4.785   3.950  19.294  0.00  0.00    +0.000 OA
ENDBRANCH  28  35
ENDBRANCH  24  31
ENDBRANCH   1  26
TORSDOF 4
ENDMDL
