MODEL 1
REMARK VINA RESULT:      -6.9      0.000      0.000
REMARK  Name = 
REMARK  10 active torsions:
REMARK  status: ('A' for Active; 'I' for Inactive)
REMARK    1  A    between atoms: C_1  and  C_2
REMARK    2  A    between atoms: C_2  and  C_3
REMARK    3  A    between atoms: C_3  and  N_4
REMARK    4  A    between atoms: C_3  and  C_15
REMARK    5  A    between atoms: C_5  and  C_7
REMARK    6  A    between atoms: C_7  and  C_8
REMARK    7  A    between atoms: C_8  and  C_9
REMARK    8  A    between atoms: C_9  and  N_10
REMARK    9  A    between atoms: C_17  and  C_18
REMARK   10  A    between atoms: C_19  and  C_20
REMARK                            x       y       z     vdW  Elec       q    Type
REMARK                         _______ _______ _______ _____ _____    ______ ____
ROOT
ATOM      1  N   UNL     1       4.680   5.018  17.635  0.00  0.00    +0.000 N 
ATOM      2  C   UNL     1       3.669   5.926  17.794  0.00  0.00    +0.000 C 
ATOM      3  O   UNL     1       3.836   7.145  17.719  0.00  0.00    +0.000 OA
ATOM      4  H   UNL     1       4.513   4.023  17.718  0.00  0.00    +0.000 HD
ENDROOT
BRANCH   1   5
ATOM      5  C   UNL     1       6.042   5.447  17.329  0.00  0.00    +0.000 C 
BRANCH   5   6
ATOM      6  C   UNL     1       6.293   5.231  15.852  0.00  0.00    +0.000 A 
ATOM      7  N   UNL     1       7.315   5.680  15.150  0.00  0.00    +0.000 NA
ATOM      8  C   UNL     1       7.308   5.113  13.873  0.00  0.00    +0.000 A 
ATOM      9  C   UNL     1       8.353   5.507  12.887  0.00  0.00    +0.000 C 
ATOM     10  C   UNL     1       6.326   4.157  13.680  0.00  0.00    +0.000 A 
ATOM     11  C   UNL     1       6.121   3.189  12.571  0.00  0.00    +0.000 C 
ATOM     12  S   UNL     1       5.246   4.159  15.003  0.00  0.00    +0.000 S 
ENDBRANCH   5   6
BRANCH   5  14
ATOM     13  C   UNL     1       7.872   5.798  19.124  0.00  0.00    +0.000 C 
ATOM     14  C   UNL     1       7.082   4.822  18.266  0.00  0.00    +0.000 C 
ENDBRANCH   5  14
ENDBRANCH   1   5
BRANCH   2  15
ATOM     15  C   UNL     1       2.309   5.311  18.062  0.00  0.00    +0.000 C 
BRANCH  15  16
ATOM     16  C   UNL     1       2.217   3.874  17.544  0.00  0.00    +0.000 C 
BRANCH  16  17
ATOM     17  C   UNL     1       1.322   3.003  18.428  0.00  0.00    +0.000 C 
BRANCH  17  18
ATOM     18  N   UNL     1       1.819   2.901  19.783  0.00  0.00    +0.000 N 
ATOM     19  C   UNL     1       1.147   3.160  20.936  0.00  0.00    +0.000 A 
ATOM     20  N   UNL     1       1.925   2.901  21.962  0.00  0.00    +0.000 NA
ATOM     21  C   UNL     1       3.081   2.477  21.369  0.00  0.00    +0.000 A 
ATOM     22  N   UNL     1       3.065   2.461  20.033  0.00  0.00    +0.000 NA
ENDBRANCH  17  18
ENDBRANCH  16  17
ENDBRANCH  15  16
ENDBRANCH   2  15
TORSDOF 7
ENDMDL
MODEL 2
REMARK VINA RESULT:      -6.5      1.424      1.724
REMARK  Name = 
REMARK  10 active torsions:
REMARK  status: ('A' for Active; 'I' for Inactive)
REMARK    1  A    between atoms: C_1  and  C_2
REMARK    2  A    between atoms: C_2  and  C_3
REMARK    3  A    between atoms: C_3  and  N_4
REMARK    4  A    between atoms: C_3  and  C_15
REMARK    5  A    between atoms: C_5  and  C_7
REMARK    6  A    between atoms: C_7  and  C_8
REMARK    7  A    between atoms: C_8  and  C_9
REMARK    8  A    between atoms: C_9  and  N_10
REMARK    9  A    between atoms: C_17  and  C_18
REMARK   10  A    between atoms: C_19  and  C_20
REMARK                            x       y       z     vdW  Elec       q    Type
REMARK                         _______ _______ _______ _____ _____    ______ ____
ROOT
ATOM      1  N   UNL     1       6.014   3.804  18.053  0.00  0.00    +0.000 N 
ATOM      2  C   UNL     1       5.009   3.800  18.982  0.00  0.00    +0.000 C 
ATOM      3  O   UNL     1       4.537   4.828  19.471  0.00  0.00    +0.000 OA
ATOM      4  H   UNL     1       6.391   2.940  17.681  0.00  0.00    +0.000 HD
ENDROOT
BRANCH   1   5
ATOM      5  C   UNL     1       6.576   5.054  17.549  0.00  0.00    +0.000 C 
BRANCH   5   6
ATOM      6  C   UNL     1       6.602   4.994  16.037  0.00  0.00    +0.000 A 
ATOM      7  N   UNL     1       7.531   5.490  15.244  0.00  0.00    +0.000 NA
ATOM      8  C   UNL     1       7.316   5.066  13.929  0.00  0.00    +0.000 A 
ATOM      9  C   UNL     1       8.225   5.537  12.846  0.00  0.00    +0.000 C 
ATOM     10  C   UNL     1       6.277   4.165  13.784  0.00  0.00    +0.000 A 
ATOM     11  C   UNL     1       5.873   3.329  12.622  0.00  0.00    +0.000 C 
ATOM     12  S   UNL     1       5.399   4.051  15.244  0.00  0.00    +0.000 S 
ENDBRANCH   5   6
BRANCH   5  14
ATOM     13  C   UNL     1       7.834   5.840  19.669  0.00  0.00    +0.000 C 
ATOM     14  C   UNL     1       7.911   5.409  18.212  0.00  0.00    +0.000 C 
ENDBRANCH   5  14
ENDBRANCH   1   5
BRANCH   2  15
ATOM     15  C   UNL     1       4.509   2.420  19.362  0.00  0.00    +0.000 C 
BRANCH  15  16
ATOM     16  C   UNL     1       3.768   1.740  18.208  0.00  0.00    +0.000 C 
BRANCH  16  17
ATOM     17  C   UNL     1       2.412   2.392  17.935  0.00  0.00    +0.000 C 
BRANCH  17  18
ATOM     18  N   UNL     1       1.810   2.935  19.134  0.00  0.00    +0.000 N 
ATOM     19  C   UNL     1       1.270   4.171  19.306  0.00  0.00    +0.000 A 
ATOM     20  N   UNL     1       0.780   4.267  20.521  0.00  0.00    +0.000 NA
ATOM     21  C   UNL     1       1.051   3.040  21.057  0.00  0.00    +0.000 A 
ATOM     22  N   UNL     1       1.685   2.188  20.245  0.00  0.00    +0.000 NA
ENDBRANCH  17  18
ENDBRANCH  16  17
ENDBRANCH  15  16
ENDBRANCH   2  15
TORSDOF 7
ENDMDL
MODEL 3
REMARK VINA RESULT:      -6.3      4.125      8.127
REMARK  Name = 
REMARK  10 active torsions:
REMARK  status: ('A' for Active; 'I' for Inactive)
REMARK    1  A    between atoms: C_1  and  C_2
REMARK    2  A    between atoms: C_2  and  C_3
REMARK    3  A    between atoms: C_3  and  N_4
REMARK    4  A    between atoms: C_3  and  C_15
REMARK    5  A    between atoms: C_5  and  C_7
REMARK    6  A    between atoms: C_7  and  C_8
REMARK    7  A    between atoms: C_8  and  C_9
REMARK    8  A    between atoms: C_9  and  N_10
REMARK    9  A    between atoms: C_17  and  C_18
REMARK   10  A    between atoms: C_19  and  C_20
REMARK                            x       y       z     vdW  Elec       q    Type
REMARK                         _______ _______ _______ _____ _____    ______ ____
ROOT
ATOM      1  N   UNL     1       6.696   5.745  17.614  0.00  0.00    +0.000 N 
ATOM      2  C   UNL     1       6.968   7.063  17.363  0.00  0.00    +0.000 C 
ATOM      3  O   UNL     1       6.349   7.736  16.537  0.00  0.00    +0.000 OA
ATOM      4  H   UNL     1       7.233   5.215  18.289  0.00  0.00    +0.000 HD
ENDROOT
BRANCH   1   5
ATOM      5  C   UNL     1       5.610   5.052  16.927  0.00  0.00    +0.000 C 
BRANCH   5   6
ATOM      6  C   UNL     1       4.553   4.683  17.946  0.00  0.00    +0.000 A 
ATOM      7  N   UNL     1       4.546   3.620  18.726  0.00  0.00    +0.000 NA
ATOM      8  C   UNL     1       3.520   3.724  19.670  0.00  0.00    +0.000 A 
ATOM      9  C   UNL     1       3.295   2.613  20.638  0.00  0.00    +0.000 C 
ATOM     10  C   UNL     1       2.840   4.929  19.642  0.00  0.00    +0.000 A 
ATOM     11  C   UNL     1       1.856   5.508  20.593  0.00  0.00    +0.000 C 
ATOM     12  S   UNL     1       3.304   5.825  18.265  0.00  0.00    +0.000 S 
ENDBRANCH   5   6
BRANCH   5  14
ATOM     13  C   UNL     1       6.445   4.248  14.614  0.00  0.00    +0.000 C 
ATOM     14  C   UNL     1       6.107   3.895  16.054  0.00  0.00    +0.000 C 
ENDBRANCH   5  14
ENDBRANCH   1   5
BRANCH   2  15
ATOM     15  C   UNL     1       8.097   7.640  18.195  0.00  0.00    +0.000 C 
BRANCH  15  16
ATOM     16  C   UNL     1       8.233   9.153  18.008  0.00  0.00    +0.000 C 
BRANCH  16  17
ATOM     17  C   UNL     1       9.133   9.783  19.072  0.00  0.00    +0.000 C 
BRANCH  17  18
ATOM     18  N   UNL     1       9.698  11.043  18.640  0.00  0.00    +0.000 N 
ATOM     19  C   UNL     1      10.929  11.544  18.925  0.00  0.00    +0.000 A 
ATOM     20  N   UNL     1      11.088  12.692  18.306  0.00  0.00    +0.000 NA
ATOM     21  C   UNL     1       9.903  12.847  17.643  0.00  0.00    +0.000 A 
ATOM     22  N   UNL     1       9.017  11.862  17.818  0.00  0.00    +0.000 NA
ENDBRANCH  17  18
ENDBRANCH  16  17
ENDBRANCH  15  16
ENDBRANCH   2  15
TORSDOF 7
ENDMDL
MODEL 4
REMARK VINA RESULT:      -6.3      2.513      6.081
REMARK  Name = 
REMARK  10 active torsions:
REMARK  status: ('A' for Active; 'I' for Inactive)
REMARK    1  A    between atoms: C_1  and  C_2
REMARK    2  A    between atoms: C_2  and  C_3
REMARK    3  A    between atoms: C_3  and  N_4
REMARK    4  A    between atoms: C_3  and  C_15
REMARK    5  A    between atoms: C_5  and  C_7
REMARK    6  A    between atoms: C_7  and  C_8
REMARK    7  A    between atoms: C_8  and  C_9
REMARK    8  A    between atoms: C_9  and  N_10
REMARK    9  A    between atoms: C_17  and  C_18
REMARK   10  A    between atoms: C_19  and  C_20
REMARK                            x       y       z     vdW  Elec       q    Type
REMARK                         _______ _______ _______ _____ _____    ______ ____
ROOT
ATOM      1  N   UNL     1       3.764   6.077  16.993  0.00  0.00    +0.000 N 
ATOM      2  C   UNL     1       4.937   6.632  16.558  0.00  0.00    +0.000 C 
ATOM      3  O   UNL     1       5.476   7.593  17.111  0.00  0.00    +0.000 OA
ATOM      4  H   UNL     1       3.339   5.296  16.508  0.00  0.00    +0.000 HD
ENDROOT
BRANCH   1   5
ATOM      5  C   UNL     1       3.083   6.579  18.183  0.00  0.00    +0.000 C 
BRANCH   5   6
ATOM      6  C   UNL     1       2.348   5.429  18.838  0.00  0.00    +0.000 A 
ATOM      7  N   UNL     1       1.777   4.408  18.230  0.00  0.00    +0.000 NA
ATOM      8  C   UNL     1       1.377   3.453  19.169  0.00  0.00    +0.000 A 
ATOM      9  C   UNL     1       0.670   2.223  18.712  0.00  0.00    +0.000 C 
ATOM     10  C   UNL     1       1.757   3.737  20.468  0.00  0.00    +0.000 A 
ATOM     11  C   UNL     1       1.721   2.897  21.694  0.00  0.00    +0.000 C 
ATOM     12  S   UNL     1       2.381   5.325  20.557  0.00  0.00    +0.000 S 
ENDBRANCH   5   6
BRANCH   5  14
ATOM     13  C   UNL     1       1.811   8.633  19.109  0.00  0.00    +0.000 C 
ATOM     14  C   UNL     1       2.230   7.820  17.894  0.00  0.00    +0.000 C 
ENDBRANCH   5  14
ENDBRANCH   1   5
BRANCH   2  15
ATOM     15  C   UNL     1       5.535   5.962  15.337  0.00  0.00    +0.000 C 
BRANCH  15  16
ATOM     16  C   UNL     1       5.872   4.491  15.597  0.00  0.00    +0.000 C 
BRANCH  16  17
ATOM     17  C   UNL     1       7.160   4.333  16.408  0.00  0.00    +0.000 C 
BRANCH  17  18
ATOM     18  N   UNL     1       6.968   4.635  17.810  0.00  0.00    +0.000 N 
ATOM     19  C   UNL     1       7.765   5.388  18.614  0.00  0.00    +0.000 A 
ATOM     20  N   UNL     1       7.225   5.470  19.809  0.00  0.00    +0.000 NA
ATOM     21  C   UNL     1       6.080   4.738  19.677  0.00  0.00    +0.000 A 
ATOM     22  N   UNL     1       5.878   4.203  18.469  0.00  0.00    +0.000 NA
ENDBRANCH  17  18
ENDBRANCH  16  17
ENDBRANCH  15  16
ENDBRANCH   2  15
TORSDOF 7
ENDMDL
MODEL 5
REMARK VINA RESULT:      -6.3      4.091      7.975
REMARK  Name = 
REMARK  10 active torsions:
REMARK  status: ('A' for Active; 'I' for Inactive)
REMARK    1  A    between atoms: C_1  and  C_2
REMARK    2  A    between atoms: C_2  and  C_3
REMARK    3  A    between atoms: C_3  and  N_4
REMARK    4  A    between atoms: C_3  and  C_15
REMARK    5  A    between atoms: C_5  and  C_7
REMARK    6  A    between atoms: C_7  and  C_8
REMARK    7  A    between atoms: C_8  and  C_9
REMARK    8  A    between atoms: C_9  and  N_10
REMARK    9  A    between atoms: C_17  and  C_18
REMARK   10  A    between atoms: C_19  and  C_20
REMARK                            x       y       z     vdW  Elec       q    Type
REMARK                         _______ _______ _______ _____ _____    ______ ____
ROOT
ATOM      1  N   UNL     1       6.366   5.979  18.070  0.00  0.00    +0.000 N 
ATOM      2  C   UNL     1       7.383   6.713  17.521  0.00  0.00    +0.000 C 
ATOM      3  O   UNL     1       7.634   6.724  16.315  0.00  0.00    +0.000 OA
ATOM      4  H   UNL     1       6.194   5.980  19.068  0.00  0.00    +0.000 HD
ENDROOT
BRANCH   1   5
ATOM      5  C   UNL     1       5.478   5.173  17.237  0.00  0.00    +0.000 C 
BRANCH   5   6
ATOM      6  C   UNL     1       4.358   4.639  18.104  0.00  0.00    +0.000 A 
ATOM      7  N   UNL     1       3.887   5.181  19.209  0.00  0.00    +0.000 NA
ATOM      8  C   UNL     1       2.729   4.514  19.617  0.00  0.00    +0.000 A 
ATOM      9  C   UNL     1       2.041   4.931  20.871  0.00  0.00    +0.000 C 
ATOM     10  C   UNL     1       2.295   3.538  18.737  0.00  0.00    +0.000 A 
ATOM     11  C   UNL     1       1.022   2.772  18.691  0.00  0.00    +0.000 C 
ATOM     12  S   UNL     1       3.477   3.273  17.534  0.00  0.00    +0.000 S 
ENDBRANCH   5   6
BRANCH   5  14
ATOM     13  C   UNL     1       5.957   4.115  14.925  0.00  0.00    +0.000 C 
ATOM     14  C   UNL     1       6.232   4.118  16.421  0.00  0.00    +0.000 C 
ENDBRANCH   5  14
ENDBRANCH   1   5
BRANCH   2  15
ATOM     15  C   UNL     1       8.179   7.528  18.521  0.00  0.00    +0.000 C 
BRANCH  15  16
ATOM     16  C   UNL     1       8.262   9.004  18.123  0.00  0.00    +0.000 C 
BRANCH  16  17
ATOM     17  C   UNL     1       9.192   9.795  19.045  0.00  0.00    +0.000 C 
BRANCH  17  18
ATOM     18  N   UNL     1       9.253  11.197  18.694  0.00  0.00    +0.000 N 
ATOM     19  C   UNL     1      10.053  12.154  19.233  0.00  0.00    +0.000 A 
ATOM     20  N   UNL     1       9.850  13.294  18.612  0.00  0.00    +0.000 NA
ATOM     21  C   UNL     1       8.900  12.970  17.685  0.00  0.00    +0.000 A 
ATOM     22  N   UNL     1       8.500  11.695  17.697  0.00  0.00    +0.000 NA
ENDBRANCH  17  18
ENDBRANCH  16  17
ENDBRANCH  15  16
ENDBRANCH   2  15
TORSDOF 7
ENDMDL
MODEL 6
REMARK VINA RESULT:      -6.2      1.979      7.001
REMARK  Name = 
REMARK  10 active torsions:
REMARK  status: ('A' for Active; 'I' for Inactive)
REMARK    1  A    between atoms: C_1  and  C_2
REMARK    2  A    between atoms: C_2  and  C_3
REMARK    3  A    between atoms: C_3  and  N_4
REMARK    4  A    between atoms: C_3  and  C_15
REMARK    5  A    between atoms: C_5  and  C_7
REMARK    6  A    between atoms: C_7  and  C_8
REMARK    7  A    between atoms: C_8  and  C_9
REMARK    8  A    between atoms: C_9  and  N_10
REMARK    9  A    between atoms: C_17  and  C_18
REMARK   10  A    between atoms: C_19  and  C_20
REMARK                            x       y       z     vdW  Elec       q    Type
REMARK                         _______ _______ _______ _____ _____    ______ ____
ROOT
ATOM      1  N   UNL     1       5.236   5.584  17.919  0.00  0.00    +0.000 N 
ATOM      2  C   UNL     1       6.382   5.191  18.557  0.00  0.00    +0.000 C 
ATOM      3  O   UNL     1       6.519   5.224  19.781  0.00  0.00    +0.000 OA
ATOM      4  H   UNL     1       5.160   5.560  16.910  0.00  0.00    +0.000 HD
ENDROOT
BRANCH   1   5
ATOM      5  C   UNL     1       4.071   6.045  18.669  0.00  0.00    +0.000 C 
BRANCH   5   6
ATOM      6  C   UNL     1       3.280   4.835  19.120  0.00  0.00    +0.000 A 
ATOM      7  N   UNL     1       2.978   4.506  20.360  0.00  0.00    +0.000 NA
ATOM      8  C   UNL     1       2.072   3.441  20.368  0.00  0.00    +0.000 A 
ATOM      9  C   UNL     1       1.617   2.872  21.667  0.00  0.00    +0.000 C 
ATOM     10  C   UNL     1       1.630   3.061  19.113  0.00  0.00    +0.000 A 
ATOM     11  C   UNL     1       0.531   2.144  18.710  0.00  0.00    +0.000 C 
ATOM     12  S   UNL     1       2.546   3.853  17.909  0.00  0.00    +0.000 S 
ENDBRANCH   5   6
BRANCH   5  14
ATOM     13  C   UNL     1       2.190   7.820  18.719  0.00  0.00    +0.000 C 
ATOM     14  C   UNL     1       3.264   7.107  17.914  0.00  0.00    +0.000 C 
ENDBRANCH   5  14
ENDBRANCH   1   5
BRANCH   2  15
ATOM     15  C   UNL     1       7.477   4.699  17.633  0.00  0.00    +0.000 C 
BRANCH  15  16
ATOM     16  C   UNL     1       7.249   5.140  16.185  0.00  0.00    +0.000 C 
BRANCH  16  17
ATOM     17  C   UNL     1       6.297   4.200  15.443  0.00  0.00    +0.000 C 
BRANCH  17  18
ATOM     18  N   UNL     1       6.545   4.178  14.017  0.00  0.00    +0.000 N 
ATOM     19  C   UNL     1       7.398   4.966  13.310  0.00  0.00    +0.000 A 
ATOM     20  N   UNL     1       7.378   4.606  12.047  0.00  0.00    +0.000 NA
ATOM     21  C   UNL     1       6.483   3.574  12.038  0.00  0.00    +0.000 A 
ATOM     22  N   UNL     1       5.943   3.275  13.223  0.00  0.00    +0.000 NA
ENDBRANCH  17  18
ENDBRANCH  16  17
ENDBRANCH  15  16
ENDBRANCH   2  15
TORSDOF 7
ENDMDL
MODEL 7
REMARK VINA RESULT:      -6.1      1.821      2.481
REMARK  Name = 
REMARK  10 active torsions:
REMARK  status: ('A' for Active; 'I' for Inactive)
REMARK    1  A    between atoms: C_1  and  C_2
REMARK    2  A    between atoms: C_2  and  C_3
REMARK    3  A    between atoms: C_3  and  N_4
REMARK    4  A    between atoms: C_3  and  C_15
REMARK    5  A    between atoms: C_5  and  C_7
REMARK    6  A    between atoms: C_7  and  C_8
REMARK    7  A    between atoms: C_8  and  C_9
REMARK    8  A    between atoms: C_9  and  N_10
REMARK    9  A    between atoms: C_17  and  C_18
REMARK   10  A    between atoms: C_19  and  C_20
REMARK                            x       y       z     vdW  Elec       q    Type
REMARK                         _______ _______ _______ _____ _____    ______ ____
ROOT
ATOM      1  N   UNL     1       5.324   3.682  17.474  0.00  0.00    +0.000 N 
ATOM      2  C   UNL     1       4.870   3.456  18.746  0.00  0.00    +0.000 C 
ATOM      3  O   UNL     1       5.223   4.125  19.718  0.00  0.00    +0.000 OA
ATOM      4  H   UNL     1       5.026   3.104  16.698  0.00  0.00    +0.000 HD
ENDROOT
BRANCH   1   5
ATOM      5  C   UNL     1       6.249   4.773  17.182  0.00  0.00    +0.000 C 
BRANCH   5   6
ATOM      6  C   UNL     1       6.471   4.828  15.686  0.00  0.00    +0.000 A 
ATOM      7  N   UNL     1       7.451   5.444  15.055  0.00  0.00    +0.000 NA
ATOM      8  C   UNL     1       7.438   5.105  13.699  0.00  0.00    +0.000 A 
ATOM      9  C   UNL     1       8.437   5.717  12.778  0.00  0.00    +0.000 C 
ATOM     10  C   UNL     1       6.499   4.147  13.361  0.00  0.00    +0.000 A 
ATOM     11  C   UNL     1       6.312   3.374  12.105  0.00  0.00    +0.000 C 
ATOM     12  S   UNL     1       5.455   3.865  14.683  0.00  0.00    +0.000 S 
ENDBRANCH   5   6
BRANCH   5  14
ATOM     13  C   UNL     1       7.946   6.010  18.693  0.00  0.00    +0.000 C 
ATOM     14  C   UNL     1       7.524   4.709  18.030  0.00  0.00    +0.000 C 
ENDBRANCH   5  14
ENDBRANCH   1   5
BRANCH   2  15
ATOM     15  C   UNL     1       3.881   2.313  18.866  0.00  0.00    +0.000 C 
BRANCH  15  16
ATOM     16  C   UNL     1       2.567   2.756  19.513  0.00  0.00    +0.000 C 
BRANCH  16  17
ATOM     17  C   UNL     1       1.821   3.778  18.653  0.00  0.00    +0.000 C 
BRANCH  17  18
ATOM     18  N   UNL     1       2.053   5.138  19.088  0.00  0.00    +0.000 N 
ATOM     19  C   UNL     1       2.528   6.177  18.351  0.00  0.00    +0.000 A 
ATOM     20  N   UNL     1       2.547   7.263  19.090  0.00  0.00    +0.000 NA
ATOM     21  C   UNL     1       2.064   6.824  20.290  0.00  0.00    +0.000 A 
ATOM     22  N   UNL     1       1.748   5.527  20.339  0.00  0.00    +0.000 NA
ENDBRANCH  17  18
ENDBRANCH  16  17
ENDBRANCH  15  16
ENDBRANCH   2  15
TORSDOF 7
ENDMDL
MODEL 8
REMARK VINA RESULT:      -6.1      3.270      6.807
REMARK  Name = 
REMARK  10 active torsions:
REMARK  status: ('A' for Active; 'I' for Inactive)
REMARK    1  A    between atoms: C_1  and  C_2
REMARK    2  A    between atoms: C_2  and  C_3
REMARK    3  A    between atoms: C_3  and  N_4
REMARK    4  A    between atoms: C_3  and  C_15
REMARK    5  A    between atoms: C_5  and  C_7
REMARK    6  A    between atoms: C_7  and  C_8
REMARK    7  A    between atoms: C_8  and  C_9
REMARK    8  A    between atoms: C_9  and  N_10
REMARK    9  A    between atoms: C_17  and  C_18
REMARK   10  A    between atoms: C_19  and  C_20
REMARK                            x       y       z     vdW  Elec       q    Type
REMARK                         _______ _______ _______ _____ _____    ______ ____
ROOT
ATOM      1  N   UNL     1       3.398   5.057  18.167  0.00  0.00    +0.000 N 
ATOM      2  C   UNL     1       3.369   3.950  17.363  0.00  0.00    +0.000 C 
ATOM      3  O   UNL     1       2.495   3.084  17.436  0.00  0.00    +0.000 OA
ATOM      4  H   UNL     1       4.139   5.744  18.093  0.00  0.00    +0.000 HD
ENDROOT
BRANCH   1   5
ATOM      5  C   UNL     1       2.353   5.302  19.157  0.00  0.00    +0.000 C 
BRANCH   5   6
ATOM      6  C   UNL     1       2.156   6.797  19.288  0.00  0.00    +0.000 A 
ATOM      7  N   UNL     1       2.262   7.695  18.329  0.00  0.00    +0.000 NA
ATOM      8  C   UNL     1       1.813   8.939  18.783  0.00  0.00    +0.000 A 
ATOM      9  C   UNL     1       1.876  10.120  17.876  0.00  0.00    +0.000 C 
ATOM     10  C   UNL     1       1.276   8.919  20.058  0.00  0.00    +0.000 A 
ATOM     11  C   UNL     1       0.511   9.954  20.803  0.00  0.00    +0.000 C 
ATOM     12  S   UNL     1       1.573   7.406  20.791  0.00  0.00    +0.000 S 
ENDBRANCH   5   6
BRANCH   5  14
ATOM     13  C   UNL     1       1.504   3.606  20.916  0.00  0.00    +0.000 C 
ATOM     14  C   UNL     1       2.604   4.559  20.474  0.00  0.00    +0.000 C 
ENDBRANCH   5  14
ENDBRANCH   1   5
BRANCH   2  15
ATOM     15  C   UNL     1       4.503   3.873  16.359  0.00  0.00    +0.000 C 
BRANCH  15  16
ATOM     16  C   UNL     1       5.051   5.257  16.005  0.00  0.00    +0.000 C 
BRANCH  16  17
ATOM     17  C   UNL     1       6.580   5.272  15.954  0.00  0.00    +0.000 C 
BRANCH  17  18
ATOM     18  N   UNL     1       7.158   6.068  17.015  0.00  0.00    +0.000 N 
ATOM     19  C   UNL     1       7.540   5.652  18.252  0.00  0.00    +0.000 A 
ATOM     20  N   UNL     1       8.068   6.660  18.908  0.00  0.00    +0.000 NA
ATOM     21  C   UNL     1       7.983   7.686  18.009  0.00  0.00    +0.000 A 
ATOM     22  N   UNL     1       7.431   7.372  16.834  0.00  0.00    +0.000 NA
ENDBRANCH  17  18
ENDBRANCH  16  17
ENDBRANCH  15  16
ENDBRANCH   2  15
TORSDOF 7
ENDMDL
MODEL 9
REMARK VINA RESULT:      -6.1      4.488      5.829
REMARK  Name = 
REMARK  10 active torsions:
REMARK  status: ('A' for Active; 'I' for Inactive)
REMARK    1  A    between atoms: C_1  and  C_2
REMARK    2  A    between atoms: C_2  and  C_3
REMARK    3  A    between atoms: C_3  and  N_4
REMARK    4  A    between atoms: C_3  and  C_15
REMARK    5  A    between atoms: C_5  and  C_7
REMARK    6  A    between atoms: C_7  and  C_8
REMARK    7  A    between atoms: C_8  and  C_9
REMARK    8  A    between atoms: C_9  and  N_10
REMARK    9  A    between atoms: C_17  and  C_18
REMARK   10  A    between atoms: C_19  and  C_20
REMARK                            x       y       z     vdW  Elec       q    Type
REMARK                         _______ _______ _______ _____ _____    ______ ____
ROOT
ATOM      1  N   UNL     1       2.376   6.609  17.821  0.00  0.00    +0.000 N 
ATOM      2  C   UNL     1       2.261   7.637  18.718  0.00  0.00    +0.000 C 
ATOM      3  O   UNL     1       2.290   7.475  19.939  0.00  0.00    +0.000 OA
ATOM      4  H   UNL     1       2.333   6.774  16.822  0.00  0.00    +0.000 HD
ENDROOT
BRANCH   1   5
ATOM      5  C   UNL     1       2.576   5.234  18.266  0.00  0.00    +0.000 C 
BRANCH   5   6
ATOM      6  C   UNL     1       3.934   4.766  17.789  0.00  0.00    +0.000 A 
ATOM      7  N   UNL     1       4.275   4.461  16.553  0.00  0.00    +0.000 NA
ATOM      8  C   UNL     1       5.657   4.268  16.469  0.00  0.00    +0.000 A 
ATOM      9  C   UNL     1       6.267   3.874  15.168  0.00  0.00    +0.000 C 
ATOM     10  C   UNL     1       6.342   4.539  17.640  0.00  0.00    +0.000 A 
ATOM     11  C   UNL     1       7.800   4.666  17.902  0.00  0.00    +0.000 C 
ATOM     12  S   UNL     1       5.235   4.779  18.918  0.00  0.00    +0.000 S 
ENDBRANCH   5   6
BRANCH   5  14
ATOM     13  C   UNL     1       1.481   2.895  18.429  0.00  0.00    +0.000 C 
ATOM     14  C   UNL     1       1.404   4.318  17.897  0.00  0.00    +0.000 C 
ENDBRANCH   5  14
ENDBRANCH   1   5
BRANCH   2  15
ATOM     15  C   UNL     1       2.105   9.007  18.087  0.00  0.00    +0.000 C 
BRANCH  15  16
ATOM     16  C   UNL     1       0.800   9.687  18.507  0.00  0.00    +0.000 C 
BRANCH  16  17
ATOM     17  C   UNL     1       1.053  10.982  19.282  0.00  0.00    +0.000 C 
BRANCH  17  18
ATOM     18  N   UNL     1       0.494  10.943  20.616  0.00  0.00    +0.000 N 
ATOM     19  C   UNL     1       0.821  10.099  21.630  0.00  0.00    +0.000 A 
ATOM     20  N   UNL     1       0.128  10.414  22.701  0.00  0.00    +0.000 NA
ATOM     21  C   UNL     1      -0.618  11.477  22.279  0.00  0.00    +0.000 A 
ATOM     22  N   UNL     1      -0.431  11.838  21.006  0.00  0.00    +0.000 NA
ENDBRANCH  17  18
ENDBRANCH  16  17
ENDBRANCH  15  16
ENDBRANCH   2  15
TORSDOF 7
ENDMDL
