MODEL 1
REMARK VINA RESULT:      -7.4      0.000      0.000
REMARK  Name = 
REMARK  8 active torsions:
REMARK  status: ('A' for Active; 'I' for Inactive)
REMARK    1  A    between atoms: C_1  and  N_2
REMARK    2  A    between atoms: N_2  and  C_3
REMARK    3  A    between atoms: C_3  and  C_4
REMARK    4  A    between atoms: N_8  and  C_9
REMARK    5  A    between atoms: C_10  and  C_12
REMARK    6  A    between atoms: C_12  and  C_13
REMARK    7  A    between atoms: C_13  and  C_14
REMARK    8  A    between atoms: C_14  and  N_15
REMARK                            x       y       z     vdW  Elec       q    Type
REMARK                         _______ _______ _______ _____ _____    ______ ____
ROOT
ATOM      1  C   UNL     1       1.762   4.743  18.546  0.00  0.00    +0.000 C 
ENDROOT
BRANCH   1   4
ATOM      2  C   UNL     1       3.864   1.579  18.206  0.00  0.00    +0.000 C 
ATOM      3  N   UNL     1       3.349   2.916  17.966  0.00  0.00    +0.000 N 
ATOM      4  C   UNL     1       2.278   3.327  18.745  0.00  0.00    +0.000 C 
ATOM      5  O   UNL     1       1.754   2.574  19.568  0.00  0.00    +0.000 OA
BRANCH   3   6
ATOM      6  C   UNL     1       3.956   3.685  16.879  0.00  0.00    +0.000 C 
BRANCH   6   7
ATOM      7  C   UNL     1       5.344   4.120  17.220  0.00  0.00    +0.000 A 
ATOM      8  N   UNL     1       5.841   4.407  18.410  0.00  0.00    +0.000 NA
ATOM      9  C   UNL     1       7.145   4.704  18.148  0.00  0.00    +0.000 A 
ATOM     10  N   UNL     1       7.503   4.615  16.866  0.00  0.00    +0.000 NA
ATOM     11  N   UNL     1       6.349   4.232  16.293  0.00  0.00    +0.000 N 
ATOM     12  C   UNL     1       6.297   3.976  14.875  0.00  0.00    +0.000 C 
ENDBRANCH   6   7
ENDBRANCH   3   6
ENDBRANCH   1   4
BRANCH   1  13
ATOM     13  C   UNL     1       1.970   5.590  19.806  0.00  0.00    +0.000 C 
BRANCH  13  14
ATOM     14  C   UNL     1       2.775   6.866  19.558  0.00  0.00    +0.000 C 
BRANCH  14  15
ATOM     15  N   UNL     1       1.947   8.043  19.351  0.00  0.00    +0.000 N 
ATOM     16  C   UNL     1       1.775   8.650  18.130  0.00  0.00    +0.000 A 
ATOM     17  C   UNL     1       1.026   9.786  18.322  0.00  0.00    +0.000 A 
ATOM     18  C   UNL     1       0.696   9.860  19.702  0.00  0.00    +0.000 A 
ATOM     19  C   UNL     1      -0.040  10.777  20.474  0.00  0.00    +0.000 A 
ATOM     20  C   UNL     1      -0.200  10.545  21.842  0.00  0.00    +0.000 A 
ATOM     21 CL   UNL     1      -1.088  11.668  22.795  0.00  0.00    +0.000 Cl
ATOM     22  C   UNL     1       0.349   9.416  22.446  0.00  0.00    +0.000 A 
ATOM     23  C   UNL     1       1.094   8.497  21.700  0.00  0.00    +0.000 A 
ATOM     24  C   UNL     1       1.262   8.740  20.328  0.00  0.00    +0.000 A 
ENDBRANCH  14  15
ENDBRANCH  13  14
ENDBRANCH   1  13
TORSDOF 6
ENDMDL
MODEL 2
REMARK VINA RESULT:      -7.3      0.914      1.425
REMARK  Name = 
REMARK  8 active torsions:
REMARK  status: ('A' for Active; 'I' for Inactive)
REMARK    1  A    between atoms: C_1  and  N_2
REMARK    2  A    between atoms: N_2  and  C_3
REMARK    3  A    between atoms: C_3  and  C_4
REMARK    4  A    between atoms: N_8  and  C_9
REMARK    5  A    between atoms: C_10  and  C_12
REMARK    6  A    between atoms: C_12  and  C_13
REMARK    7  A    between atoms: C_13  and  C_14
REMARK    8  A    between atoms: C_14  and  N_15
REMARK                            x       y       z     vdW  Elec       q    Type
REMARK                         _______ _______ _______ _____ _____    ______ ____
ROOT
ATOM      1  C   UNL     1       2.486   5.447  17.808  0.00  0.00    +0.000 C 
ENDROOT
BRANCH   1   4
ATOM      2  C   UNL     1       3.613   1.819  18.148  0.00  0.00    +0.000 C 
ATOM      3  N   UNL     1       3.646   3.272  18.149  0.00  0.00    +0.000 N 
ATOM      4  C   UNL     1       2.488   3.927  17.760  0.00  0.00    +0.000 C 
ATOM      5  O   UNL     1       1.492   3.307  17.381  0.00  0.00    +0.000 OA
BRANCH   3   6
ATOM      6  C   UNL     1       4.915   3.916  18.491  0.00  0.00    +0.000 C 
BRANCH   6   7
ATOM      7  C   UNL     1       5.769   4.126  17.283  0.00  0.00    +0.000 A 
ATOM      8  N   UNL     1       5.507   3.799  16.030  0.00  0.00    +0.000 NA
ATOM      9  C   UNL     1       6.598   4.249  15.349  0.00  0.00    +0.000 A 
ATOM     10  N   UNL     1       7.529   4.847  16.094  0.00  0.00    +0.000 NA
ATOM     11  N   UNL     1       6.981   4.770  17.318  0.00  0.00    +0.000 N 
ATOM     12  C   UNL     1       7.659   5.347  18.451  0.00  0.00    +0.000 C 
ENDBRANCH   6   7
ENDBRANCH   3   6
ENDBRANCH   1   4
BRANCH   1  13
ATOM     13  C   UNL     1       2.016   5.957  19.174  0.00  0.00    +0.000 C 
BRANCH  13  14
ATOM     14  C   UNL     1       2.628   7.301  19.570  0.00  0.00    +0.000 C 
BRANCH  14  15
ATOM     15  N   UNL     1       1.708   8.419  19.438  0.00  0.00    +0.000 N 
ATOM     16  C   UNL     1       1.458   9.067  18.252  0.00  0.00    +0.000 A 
ATOM     17  C   UNL     1       0.630  10.131  18.515  0.00  0.00    +0.000 A 
ATOM     18  C   UNL     1       0.331  10.115  19.904  0.00  0.00    +0.000 A 
ATOM     19  C   UNL     1      -0.453  10.935  20.736  0.00  0.00    +0.000 A 
ATOM     20  C   UNL     1      -0.558  10.628  22.094  0.00  0.00    +0.000 A 
ATOM     21 CL   UNL     1      -1.505  11.634  23.120  0.00  0.00    +0.000 Cl
ATOM     22  C   UNL     1       0.090   9.518  22.631  0.00  0.00    +0.000 A 
ATOM     23  C   UNL     1       0.883   8.696  21.825  0.00  0.00    +0.000 A 
ATOM     24  C   UNL     1       0.997   9.015  20.462  0.00  0.00    +0.000 A 
ENDBRANCH  14  15
ENDBRANCH  13  14
ENDBRANCH   1  13
TORSDOF 6
ENDMDL
MODEL 3
REMARK VINA RESULT:      -7.3      1.356      1.917
REMARK  Name = 
REMARK  8 active torsions:
REMARK  status: ('A' for Active; 'I' for Inactive)
REMARK    1  A    between atoms: C_1  and  N_2
REMARK    2  A    between atoms: N_2  and  C_3
REMARK    3  A    between atoms: C_3  and  C_4
REMARK    4  A    between atoms: N_8  and  C_9
REMARK    5  A    between atoms: C_10  and  C_12
REMARK    6  A    between atoms: C_12  and  C_13
REMARK    7  A    between atoms: C_13  and  C_14
REMARK    8  A    between atoms: C_14  and  N_15
REMARK                            x       y       z     vdW  Elec       q    Type
REMARK                         _______ _______ _______ _____ _____    ______ ____
ROOT
ATOM      1  C   UNL     1       3.574   6.413  17.777  0.00  0.00    +0.000 C 
ENDROOT
BRANCH   1   4
ATOM      2  C   UNL     1       3.810   2.641  18.293  0.00  0.00    +0.000 C 
ATOM      3  N   UNL     1       4.200   4.033  18.148  0.00  0.00    +0.000 N 
ATOM      4  C   UNL     1       3.191   4.944  17.878  0.00  0.00    +0.000 C 
ATOM      5  O   UNL     1       2.023   4.585  17.717  0.00  0.00    +0.000 OA
BRANCH   3   6
ATOM      6  C   UNL     1       5.628   4.343  18.228  0.00  0.00    +0.000 C 
BRANCH   6   7
ATOM      7  C   UNL     1       6.222   4.561  16.874  0.00  0.00    +0.000 A 
ATOM      8  N   UNL     1       6.073   3.824  15.789  0.00  0.00    +0.000 NA
ATOM      9  C   UNL     1       6.794   4.495  14.846  0.00  0.00    +0.000 A 
ATOM     10  N   UNL     1       7.382   5.615  15.270  0.00  0.00    +0.000 NA
ATOM     11  N   UNL     1       6.999   5.647  16.557  0.00  0.00    +0.000 N 
ATOM     12  C   UNL     1       7.393   6.748  17.400  0.00  0.00    +0.000 C 
ENDBRANCH   6   7
ENDBRANCH   3   6
ENDBRANCH   1   4
BRANCH   1  13
ATOM     13  C   UNL     1       2.344   7.316  17.924  0.00  0.00    +0.000 C 
BRANCH  13  14
ATOM     14  C   UNL     1       2.143   7.850  19.342  0.00  0.00    +0.000 C 
BRANCH  14  15
ATOM     15  N   UNL     1       1.405   9.102  19.391  0.00  0.00    +0.000 N 
ATOM     16  C   UNL     1       1.413  10.033  18.380  0.00  0.00    +0.000 A 
ATOM     17  C   UNL     1       0.703  11.129  18.806  0.00  0.00    +0.000 A 
ATOM     18  C   UNL     1       0.211  10.847  20.109  0.00  0.00    +0.000 A 
ATOM     19  C   UNL     1      -0.569  11.573  21.028  0.00  0.00    +0.000 A 
ATOM     20  C   UNL     1      -0.906  10.988  22.250  0.00  0.00    +0.000 A 
ATOM     21 CL   UNL     1      -1.848  11.874  23.384  0.00  0.00    +0.000 Cl
ATOM     22  C   UNL     1      -0.491   9.695  22.565  0.00  0.00    +0.000 A 
ATOM     23  C   UNL     1       0.294   8.960  21.671  0.00  0.00    +0.000 A 
ATOM     24  C   UNL     1       0.640   9.557  20.448  0.00  0.00    +0.000 A 
ENDBRANCH  14  15
ENDBRANCH  13  14
ENDBRANCH   1  13
TORSDOF 6
ENDMDL
MODEL 4
REMARK VINA RESULT:      -7.2      1.125      1.152
REMARK  Name = 
REMARK  8 active torsions:
REMARK  status: ('A' for Active; 'I' for Inactive)
REMARK    1  A    between atoms: C_1  and  N_2
REMARK    2  A    between atoms: N_2  and  C_3
REMARK    3  A    between atoms: C_3  and  C_4
REMARK    4  A    between atoms: N_8  and  C_9
REMARK    5  A    between atoms: C_10  and  C_12
REMARK    6  A    between atoms: C_12  and  C_13
REMARK    7  A    between atoms: C_13  and  C_14
REMARK    8  A    between atoms: C_14  and  N_15
REMARK                            x       y       z     vdW  Elec       q    Type
REMARK                         _______ _______ _______ _____ _____    ______ ____
ROOT
ATOM      1  C   UNL     1       2.207   5.375  17.967  0.00  0.00    +0.000 C 
ENDROOT
BRANCH   1   4
ATOM      2  C   UNL     1       4.164   2.598  19.700  0.00  0.00    +0.000 C 
ATOM      3  N   UNL     1       3.766   3.584  18.709  0.00  0.00    +0.000 N 
ATOM      4  C   UNL     1       2.608   4.301  18.966  0.00  0.00    +0.000 C 
ATOM      5  O   UNL     1       1.918   4.078  19.962  0.00  0.00    +0.000 OA
BRANCH   3   6
ATOM      6  C   UNL     1       4.581   3.686  17.498  0.00  0.00    +0.000 C 
BRANCH   6   7
ATOM      7  C   UNL     1       5.742   4.605  17.691  0.00  0.00    +0.000 A 
ATOM      8  N   UNL     1       6.665   4.570  18.636  0.00  0.00    +0.000 NA
ATOM      9  C   UNL     1       7.491   5.605  18.314  0.00  0.00    +0.000 A 
ATOM     10  N   UNL     1       7.151   6.287  17.219  0.00  0.00    +0.000 NA
ATOM     11  N   UNL     1       6.044   5.631  16.830  0.00  0.00    +0.000 N 
ATOM     12  C   UNL     1       5.355   6.028  15.628  0.00  0.00    +0.000 C 
ENDBRANCH   6   7
ENDBRANCH   3   6
ENDBRANCH   1   4
BRANCH   1  13
ATOM     13  C   UNL     1       2.839   6.725  18.323  0.00  0.00    +0.000 C 
BRANCH  13  14
ATOM     14  C   UNL     1       2.374   7.283  19.668  0.00  0.00    +0.000 C 
BRANCH  14  15
ATOM     15  N   UNL     1       1.601   8.509  19.552  0.00  0.00    +0.000 N 
ATOM     16  C   UNL     1       1.543   9.269  18.408  0.00  0.00    +0.000 A 
ATOM     17  C   UNL     1       0.817  10.402  18.686  0.00  0.00    +0.000 A 
ATOM     18  C   UNL     1       0.383  10.317  20.037  0.00  0.00    +0.000 A 
ATOM     19  C   UNL     1      -0.383  11.160  20.862  0.00  0.00    +0.000 A 
ATOM     20  C   UNL     1      -0.656  10.767  22.174  0.00  0.00    +0.000 A 
ATOM     21 CL   UNL     1      -1.581  11.798  23.194  0.00  0.00    +0.000 Cl
ATOM     22  C   UNL     1      -0.191   9.550  22.670  0.00  0.00    +0.000 A 
ATOM     23  C   UNL     1       0.581   8.702  21.870  0.00  0.00    +0.000 A 
ATOM     24  C   UNL     1       0.863   9.107  20.555  0.00  0.00    +0.000 A 
ENDBRANCH  14  15
ENDBRANCH  13  14
ENDBRANCH   1  13
TORSDOF 6
ENDMDL
MODEL 5
REMARK VINA RESULT:      -7.2      1.092      1.431
REMARK  Name = 
REMARK  8 active torsions:
REMARK  status: ('A' for Active; 'I' for Inactive)
REMARK    1  A    between atoms: C_1  and  N_2
REMARK    2  A    between atoms: N_2  and  C_3
REMARK    3  A    between atoms: C_3  and  C_4
REMARK    4  A    between atoms: N_8  and  C_9
REMARK    5  A    between atoms: C_10  and  C_12
REMARK    6  A    between atoms: C_12  and  C_13
REMARK    7  A    between atoms: C_13  and  C_14
REMARK    8  A    between atoms: C_14  and  N_15
REMARK                            x       y       z     vdW  Elec       q    Type
REMARK                         _______ _______ _______ _____ _____    ______ ____
ROOT
ATOM      1  C   UNL     1       2.501   4.489  20.726  0.00  0.00    +0.000 C 
ENDROOT
BRANCH   1   4
ATOM      2  C   UNL     1       3.611   2.283  17.819  0.00  0.00    +0.000 C 
ATOM      3  N   UNL     1       3.640   3.290  18.866  0.00  0.00    +0.000 N 
ATOM      4  C   UNL     1       2.473   3.479  19.590  0.00  0.00    +0.000 C 
ATOM      5  O   UNL     1       1.441   2.858  19.324  0.00  0.00    +0.000 OA
BRANCH   3   6
ATOM      6  C   UNL     1       4.872   4.064  19.020  0.00  0.00    +0.000 C 
BRANCH   6   7
ATOM      7  C   UNL     1       5.111   4.958  17.847  0.00  0.00    +0.000 A 
ATOM      8  N   UNL     1       4.234   5.695  17.189  0.00  0.00    +0.000 NA
ATOM      9  C   UNL     1       4.991   6.329  16.249  0.00  0.00    +0.000 A 
ATOM     10  N   UNL     1       6.293   6.041  16.278  0.00  0.00    +0.000 NA
ATOM     11  N   UNL     1       6.353   5.178  17.306  0.00  0.00    +0.000 N 
ATOM     12  C   UNL     1       7.622   4.633  17.718  0.00  0.00    +0.000 C 
ENDBRANCH   6   7
ENDBRANCH   3   6
ENDBRANCH   1   4
BRANCH   1  13
ATOM     13  C   UNL     1       1.689   5.741  20.374  0.00  0.00    +0.000 C 
BRANCH  13  14
ATOM     14  C   UNL     1       2.549   6.918  19.914  0.00  0.00    +0.000 C 
BRANCH  14  15
ATOM     15  N   UNL     1       1.784   8.129  19.658  0.00  0.00    +0.000 N 
ATOM     16  C   UNL     1       1.687   8.723  18.422  0.00  0.00    +0.000 A 
ATOM     17  C   UNL     1       0.985   9.895  18.568  0.00  0.00    +0.000 A 
ATOM     18  C   UNL     1       0.607  10.006  19.933  0.00  0.00    +0.000 A 
ATOM     19  C   UNL     1      -0.116  10.968  20.662  0.00  0.00    +0.000 A 
ATOM     20  C   UNL     1      -0.338  10.766  22.026  0.00  0.00    +0.000 A 
ATOM     21 CL   UNL     1      -1.209  11.944  22.927  0.00  0.00    +0.000 Cl
ATOM     22  C   UNL     1       0.134   9.623  22.668  0.00  0.00    +0.000 A 
ATOM     23  C   UNL     1       0.864   8.660  21.965  0.00  0.00    +0.000 A 
ATOM     24  C   UNL     1       1.095   8.872  20.597  0.00  0.00    +0.000 A 
ENDBRANCH  14  15
ENDBRANCH  13  14
ENDBRANCH   1  13
TORSDOF 6
ENDMDL
MODEL 6
REMARK VINA RESULT:      -7.2      1.810      3.256
REMARK  Name = 
REMARK  8 active torsions:
REMARK  status: ('A' for Active; 'I' for Inactive)
REMARK    1  A    between atoms: C_1  and  N_2
REMARK    2  A    between atoms: N_2  and  C_3
REMARK    3  A    between atoms: C_3  and  C_4
REMARK    4  A    between atoms: N_8  and  C_9
REMARK    5  A    between atoms: C_10  and  C_12
REMARK    6  A    between atoms: C_12  and  C_13
REMARK    7  A    between atoms: C_13  and  C_14
REMARK    8  A    between atoms: C_14  and  N_15
REMARK                            x       y       z     vdW  Elec       q    Type
REMARK                         _______ _______ _______ _____ _____    ______ ____
ROOT
ATOM      1  C   UNL     1       4.590   6.746  17.825  0.00  0.00    +0.000 C 
ENDROOT
BRANCH   1   4
ATOM      2  C   UNL     1       5.693   4.031  15.385  0.00  0.00    +0.000 C 
ATOM      3  N   UNL     1       5.307   4.690  16.620  0.00  0.00    +0.000 N 
ATOM      4  C   UNL     1       5.049   6.051  16.553  0.00  0.00    +0.000 C 
ATOM      5  O   UNL     1       5.191   6.683  15.505  0.00  0.00    +0.000 OA
BRANCH   3   6
ATOM      6  C   UNL     1       5.291   3.880  17.839  0.00  0.00    +0.000 C 
BRANCH   6   7
ATOM      7  C   UNL     1       3.957   3.246  18.062  0.00  0.00    +0.000 A 
ATOM      8  N   UNL     1       2.913   3.234  17.252  0.00  0.00    +0.000 NA
ATOM      9  C   UNL     1       1.991   2.494  17.932  0.00  0.00    +0.000 A 
ATOM     10  N   UNL     1       2.393   2.032  19.117  0.00  0.00    +0.000 NA
ATOM     11  N   UNL     1       3.647   2.510  19.178  0.00  0.00    +0.000 N 
ATOM     12  C   UNL     1       4.482   2.204  20.312  0.00  0.00    +0.000 C 
ENDBRANCH   6   7
ENDBRANCH   3   6
ENDBRANCH   1   4
BRANCH   1  13
ATOM     13  C   UNL     1       3.062   6.855  17.875  0.00  0.00    +0.000 C 
BRANCH  13  14
ATOM     14  C   UNL     1       2.522   7.261  19.247  0.00  0.00    +0.000 C 
BRANCH  14  15
ATOM     15  N   UNL     1       1.743   8.488  19.223  0.00  0.00    +0.000 N 
ATOM     16  C   UNL     1       1.682   9.333  18.141  0.00  0.00    +0.000 A 
ATOM     17  C   UNL     1       0.950  10.438  18.505  0.00  0.00    +0.000 A 
ATOM     18  C   UNL     1       0.515  10.247  19.844  0.00  0.00    +0.000 A 
ATOM     19  C   UNL     1      -0.256  11.021  20.731  0.00  0.00    +0.000 A 
ATOM     20  C   UNL     1      -0.527  10.527  22.009  0.00  0.00    +0.000 A 
ATOM     21 CL   UNL     1      -1.459  11.473  23.103  0.00  0.00    +0.000 Cl
ATOM     22  C   UNL     1      -0.057   9.279  22.410  0.00  0.00    +0.000 A 
ATOM     23  C   UNL     1       0.721   8.499  21.549  0.00  0.00    +0.000 A 
ATOM     24  C   UNL     1       1.001   9.004  20.269  0.00  0.00    +0.000 A 
ENDBRANCH  14  15
ENDBRANCH  13  14
ENDBRANCH   1  13
TORSDOF 6
ENDMDL
MODEL 7
REMARK VINA RESULT:      -7.1      1.187      1.413
REMARK  Name = 
REMARK  8 active torsions:
REMARK  status: ('A' for Active; 'I' for Inactive)
REMARK    1  A    between atoms: C_1  and  N_2
REMARK    2  A    between atoms: N_2  and  C_3
REMARK    3  A    between atoms: C_3  and  C_4
REMARK    4  A    between atoms: N_8  and  C_9
REMARK    5  A    between atoms: C_10  and  C_12
REMARK    6  A    between atoms: C_12  and  C_13
REMARK    7  A    between atoms: C_13  and  C_14
REMARK    8  A    between atoms: C_14  and  N_15
REMARK                            x       y       z     vdW  Elec       q    Type
REMARK                         _______ _______ _______ _____ _____    ______ ____
ROOT
ATOM      1  C   UNL     1       3.408   6.214  19.061  0.00  0.00    +0.000 C 
ENDROOT
BRANCH   1   4
ATOM      2  C   UNL     1       3.644   2.411  19.232  0.00  0.00    +0.000 C 
ATOM      3  N   UNL     1       3.741   3.771  18.728  0.00  0.00    +0.000 N 
ATOM      4  C   UNL     1       3.265   4.781  19.549  0.00  0.00    +0.000 C 
ATOM      5  O   UNL     1       2.736   4.535  20.634  0.00  0.00    +0.000 OA
BRANCH   3   6
ATOM      6  C   UNL     1       4.266   3.950  17.374  0.00  0.00    +0.000 C 
BRANCH   6   7
ATOM      7  C   UNL     1       5.733   4.237  17.385  0.00  0.00    +0.000 A 
ATOM      8  N   UNL     1       6.511   4.472  18.427  0.00  0.00    +0.000 NA
ATOM      9  C   UNL     1       7.746   4.630  17.872  0.00  0.00    +0.000 A 
ATOM     10  N   UNL     1       7.795   4.504  16.545  0.00  0.00    +0.000 NA
ATOM     11  N   UNL     1       6.510   4.243  16.254  0.00  0.00    +0.000 N 
ATOM     12  C   UNL     1       6.115   3.992  14.891  0.00  0.00    +0.000 C 
ENDBRANCH   6   7
ENDBRANCH   3   6
ENDBRANCH   1   4
BRANCH   1  13
ATOM     13  C   UNL     1       2.063   6.949  19.099  0.00  0.00    +0.000 C 
BRANCH  13  14
ATOM     14  C   UNL     1       1.871   7.806  20.350  0.00  0.00    +0.000 C 
BRANCH  14  15
ATOM     15  N   UNL     1       1.049   8.984  20.125  0.00  0.00    +0.000 N 
ATOM     16  C   UNL     1       0.969   9.640  18.919  0.00  0.00    +0.000 A 
ATOM     17  C   UNL     1       0.195  10.761  19.095  0.00  0.00    +0.000 A 
ATOM     18  C   UNL     1      -0.247  10.775  20.446  0.00  0.00    +0.000 A 
ATOM     19  C   UNL     1      -1.054  11.653  21.192  0.00  0.00    +0.000 A 
ATOM     20  C   UNL     1      -1.321  11.363  22.532  0.00  0.00    +0.000 A 
ATOM     21 CL   UNL     1      -2.296  12.439  23.454  0.00  0.00    +0.000 Cl
ATOM     22  C   UNL     1      -0.810  10.214  23.132  0.00  0.00    +0.000 A 
ATOM     23  C   UNL     1       0.003   9.334  22.412  0.00  0.00    +0.000 A 
ATOM     24  C   UNL     1       0.279   9.635  21.069  0.00  0.00    +0.000 A 
ENDBRANCH  14  15
ENDBRANCH  13  14
ENDBRANCH   1  13
TORSDOF 6
ENDMDL
MODEL 8
REMARK VINA RESULT:      -7.1      1.184      1.394
REMARK  Name = 
REMARK  8 active torsions:
REMARK  status: ('A' for Active; 'I' for Inactive)
REMARK    1  A    between atoms: C_1  and  N_2
REMARK    2  A    between atoms: N_2  and  C_3
REMARK    3  A    between atoms: C_3  and  C_4
REMARK    4  A    between atoms: N_8  and  C_9
REMARK    5  A    between atoms: C_10  and  C_12
REMARK    6  A    between atoms: C_12  and  C_13
REMARK    7  A    between atoms: C_13  and  C_14
REMARK    8  A    between atoms: C_14  and  N_15
REMARK                            x       y       z     vdW  Elec       q    Type
REMARK                         _______ _______ _______ _____ _____    ______ ____
ROOT
ATOM      1  C   UNL     1       3.243   5.139  20.013  0.00  0.00    +0.000 C 
ENDROOT
BRANCH   1   4
ATOM      2  C   UNL     1       3.600   1.971  17.920  0.00  0.00    +0.000 C 
ATOM      3  N   UNL     1       3.650   3.369  18.312  0.00  0.00    +0.000 N 
ATOM      4  C   UNL     1       3.148   3.690  19.564  0.00  0.00    +0.000 C 
ATOM      5  O   UNL     1       2.635   2.837  20.291  0.00  0.00    +0.000 OA
BRANCH   3   6
ATOM      6  C   UNL     1       4.159   4.326  17.328  0.00  0.00    +0.000 C 
BRANCH   6   7
ATOM      7  C   UNL     1       5.648   4.436  17.388  0.00  0.00    +0.000 A 
ATOM      8  N   UNL     1       6.410   4.642  18.447  0.00  0.00    +0.000 NA
ATOM      9  C   UNL     1       7.675   4.617  17.939  0.00  0.00    +0.000 A 
ATOM     10  N   UNL     1       7.758   4.400  16.625  0.00  0.00    +0.000 NA
ATOM     11  N   UNL     1       6.462   4.277  16.294  0.00  0.00    +0.000 N 
ATOM     12  C   UNL     1       6.089   3.988  14.932  0.00  0.00    +0.000 C 
ENDBRANCH   6   7
ENDBRANCH   3   6
ENDBRANCH   1   4
BRANCH   1  13
ATOM     13  C   UNL     1       1.851   5.741  20.237  0.00  0.00    +0.000 C 
BRANCH  13  14
ATOM     14  C   UNL     1       1.882   7.163  20.799  0.00  0.00    +0.000 C 
BRANCH  14  15
ATOM     15  N   UNL     1       1.630   8.187  19.799  0.00  0.00    +0.000 N 
ATOM     16  C   UNL     1       2.190   8.183  18.543  0.00  0.00    +0.000 A 
ATOM     17  C   UNL     1       1.824   9.346  17.910  0.00  0.00    +0.000 A 
ATOM     18  C   UNL     1       0.979  10.072  18.792  0.00  0.00    +0.000 A 
ATOM     19  C   UNL     1       0.309  11.305  18.695  0.00  0.00    +0.000 A 
ATOM     20  C   UNL     1      -0.480  11.739  19.763  0.00  0.00    +0.000 A 
ATOM     21 CL   UNL     1      -1.294  13.251  19.656  0.00  0.00    +0.000 Cl
ATOM     22  C   UNL     1      -0.620  10.964  20.912  0.00  0.00    +0.000 A 
ATOM     23  C   UNL     1       0.046   9.741  21.034  0.00  0.00    +0.000 A 
ATOM     24  C   UNL     1       0.848   9.314  19.964  0.00  0.00    +0.000 A 
ENDBRANCH  14  15
ENDBRANCH  13  14
ENDBRANCH   1  13
TORSDOF 6
ENDMDL
MODEL 9
REMARK VINA RESULT:      -7.1      2.392      3.334
REMARK  Name = 
REMARK  8 active torsions:
REMARK  status: ('A' for Active; 'I' for Inactive)
REMARK    1  A    between atoms: C_1  and  N_2
REMARK    2  A    between atoms: N_2  and  C_3
REMARK    3  A    between atoms: C_3  and  C_4
REMARK    4  A    between atoms: N_8  and  C_9
REMARK    5  A    between atoms: C_10  and  C_12
REMARK    6  A    between atoms: C_12  and  C_13
REMARK    7  A    between atoms: C_13  and  C_14
REMARK    8  A    between atoms: C_14  and  N_15
REMARK                            x       y       z     vdW  Elec       q    Type
REMARK                         _______ _______ _______ _____ _____    ______ ____
ROOT
ATOM      1  C   UNL     1       3.224   7.159  18.029  0.00  0.00    +0.000 C 
ENDROOT
BRANCH   1   4
ATOM      2  C   UNL     1       3.909   3.526  18.967  0.00  0.00    +0.000 C 
ATOM      3  N   UNL     1       4.129   4.932  18.671  0.00  0.00    +0.000 N 
ATOM      4  C   UNL     1       3.022   5.675  18.289  0.00  0.00    +0.000 C 
ATOM      5  O   UNL     1       1.912   5.156  18.155  0.00  0.00    +0.000 OA
BRANCH   3   6
ATOM      6  C   UNL     1       5.505   5.425  18.734  0.00  0.00    +0.000 C 
BRANCH   6   7
ATOM      7  C   UNL     1       6.208   5.264  17.425  0.00  0.00    +0.000 A 
ATOM      8  N   UNL     1       6.089   4.282  16.549  0.00  0.00    +0.000 NA
ATOM      9  C   UNL     1       6.919   4.657  15.535  0.00  0.00    +0.000 A 
ATOM     10  N   UNL     1       7.548   5.820  15.714  0.00  0.00    +0.000 NA
ATOM     11  N   UNL     1       7.076   6.196  16.914  0.00  0.00    +0.000 N 
ATOM     12  C   UNL     1       7.481   7.455  17.487  0.00  0.00    +0.000 C 
ENDBRANCH   6   7
ENDBRANCH   3   6
ENDBRANCH   1   4
BRANCH   1  13
ATOM     13  C   UNL     1       2.071   7.984  18.612  0.00  0.00    +0.000 C 
BRANCH  13  14
ATOM     14  C   UNL     1       1.663   9.169  17.736  0.00  0.00    +0.000 C 
BRANCH  14  15
ATOM     15  N   UNL     1       0.808  10.127  18.418  0.00  0.00    +0.000 N 
ATOM     16  C   UNL     1       1.232  10.926  19.454  0.00  0.00    +0.000 A 
ATOM     17  C   UNL     1       0.145  11.621  19.927  0.00  0.00    +0.000 A 
ATOM     18  C   UNL     1      -0.977  11.266  19.130  0.00  0.00    +0.000 A 
ATOM     19  C   UNL     1      -2.330  11.651  19.136  0.00  0.00    +0.000 A 
ATOM     20  C   UNL     1      -3.196  11.117  18.179  0.00  0.00    +0.000 A 
ATOM     21 CL   UNL     1      -4.855  11.574  18.188  0.00  0.00    +0.000 Cl
ATOM     22  C   UNL     1      -2.737  10.221  17.216  0.00  0.00    +0.000 A 
ATOM     23  C   UNL     1      -1.398   9.816  17.199  0.00  0.00    +0.000 A 
ATOM     24  C   UNL     1      -0.533  10.346  18.170  0.00  0.00    +0.000 A 
ENDBRANCH  14  15
ENDBRANCH  13  14
ENDBRANCH   1  13
TORSDOF 6
ENDMDL
