MODEL 1
REMARK VINA RESULT:      -8.9      0.000      0.000
REMARK  Name = 
REMARK  5 active torsions:
REMARK  status: ('A' for Active; 'I' for Inactive)
REMARK    1  A    between atoms: C_1  and  C_2
REMARK    2  A    between atoms: C_2  and  C_3
REMARK    3  A    between atoms: C_3  and  C_4
REMARK    4  A    between atoms: C_3  and  N_13
REMARK    5  A    between atoms: C_14  and  C_15
REMARK                            x       y       z     vdW  Elec       q    Type
REMARK                         _______ _______ _______ _____ _____    ______ ____
ROOT
ATOM      1  N   UNL     1       3.887   5.137  18.206  0.00  0.00    +0.000 N 
ATOM      2  C   UNL     1       3.125   5.890  19.088  0.00  0.00    +0.000 A 
ATOM      3  N   UNL     1       2.957   5.201  20.207  0.00  0.00    +0.000 NA
ATOM      4  C   UNL     1       3.177   3.905  19.880  0.00  0.00    +0.000 A 
ATOM      5  C   UNL     1       2.652   2.810  20.585  0.00  0.00    +0.000 A 
ATOM      6  C   UNL     1       1.676   2.181  19.852  0.00  0.00    +0.000 A 
ATOM      7  C   UNL     1       1.837   2.106  18.451  0.00  0.00    +0.000 A 
ATOM      8  C   UNL     1       2.861   2.808  17.762  0.00  0.00    +0.000 A 
ATOM      9  C   UNL     1       3.458   3.830  18.514  0.00  0.00    +0.000 A 
ENDROOT
BRANCH   2  10
ATOM     10  C   UNL     1       2.693   7.254  18.948  0.00  0.00    +0.000 A 
ATOM     11  C   UNL     1       2.827   7.885  17.719  0.00  0.00    +0.000 A 
ATOM     12  N   UNL     1       2.182   9.025  17.416  0.00  0.00    +0.000 NA
ATOM     13  C   UNL     1       1.392   9.496  18.412  0.00  0.00    +0.000 A 
ATOM     14  C   UNL     1       1.343   8.919  19.674  0.00  0.00    +0.000 A 
ATOM     15  N   UNL     1       2.025   7.804  19.983  0.00  0.00    +0.000 NA
ENDBRANCH   2  10
BRANCH   1  16
ATOM     16  C   UNL     1       5.256   5.541  17.812  0.00  0.00    +0.000 C 
BRANCH  16  17
ATOM     17  C   UNL     1       5.520   5.380  16.304  0.00  0.00    +0.000 A 
ATOM     18  N   UNL     1       4.787   4.633  15.489  0.00  0.00    +0.000 NA
ATOM     19  C   UNL     1       5.528   4.449  14.363  0.00  0.00    +0.000 A 
ATOM     20  C   UNL     1       5.293   3.592  13.281  0.00  0.00    +0.000 A 
ATOM     21  C   UNL     1       6.287   3.470  12.304  0.00  0.00    +0.000 A 
ATOM     22  C   UNL     1       7.452   4.241  12.376  0.00  0.00    +0.000 A 
ATOM     23  C   UNL     1       7.669   5.149  13.424  0.00  0.00    +0.000 A 
ATOM     24  C   UNL     1       6.695   5.203  14.419  0.00  0.00    +0.000 A 
ATOM     25  N   UNL     1       6.610   5.873  15.621  0.00  0.00    +0.000 N 
ATOM     26  H   UNL     1       7.293   6.524  15.984  0.00  0.00    +0.000 HD
ENDBRANCH  16  17
BRANCH  16  28
ATOM     27  C   UNL     1       7.566   5.739  19.158  0.00  0.00    +0.000 C 
ATOM     28  C   UNL     1       6.503   4.889  18.508  0.00  0.00    +0.000 C 
ENDBRANCH  16  28
ENDBRANCH   1  16
TORSDOF 4
ENDMDL
MODEL 2
REMARK VINA RESULT:      -8.8      0.414      1.186
REMARK  Name = 
REMARK  5 active torsions:
REMARK  status: ('A' for Active; 'I' for Inactive)
REMARK    1  A    between atoms: C_1  and  C_2
REMARK    2  A    between atoms: C_2  and  C_3
REMARK    3  A    between atoms: C_3  and  C_4
REMARK    4  A    between atoms: C_3  and  N_13
REMARK    5  A    between atoms: C_14  and  C_15
REMARK                            x       y       z     vdW  Elec       q    Type
REMARK                         _______ _______ _______ _____ _____    ______ ____
ROOT
ATOM      1  N   UNL     1       4.075   5.165  18.115  0.00  0.00    +0.000 N 
ATOM      2  C   UNL     1       3.238   5.867  18.972  0.00  0.00    +0.000 A 
ATOM      3  N   UNL     1       3.013   5.131  20.051  0.00  0.00    +0.000 NA
ATOM      4  C   UNL     1       3.285   3.853  19.691  0.00  0.00    +0.000 A 
ATOM      5  C   UNL     1       2.741   2.721  20.316  0.00  0.00    +0.000 A 
ATOM      6  C   UNL     1       1.830   2.101  19.496  0.00  0.00    +0.000 A 
ATOM      7  C   UNL     1       2.085   2.085  18.108  0.00  0.00    +0.000 A 
ATOM      8  C   UNL     1       3.135   2.835  17.515  0.00  0.00    +0.000 A 
ATOM      9  C   UNL     1       3.657   3.839  18.344  0.00  0.00    +0.000 A 
ENDROOT
BRANCH   2  10
ATOM     10  C   UNL     1       2.784   7.226  18.857  0.00  0.00    +0.000 A 
ATOM     11  C   UNL     1       2.925   7.886  17.643  0.00  0.00    +0.000 A 
ATOM     12  N   UNL     1       2.264   9.021  17.356  0.00  0.00    +0.000 NA
ATOM     13  C   UNL     1       1.451   9.456  18.351  0.00  0.00    +0.000 A 
ATOM     14  C   UNL     1       1.395   8.851  19.599  0.00  0.00    +0.000 A 
ATOM     15  N   UNL     1       2.092   7.741  19.894  0.00  0.00    +0.000 NA
ENDBRANCH   2  10
BRANCH   1  16
ATOM     16  C   UNL     1       5.457   5.613  17.830  0.00  0.00    +0.000 C 
BRANCH  16  17
ATOM     17  C   UNL     1       6.017   5.035  16.517  0.00  0.00    +0.000 A 
ATOM     18  N   UNL     1       7.077   5.513  15.878  0.00  0.00    +0.000 NA
ATOM     19  C   UNL     1       7.031   5.002  14.619  0.00  0.00    +0.000 A 
ATOM     20  C   UNL     1       7.806   5.336  13.501  0.00  0.00    +0.000 A 
ATOM     21  C   UNL     1       7.466   4.773  12.267  0.00  0.00    +0.000 A 
ATOM     22  C   UNL     1       6.422   3.847  12.172  0.00  0.00    +0.000 A 
ATOM     23  C   UNL     1       5.680   3.459  13.297  0.00  0.00    +0.000 A 
ATOM     24  C   UNL     1       5.995   4.083  14.503  0.00  0.00    +0.000 A 
ATOM     25  N   UNL     1       5.433   4.043  15.761  0.00  0.00    +0.000 N 
ATOM     26  H   UNL     1       4.652   3.466  16.042  0.00  0.00    +0.000 HD
ENDBRANCH  16  17
BRANCH  16  28
ATOM     27  C   UNL     1       7.826   6.257  18.906  0.00  0.00    +0.000 C 
ATOM     28  C   UNL     1       6.595   5.384  18.885  0.00  0.00    +0.000 C 
ENDBRANCH  16  28
ENDBRANCH   1  16
TORSDOF 4
ENDMDL
MODEL 3
REMARK VINA RESULT:      -8.6      2.435      6.912
REMARK  Name = 
REMARK  5 active torsions:
REMARK  status: ('A' for Active; 'I' for Inactive)
REMARK    1  A    between atoms: C_1  and  C_2
REMARK    2  A    between atoms: C_2  and  C_3
REMARK    3  A    between atoms: C_3  and  C_4
REMARK    4  A    between atoms: C_3  and  N_13
REMARK    5  A    between atoms: C_14  and  C_15
REMARK                            x       y       z     vdW  Elec       q    Type
REMARK                         _______ _______ _______ _____ _____    ______ ____
ROOT
ATOM      1  N   UNL     1       3.233   5.558  19.431  0.00  0.00    +0.000 N 
ATOM      2  C   UNL     1       4.083   4.694  18.755  0.00  0.00    +0.000 A 
ATOM      3  N   UNL     1       3.358   3.878  18.003  0.00  0.00    +0.000 NA
ATOM      4  C   UNL     1       2.113   3.892  18.536  0.00  0.00    +0.000 A 
ATOM      5  C   UNL     1       1.178   2.855  18.394  0.00  0.00    +0.000 A 
ATOM      6  C   UNL     1       1.004   2.189  19.583  0.00  0.00    +0.000 A 
ATOM      7  C   UNL     1       1.051   2.936  20.779  0.00  0.00    +0.000 A 
ATOM      8  C   UNL     1       1.451   4.298  20.814  0.00  0.00    +0.000 A 
ATOM      9  C   UNL     1       2.116   4.727  19.656  0.00  0.00    +0.000 A 
ENDROOT
BRANCH   2  10
ATOM     10  C   UNL     1       5.519   4.723  18.699  0.00  0.00    +0.000 A 
ATOM     11  C   UNL     1       6.158   4.402  17.508  0.00  0.00    +0.000 A 
ATOM     12  N   UNL     1       7.449   4.696  17.277  0.00  0.00    +0.000 NA
ATOM     13  C   UNL     1       8.064   5.334  18.304  0.00  0.00    +0.000 A 
ATOM     14  C   UNL     1       7.452   5.557  19.530  0.00  0.00    +0.000 A 
ATOM     15  N   UNL     1       6.173   5.221  19.768  0.00  0.00    +0.000 NA
ENDBRANCH   2  10
BRANCH   1  16
ATOM     16  C   UNL     1       3.203   7.010  19.145  0.00  0.00    +0.000 C 
BRANCH  16  17
ATOM     17  C   UNL     1       2.046   7.739  19.853  0.00  0.00    +0.000 A 
ATOM     18  N   UNL     1       1.248   8.625  19.271  0.00  0.00    +0.000 NA
ATOM     19  C   UNL     1       0.625   9.300  20.274  0.00  0.00    +0.000 A 
ATOM     20  C   UNL     1      -0.170  10.451  20.204  0.00  0.00    +0.000 A 
ATOM     21  C   UNL     1      -0.578  11.049  21.400  0.00  0.00    +0.000 A 
ATOM     22  C   UNL     1      -0.255  10.467  22.630  0.00  0.00    +0.000 A 
ATOM     23  C   UNL     1       0.489   9.281  22.710  0.00  0.00    +0.000 A 
ATOM     24  C   UNL     1       0.939   8.740  21.507  0.00  0.00    +0.000 A 
ATOM     25  N   UNL     1       1.760   7.676  21.199  0.00  0.00    +0.000 N 
ATOM     26  H   UNL     1       2.172   7.036  21.864  0.00  0.00    +0.000 HD
ENDBRANCH  16  17
BRANCH  16  28
ATOM     27  C   UNL     1       4.382   7.519  16.792  0.00  0.00    +0.000 C 
ATOM     28  C   UNL     1       3.149   7.522  17.662  0.00  0.00    +0.000 C 
ENDBRANCH  16  28
ENDBRANCH   1  16
TORSDOF 4
ENDMDL
MODEL 4
REMARK VINA RESULT:      -8.4      2.565      7.189
REMARK  Name = 
REMARK  5 active torsions:
REMARK  status: ('A' for Active; 'I' for Inactive)
REMARK    1  A    between atoms: C_1  and  C_2
REMARK    2  A    between atoms: C_2  and  C_3
REMARK    3  A    between atoms: C_3  and  C_4
REMARK    4  A    between atoms: C_3  and  N_13
REMARK    5  A    between atoms: C_14  and  C_15
REMARK                            x       y       z     vdW  Elec       q    Type
REMARK                         _______ _______ _______ _____ _____    ______ ____
ROOT
ATOM      1  N   UNL     1       2.991   6.151  19.327  0.00  0.00    +0.000 N 
ATOM      2  C   UNL     1       3.858   5.441  18.508  0.00  0.00    +0.000 A 
ATOM      3  N   UNL     1       3.153   4.610  17.753  0.00  0.00    +0.000 NA
ATOM      4  C   UNL     1       1.968   4.447  18.391  0.00  0.00    +0.000 A 
ATOM      5  C   UNL     1       1.136   3.327  18.241  0.00  0.00    +0.000 A 
ATOM      6  C   UNL     1       1.144   2.556  19.377  0.00  0.00    +0.000 A 
ATOM      7  C   UNL     1       1.228   3.210  20.626  0.00  0.00    +0.000 A 
ATOM      8  C   UNL     1       1.487   4.601  20.744  0.00  0.00    +0.000 A 
ATOM      9  C   UNL     1       1.992   5.189  19.575  0.00  0.00    +0.000 A 
ENDROOT
BRANCH   2  10
ATOM     10  C   UNL     1       5.272   5.632  18.332  0.00  0.00    +0.000 A 
ATOM     11  C   UNL     1       5.724   6.401  17.268  0.00  0.00    +0.000 A 
ATOM     12  N   UNL     1       6.978   6.882  17.204  0.00  0.00    +0.000 NA
ATOM     13  C   UNL     1       7.753   6.552  18.268  0.00  0.00    +0.000 A 
ATOM     14  C   UNL     1       7.328   5.697  19.275  0.00  0.00    +0.000 A 
ATOM     15  N   UNL     1       6.086   5.185  19.309  0.00  0.00    +0.000 NA
ENDBRANCH   2  10
BRANCH   1  16
ATOM     16  C   UNL     1       2.786   7.609  19.171  0.00  0.00    +0.000 C 
BRANCH  16  17
ATOM     17  C   UNL     1       1.651   8.154  20.058  0.00  0.00    +0.000 A 
ATOM     18  N   UNL     1       0.680   8.950  19.629  0.00  0.00    +0.000 NA
ATOM     19  C   UNL     1       0.116   9.501  20.737  0.00  0.00    +0.000 A 
ATOM     20  C   UNL     1      -0.819  10.540  20.830  0.00  0.00    +0.000 A 
ATOM     21  C   UNL     1      -1.136  11.036  22.098  0.00  0.00    +0.000 A 
ATOM     22  C   UNL     1      -0.585  10.455  23.246  0.00  0.00    +0.000 A 
ATOM     23  C   UNL     1       0.304   9.373  23.167  0.00  0.00    +0.000 A 
ATOM     24  C   UNL     1       0.656   8.941  21.890  0.00  0.00    +0.000 A 
ATOM     25  N   UNL     1       1.555   8.006  21.424  0.00  0.00    +0.000 N 
ATOM     26  H   UNL     1       2.127   7.399  21.996  0.00  0.00    +0.000 HD
ENDBRANCH  16  17
BRANCH  16  28
ATOM     27  C   UNL     1       2.383   9.712  17.559  0.00  0.00    +0.000 C 
ATOM     28  C   UNL     1       2.514   8.222  17.752  0.00  0.00    +0.000 C 
ENDBRANCH  16  28
ENDBRANCH   1  16
TORSDOF 4
ENDMDL
MODEL 5
REMARK VINA RESULT:      -8.3      2.183      7.243
REMARK  Name = 
REMARK  5 active torsions:
REMARK  status: ('A' for Active; 'I' for Inactive)
REMARK    1  A    between atoms: C_1  and  C_2
REMARK    2  A    between atoms: C_2  and  C_3
REMARK    3  A    between atoms: C_3  and  C_4
REMARK    4  A    between atoms: C_3  and  N_13
REMARK    5  A    between atoms: C_14  and  C_15
REMARK                            x       y       z     vdW  Elec       q    Type
REMARK                         _______ _______ _______ _____ _____    ______ ____
ROOT
ATOM      1  N   UNL     1       2.961   5.903  19.328  0.00  0.00    +0.000 N 
ATOM      2  C   UNL     1       3.733   5.135  18.468  0.00  0.00    +0.000 A 
ATOM      3  N   UNL     1       2.935   4.349  17.760  0.00  0.00    +0.000 NA
ATOM      4  C   UNL     1       1.779   4.266  18.463  0.00  0.00    +0.000 A 
ATOM      5  C   UNL     1       0.869   3.202  18.367  0.00  0.00    +0.000 A 
ATOM      6  C   UNL     1       0.890   2.437  19.507  0.00  0.00    +0.000 A 
ATOM      7  C   UNL     1       1.085   3.089  20.744  0.00  0.00    +0.000 A 
ATOM      8  C   UNL     1       1.440   4.460  20.838  0.00  0.00    +0.000 A 
ATOM      9  C   UNL     1       1.917   5.009  19.638  0.00  0.00    +0.000 A 
ENDROOT
BRANCH   2  10
ATOM     10  C   UNL     1       5.145   5.232  18.213  0.00  0.00    +0.000 A 
ATOM     11  C   UNL     1       6.021   5.339  19.285  0.00  0.00    +0.000 A 
ATOM     12  N   UNL     1       7.342   5.125  19.164  0.00  0.00    +0.000 NA
ATOM     13  C   UNL     1       7.737   4.794  17.909  0.00  0.00    +0.000 A 
ATOM     14  C   UNL     1       6.874   4.792  16.822  0.00  0.00    +0.000 A 
ATOM     15  N   UNL     1       5.562   5.049  16.944  0.00  0.00    +0.000 NA
ENDBRANCH   2  10
BRANCH   1  16
ATOM     16  C   UNL     1       2.843   7.371  19.173  0.00  0.00    +0.000 C 
BRANCH  16  17
ATOM     17  C   UNL     1       1.718   7.977  20.033  0.00  0.00    +0.000 A 
ATOM     18  N   UNL     1       0.775   8.788  19.572  0.00  0.00    +0.000 NA
ATOM     19  C   UNL     1       0.219   9.390  20.658  0.00  0.00    +0.000 A 
ATOM     20  C   UNL     1      -0.684  10.459  20.710  0.00  0.00    +0.000 A 
ATOM     21  C   UNL     1      -0.996  11.003  21.960  0.00  0.00    +0.000 A 
ATOM     22  C   UNL     1      -0.470  10.443  23.129  0.00  0.00    +0.000 A 
ATOM     23  C   UNL     1       0.386   9.332  23.092  0.00  0.00    +0.000 A 
ATOM     24  C   UNL     1       0.734   8.850  21.831  0.00  0.00    +0.000 A 
ATOM     25  N   UNL     1       1.608   7.874  21.403  0.00  0.00    +0.000 N 
ATOM     26  H   UNL     1       2.157   7.269  21.998  0.00  0.00    +0.000 HD
ENDBRANCH  16  17
BRANCH  16  28
ATOM     27  C   UNL     1       2.502   9.493  17.572  0.00  0.00    +0.000 C 
ATOM     28  C   UNL     1       2.642   8.001  17.751  0.00  0.00    +0.000 C 
ENDBRANCH  16  28
ENDBRANCH   1  16
TORSDOF 4
ENDMDL
MODEL 6
REMARK VINA RESULT:      -8.2      4.022      7.585
REMARK  Name = 
REMARK  5 active torsions:
REMARK  status: ('A' for Active; 'I' for Inactive)
REMARK    1  A    between atoms: C_1  and  C_2
REMARK    2  A    between atoms: C_2  and  C_3
REMARK    3  A    between atoms: C_3  and  C_4
REMARK    4  A    between atoms: C_3  and  N_13
REMARK    5  A    between atoms: C_14  and  C_15
REMARK                            x       y       z     vdW  Elec       q    Type
REMARK                         _______ _______ _______ _____ _____    ______ ____
ROOT
ATOM      1  N   UNL     1       0.411  10.516  19.797  0.00  0.00    +0.000 N 
ATOM      2  C   UNL     1       0.561  11.896  19.782  0.00  0.00    +0.000 A 
ATOM      3  N   UNL     1      -0.638  12.459  19.839  0.00  0.00    +0.000 NA
ATOM      4  C   UNL     1      -1.512  11.510  19.421  0.00  0.00    +0.000 A 
ATOM      5  C   UNL     1      -2.770  11.784  18.864  0.00  0.00    +0.000 A 
ATOM      6  C   UNL     1      -2.781  11.498  17.520  0.00  0.00    +0.000 A 
ATOM      7  C   UNL     1      -2.036  10.387  17.068  0.00  0.00    +0.000 A 
ATOM      8  C   UNL     1      -1.139   9.676  17.909  0.00  0.00    +0.000 A 
ATOM      9  C   UNL     1      -0.795  10.360  19.084  0.00  0.00    +0.000 A 
ENDROOT
BRANCH   2  10
ATOM     10  C   UNL     1       1.776  12.659  19.859  0.00  0.00    +0.000 A 
ATOM     11  C   UNL     1       2.411  13.043  18.685  0.00  0.00    +0.000 A 
ATOM     12  N   UNL     1       3.355  13.999  18.652  0.00  0.00    +0.000 NA
ATOM     13  C   UNL     1       3.626  14.552  19.861  0.00  0.00    +0.000 A 
ATOM     14  C   UNL     1       3.065  14.093  21.044  0.00  0.00    +0.000 A 
ATOM     15  N   UNL     1       2.154  13.107  21.075  0.00  0.00    +0.000 NA
ENDBRANCH   2  10
BRANCH   1  16
ATOM     16  C   UNL     1       0.869   9.691  20.938  0.00  0.00    +0.000 C 
BRANCH  16  17
ATOM     17  C   UNL     1       1.550   8.382  20.498  0.00  0.00    +0.000 A 
ATOM     18  N   UNL     1       2.052   8.166  19.289  0.00  0.00    +0.000 NA
ATOM     19  C   UNL     1       2.215   6.821  19.174  0.00  0.00    +0.000 A 
ATOM     20  C   UNL     1       2.537   6.064  18.040  0.00  0.00    +0.000 A 
ATOM     21  C   UNL     1       2.499   4.670  18.142  0.00  0.00    +0.000 A 
ATOM     22  C   UNL     1       2.217   4.054  19.366  0.00  0.00    +0.000 A 
ATOM     23  C   UNL     1       1.955   4.804  20.522  0.00  0.00    +0.000 A 
ATOM     24  C   UNL     1       1.933   6.190  20.380  0.00  0.00    +0.000 A 
ATOM     25  N   UNL     1       1.617   7.222  21.238  0.00  0.00    +0.000 N 
ATOM     26  H   UNL     1       1.366   7.125  22.213  0.00  0.00    +0.000 HD
ENDBRANCH  16  17
BRANCH  16  28
ATOM     27  C   UNL     1      -0.760  10.276  22.984  0.00  0.00    +0.000 C 
ATOM     28  C   UNL     1      -0.143   9.259  22.056  0.00  0.00    +0.000 C 
ENDBRANCH  16  28
ENDBRANCH   1  16
TORSDOF 4
ENDMDL
MODEL 7
REMARK VINA RESULT:      -8.1      0.821      1.615
REMARK  Name = 
REMARK  5 active torsions:
REMARK  status: ('A' for Active; 'I' for Inactive)
REMARK    1  A    between atoms: C_1  and  C_2
REMARK    2  A    between atoms: C_2  and  C_3
REMARK    3  A    between atoms: C_3  and  C_4
REMARK    4  A    between atoms: C_3  and  N_13
REMARK    5  A    between atoms: C_14  and  C_15
REMARK                            x       y       z     vdW  Elec       q    Type
REMARK                         _______ _______ _______ _____ _____    ______ ____
ROOT
ATOM      1  N   UNL     1       4.019   5.408  17.748  0.00  0.00    +0.000 N 
ATOM      2  C   UNL     1       3.257   5.965  18.766  0.00  0.00    +0.000 A 
ATOM      3  N   UNL     1       3.450   5.269  19.878  0.00  0.00    +0.000 NA
ATOM      4  C   UNL     1       3.917   4.061  19.481  0.00  0.00    +0.000 A 
ATOM      5  C   UNL     1       3.797   2.881  20.231  0.00  0.00    +0.000 A 
ATOM      6  C   UNL     1       2.892   2.025  19.652  0.00  0.00    +0.000 A 
ATOM      7  C   UNL     1       2.829   1.974  18.242  0.00  0.00    +0.000 A 
ATOM      8  C   UNL     1       3.523   2.895  17.413  0.00  0.00    +0.000 A 
ATOM      9  C   UNL     1       3.975   4.040  18.085  0.00  0.00    +0.000 A 
ENDROOT
BRANCH   2  10
ATOM     10  C   UNL     1       2.493   7.182  18.740  0.00  0.00    +0.000 A 
ATOM     11  C   UNL     1       1.870   7.616  19.903  0.00  0.00    +0.000 A 
ATOM     12  N   UNL     1       1.407   8.869  20.052  0.00  0.00    +0.000 NA
ATOM     13  C   UNL     1       1.607   9.666  18.973  0.00  0.00    +0.000 A 
ATOM     14  C   UNL     1       2.135   9.198  17.777  0.00  0.00    +0.000 A 
ATOM     15  N   UNL     1       2.556   7.932  17.621  0.00  0.00    +0.000 NA
ENDBRANCH   2  10
BRANCH   1  16
ATOM     16  C   UNL     1       5.165   6.126  17.145  0.00  0.00    +0.000 C 
BRANCH  16  17
ATOM     17  C   UNL     1       5.802   5.362  15.969  0.00  0.00    +0.000 A 
ATOM     18  N   UNL     1       6.942   5.702  15.383  0.00  0.00    +0.000 NA
ATOM     19  C   UNL     1       6.976   5.042  14.195  0.00  0.00    +0.000 A 
ATOM     20  C   UNL     1       7.867   5.194  13.124  0.00  0.00    +0.000 A 
ATOM     21  C   UNL     1       7.603   4.502  11.939  0.00  0.00    +0.000 A 
ATOM     22  C   UNL     1       6.516   3.626  11.855  0.00  0.00    +0.000 A 
ATOM     23  C   UNL     1       5.653   3.419  12.942  0.00  0.00    +0.000 A 
ATOM     24  C   UNL     1       5.899   4.170  14.089  0.00  0.00    +0.000 A 
ATOM     25  N   UNL     1       5.226   4.315  15.284  0.00  0.00    +0.000 N 
ATOM     26  H   UNL     1       4.388   3.818  15.555  0.00  0.00    +0.000 HD
ENDBRANCH  16  17
BRANCH  16  28
ATOM     27  C   UNL     1       7.174   5.560  18.826  0.00  0.00    +0.000 C 
ATOM     28  C   UNL     1       6.377   6.569  18.037  0.00  0.00    +0.000 C 
ENDBRANCH  16  28
ENDBRANCH   1  16
TORSDOF 4
ENDMDL
MODEL 8
REMARK VINA RESULT:      -7.9      3.328      7.124
REMARK  Name = 
REMARK  5 active torsions:
REMARK  status: ('A' for Active; 'I' for Inactive)
REMARK    1  A    between atoms: C_1  and  C_2
REMARK    2  A    between atoms: C_2  and  C_3
REMARK    3  A    between atoms: C_3  and  C_4
REMARK    4  A    between atoms: C_3  and  N_13
REMARK    5  A    between atoms: C_14  and  C_15
REMARK                            x       y       z     vdW  Elec       q    Type
REMARK                         _______ _______ _______ _____ _____    ______ ____
ROOT
ATOM      1  N   UNL     1       0.392  10.402  19.397  0.00  0.00    +0.000 N 
ATOM      2  C   UNL     1       0.513  11.770  19.600  0.00  0.00    +0.000 A 
ATOM      3  N   UNL     1      -0.685  12.273  19.860  0.00  0.00    +0.000 NA
ATOM      4  C   UNL     1      -1.577  11.377  19.372  0.00  0.00    +0.000 A 
ATOM      5  C   UNL     1      -2.888  11.694  18.987  0.00  0.00    +0.000 A 
ATOM      6  C   UNL     1      -3.024  11.633  17.621  0.00  0.00    +0.000 A 
ATOM      7  C   UNL     1      -2.305  10.639  16.923  0.00  0.00    +0.000 A 
ATOM      8  C   UNL     1      -1.317   9.830  17.547  0.00  0.00    +0.000 A 
ATOM      9  C   UNL     1      -0.874  10.323  18.783  0.00  0.00    +0.000 A 
ENDROOT
BRANCH   2  10
ATOM     10  C   UNL     1       1.715  12.553  19.692  0.00  0.00    +0.000 A 
ATOM     11  C   UNL     1       2.338  12.976  18.525  0.00  0.00    +0.000 A 
ATOM     12  N   UNL     1       3.266  13.949  18.512  0.00  0.00    +0.000 NA
ATOM     13  C   UNL     1       3.532  14.477  19.733  0.00  0.00    +0.000 A 
ATOM     14  C   UNL     1       2.984  13.978  20.907  0.00  0.00    +0.000 A 
ATOM     15  N   UNL     1       2.090  12.976  20.916  0.00  0.00    +0.000 NA
ENDBRANCH   2  10
BRANCH   1  16
ATOM     16  C   UNL     1       0.974   9.417  20.338  0.00  0.00    +0.000 C 
BRANCH  16  17
ATOM     17  C   UNL     1       1.684   8.251  19.624  0.00  0.00    +0.000 A 
ATOM     18  N   UNL     1       1.960   7.083  20.187  0.00  0.00    +0.000 NA
ATOM     19  C   UNL     1       2.889   6.483  19.396  0.00  0.00    +0.000 A 
ATOM     20  C   UNL     1       3.643   5.328  19.638  0.00  0.00    +0.000 A 
ATOM     21  C   UNL     1       4.653   4.993  18.731  0.00  0.00    +0.000 A 
ATOM     22  C   UNL     1       4.851   5.757  17.576  0.00  0.00    +0.000 A 
ATOM     23  C   UNL     1       4.061   6.880  17.292  0.00  0.00    +0.000 A 
ATOM     24  C   UNL     1       3.106   7.231  18.245  0.00  0.00    +0.000 A 
ATOM     25  N   UNL     1       2.242   8.299  18.365  0.00  0.00    +0.000 N 
ATOM     26  H   UNL     1       2.127   9.046  17.694  0.00  0.00    +0.000 HD
ENDBRANCH  16  17
BRANCH  16  28
ATOM     27  C   UNL     1      -0.456   9.509  22.602  0.00  0.00    +0.000 C 
ATOM     28  C   UNL     1       0.071   8.731  21.422  0.00  0.00    +0.000 C 
ENDBRANCH  16  28
ENDBRANCH   1  16
TORSDOF 4
ENDMDL
MODEL 9
REMARK VINA RESULT:      -7.8      4.136      7.831
REMARK  Name = 
REMARK  5 active torsions:
REMARK  status: ('A' for Active; 'I' for Inactive)
REMARK    1  A    between atoms: C_1  and  C_2
REMARK    2  A    between atoms: C_2  and  C_3
REMARK    3  A    between atoms: C_3  and  C_4
REMARK    4  A    between atoms: C_3  and  N_13
REMARK    5  A    between atoms: C_14  and  C_15
REMARK                            x       y       z     vdW  Elec       q    Type
REMARK                         _______ _______ _______ _____ _____    ______ ____
ROOT
ATOM      1  N   UNL     1       0.166  10.854  19.580  0.00  0.00    +0.000 N 
ATOM      2  C   UNL     1       0.116  12.240  19.524  0.00  0.00    +0.000 A 
ATOM      3  N   UNL     1      -1.153  12.625  19.532  0.00  0.00    +0.000 NA
ATOM      4  C   UNL     1      -1.868  11.549  19.125  0.00  0.00    +0.000 A 
ATOM      5  C   UNL     1      -3.137  11.621  18.528  0.00  0.00    +0.000 A 
ATOM      6  C   UNL     1      -3.068  11.298  17.195  0.00  0.00    +0.000 A 
ATOM      7  C   UNL     1      -2.158  10.294  16.798  0.00  0.00    +0.000 A 
ATOM      8  C   UNL     1      -1.193   9.744  17.683  0.00  0.00    +0.000 A 
ATOM      9  C   UNL     1      -0.984  10.504  18.843  0.00  0.00    +0.000 A 
ENDROOT
BRANCH   2  10
ATOM     10  C   UNL     1       1.206  13.173  19.606  0.00  0.00    +0.000 A 
ATOM     11  C   UNL     1       1.603  13.642  20.851  0.00  0.00    +0.000 A 
ATOM     12  N   UNL     1       2.781  14.258  21.050  0.00  0.00    +0.000 NA
ATOM     13  C   UNL     1       3.542  14.373  19.933  0.00  0.00    +0.000 A 
ATOM     14  C   UNL     1       3.096  13.997  18.673  0.00  0.00    +0.000 A 
ATOM     15  N   UNL     1       1.898  13.421  18.475  0.00  0.00    +0.000 NA
ENDBRANCH   2  10
BRANCH   1  16
ATOM     16  C   UNL     1       0.704  10.137  20.758  0.00  0.00    +0.000 C 
BRANCH  16  17
ATOM     17  C   UNL     1       1.424   8.827  20.387  0.00  0.00    +0.000 A 
ATOM     18  N   UNL     1       1.935   8.564  19.192  0.00  0.00    +0.000 NA
ATOM     19  C   UNL     1       2.137   7.220  19.146  0.00  0.00    +0.000 A 
ATOM     20  C   UNL     1       2.483   6.414  18.054  0.00  0.00    +0.000 A 
ATOM     21  C   UNL     1       2.486   5.027  18.228  0.00  0.00    +0.000 A 
ATOM     22  C   UNL     1       2.218   4.468  19.482  0.00  0.00    +0.000 A 
ATOM     23  C   UNL     1       1.932   5.268  20.597  0.00  0.00    +0.000 A 
ATOM     24  C   UNL     1       1.870   6.644  20.383  0.00  0.00    +0.000 A 
ATOM     25  N   UNL     1       1.523   7.709  21.187  0.00  0.00    +0.000 N 
ATOM     26  H   UNL     1       1.271   7.656  22.164  0.00  0.00    +0.000 HD
ENDBRANCH  16  17
BRANCH  16  28
ATOM     27  C   UNL     1      -0.896  10.809  22.800  0.00  0.00    +0.000 C 
ATOM     28  C   UNL     1      -0.243   9.750  21.948  0.00  0.00    +0.000 C 
ENDBRANCH  16  28
ENDBRANCH   1  16
TORSDOF 4
ENDMDL
