MODEL 1
REMARK VINA RESULT:      -8.0      0.000      0.000
REMARK  Name = 
REMARK  12 active torsions:
REMARK  status: ('A' for Active; 'I' for Inactive)
REMARK    1  A    between atoms: C_1  and  C_2
REMARK    2  A    between atoms: C_2  and  C_3
REMARK    3  A    between atoms: C_3  and  C_4
REMARK    4  A    between atoms: C_4  and  C_5
REMARK    5  A    between atoms: C_8  and  C_9
REMARK    6  A    between atoms: C_9  and  O_11
REMARK    7  A    between atoms: N_12  and  C_13
REMARK    8  A    between atoms: C_13  and  C_14
REMARK    9  A    between atoms: C_17  and  C_18
REMARK   10  A    between atoms: C_23  and  S_24
REMARK   11  A    between atoms: S_24  and  N_27
REMARK   12  A    between atoms: C_28  and  C_30
REMARK                            x       y       z     vdW  Elec       q    Type
REMARK                         _______ _______ _______ _____ _____    ______ ____
ROOT
ATOM      1  C   UNL     1       2.633   7.204  19.390  0.00  0.00    +0.000 A 
ATOM      2  C   UNL     1       2.509   7.782  18.126  0.00  0.00    +0.000 A 
ATOM      3  C   UNL     1       1.578   8.798  17.898  0.00  0.00    +0.000 A 
ATOM      4  C   UNL     1       0.815   9.355  18.928  0.00  0.00    +0.000 A 
ATOM      5  C   UNL     1       0.924   8.731  20.188  0.00  0.00    +0.000 A 
ATOM      6  C   UNL     1       1.797   7.657  20.412  0.00  0.00    +0.000 A 
ENDROOT
BRANCH   4   7
ATOM      7  C   UNL     1      -0.118  10.496  18.712  0.00  0.00    +0.000 A 
ATOM      8  C   UNL     1      -1.496  10.184  18.572  0.00  0.00    +0.000 A 
ATOM      9  C   UNL     1      -2.484  11.159  18.432  0.00  0.00    +0.000 A 
ATOM     10  C   UNL     1      -2.128  12.495  18.407  0.00  0.00    +0.000 A 
ATOM     11  C   UNL     1      -0.787  12.851  18.526  0.00  0.00    +0.000 A 
ATOM     12  C   UNL     1       0.223  11.875  18.673  0.00  0.00    +0.000 A 
BRANCH  12  13
ATOM     13  S   UNL     1       1.898  12.462  18.950  0.00  0.00    +0.000 S 
ATOM     14  O   UNL     1       2.150  12.337  20.371  0.00  0.00    +0.000 OA
ATOM     15  O   UNL     1       2.803  11.915  17.969  0.00  0.00    +0.000 OA
BRANCH  13  16
ATOM     16  N   UNL     1       1.873  14.106  18.671  0.00  0.00    +0.000 N 
ATOM     17  C   UNL     1       3.022  14.905  18.634  0.00  0.00    +0.000 C 
ATOM     18  O   UNL     1       4.158  14.462  18.578  0.00  0.00    +0.000 OA
ATOM     19  H   UNL     1       0.948  14.505  18.760  0.00  0.00    +0.000 HD
BRANCH  17  20
ATOM     20  C   UNL     1       2.813  16.377  18.553  0.00  0.00    +0.000 C 
ATOM     21  C   UNL     1       2.758  17.096  17.224  0.00  0.00    +0.000 C 
ATOM     22  C   UNL     1       1.526  17.003  18.079  0.00  0.00    +0.000 C 
ENDBRANCH  17  20
ENDBRANCH  13  16
ENDBRANCH  12  13
ENDBRANCH   4   7
BRANCH   1  23
ATOM     23  C   UNL     1       3.602   6.079  19.612  0.00  0.00    +0.000 C 
BRANCH  23  28
ATOM     24  C   UNL     1       3.128   4.409  17.675  0.00  0.00    +0.000 A 
ATOM     25  N   UNL     1       3.862   3.800  16.762  0.00  0.00    +0.000 NA
ATOM     26  C   UNL     1       5.157   4.119  17.021  0.00  0.00    +0.000 A 
ATOM     27  C   UNL     1       5.261   4.996  18.078  0.00  0.00    +0.000 A 
ATOM     28  N   UNL     1       3.929   5.192  18.485  0.00  0.00    +0.000 N 
BRANCH  27  29
ATOM     29  C   UNL     1       6.411   5.616  18.691  0.00  0.00    +0.000 C 
ATOM     30  O   UNL     1       6.914   5.298  19.763  0.00  0.00    +0.000 OA
BRANCH  29  31
ATOM     31  O   UNL     1       6.934   6.638  17.967  0.00  0.00    +0.000 OA
ATOM     32  H   UNL     1       6.579   6.735  17.069  0.00  0.00    +0.000 HD
ENDBRANCH  29  31
ENDBRANCH  27  29
BRANCH  24  33
ATOM     33  C   UNL     1       1.640   4.237  17.794  0.00  0.00    +0.000 C 
BRANCH  33  34
ATOM     34  C   UNL     1       1.196   3.189  18.825  0.00  0.00    +0.000 C 
BRANCH  34  36
ATOM     35  C   UNL     1       1.567   3.046  21.317  0.00  0.00    +0.000 C 
ATOM     36  C   UNL     1       0.870   3.793  20.193  0.00  0.00    +0.000 C 
ENDBRANCH  34  36
ENDBRANCH  33  34
ENDBRANCH  24  33
ENDBRANCH  23  28
ENDBRANCH   1  23
TORSDOF 11
ENDMDL
MODEL 2
REMARK VINA RESULT:      -8.0      2.983      9.147
REMARK  Name = 
REMARK  12 active torsions:
REMARK  status: ('A' for Active; 'I' for Inactive)
REMARK    1  A    between atoms: C_1  and  C_2
REMARK    2  A    between atoms: C_2  and  C_3
REMARK    3  A    between atoms: C_3  and  C_4
REMARK    4  A    between atoms: C_4  and  C_5
REMARK    5  A    between atoms: C_8  and  C_9
REMARK    6  A    between atoms: C_9  and  O_11
REMARK    7  A    between atoms: N_12  and  C_13
REMARK    8  A    between atoms: C_13  and  C_14
REMARK    9  A    between atoms: C_17  and  C_18
REMARK   10  A    between atoms: C_23  and  S_24
REMARK   11  A    between atoms: S_24  and  N_27
REMARK   12  A    between atoms: C_28  and  C_30
REMARK                            x       y       z     vdW  Elec       q    Type
REMARK                         _______ _______ _______ _____ _____    ______ ____
ROOT
ATOM      1  C   UNL     1       1.224   8.886  19.377  0.00  0.00    +0.000 A 
ATOM      2  C   UNL     1       1.758   7.814  20.093  0.00  0.00    +0.000 A 
ATOM      3  C   UNL     1       2.636   6.917  19.480  0.00  0.00    +0.000 A 
ATOM      4  C   UNL     1       3.104   7.106  18.177  0.00  0.00    +0.000 A 
ATOM      5  C   UNL     1       2.522   8.170  17.456  0.00  0.00    +0.000 A 
ATOM      6  C   UNL     1       1.579   9.030  18.034  0.00  0.00    +0.000 A 
ENDROOT
BRANCH   4   7
ATOM      7  C   UNL     1       4.107   6.205  17.542  0.00  0.00    +0.000 A 
ATOM      8  C   UNL     1       5.418   6.721  17.367  0.00  0.00    +0.000 A 
ATOM      9  C   UNL     1       6.468   5.963  16.847  0.00  0.00    +0.000 A 
ATOM     10  C   UNL     1       6.242   4.654  16.462  0.00  0.00    +0.000 A 
ATOM     11  C   UNL     1       4.969   4.107  16.602  0.00  0.00    +0.000 A 
ATOM     12  C   UNL     1       3.897   4.861  17.130  0.00  0.00    +0.000 A 
BRANCH  12  13
ATOM     13  S   UNL     1       2.338   4.007  17.383  0.00  0.00    +0.000 S 
ATOM     14  O   UNL     1       1.290   4.978  17.146  0.00  0.00    +0.000 OA
ATOM     15  O   UNL     1       2.344   2.721  16.727  0.00  0.00    +0.000 OA
BRANCH  13  16
ATOM     16  N   UNL     1       2.242   3.676  19.015  0.00  0.00    +0.000 N 
ATOM     17  C   UNL     1       1.144   3.049  19.618  0.00  0.00    +0.000 C 
ATOM     18  O   UNL     1       0.257   2.486  18.998  0.00  0.00    +0.000 OA
ATOM     19  H   UNL     1       2.938   4.171  19.558  0.00  0.00    +0.000 HD
BRANCH  17  20
ATOM     20  C   UNL     1       1.139   2.991  21.105  0.00  0.00    +0.000 C 
ATOM     21  C   UNL     1       2.100   2.105  21.865  0.00  0.00    +0.000 C 
ATOM     22  C   UNL     1       2.222   3.600  21.960  0.00  0.00    +0.000 C 
ENDBRANCH  17  20
ENDBRANCH  13  16
ENDBRANCH  12  13
ENDBRANCH   4   7
BRANCH   1  23
ATOM     23  C   UNL     1       0.242   9.814  20.032  0.00  0.00    +0.000 C 
BRANCH  23  28
ATOM     24  C   UNL     1      -1.197  11.010  18.225  0.00  0.00    +0.000 A 
ATOM     25  N   UNL     1      -1.388  12.264  17.860  0.00  0.00    +0.000 NA
ATOM     26  C   UNL     1      -0.540  13.025  18.599  0.00  0.00    +0.000 A 
ATOM     27  C   UNL     1       0.169  12.262  19.501  0.00  0.00    +0.000 A 
ATOM     28  N   UNL     1      -0.282  10.951  19.260  0.00  0.00    +0.000 N 
BRANCH  27  29
ATOM     29  C   UNL     1       1.154  12.627  20.491  0.00  0.00    +0.000 C 
ATOM     30  O   UNL     1       2.330  12.892  20.270  0.00  0.00    +0.000 OA
BRANCH  29  31
ATOM     31  O   UNL     1       0.672  12.658  21.758  0.00  0.00    +0.000 OA
ATOM     32  H   UNL     1       1.164  13.223  22.376  0.00  0.00    +0.000 HD
ENDBRANCH  29  31
ENDBRANCH  27  29
BRANCH  24  33
ATOM     33  C   UNL     1      -1.882   9.842  17.575  0.00  0.00    +0.000 C 
BRANCH  33  34
ATOM     34  C   UNL     1      -3.091  10.210  16.703  0.00  0.00    +0.000 C 
BRANCH  34  36
ATOM     35  C   UNL     1      -3.890  10.024  14.315  0.00  0.00    +0.000 C 
ATOM     36  C   UNL     1      -2.731  10.395  15.226  0.00  0.00    +0.000 C 
ENDBRANCH  34  36
ENDBRANCH  33  34
ENDBRANCH  24  33
ENDBRANCH  23  28
ENDBRANCH   1  23
TORSDOF 11
ENDMDL
MODEL 3
REMARK VINA RESULT:      -8.0      0.694      1.201
REMARK  Name = 
REMARK  12 active torsions:
REMARK  status: ('A' for Active; 'I' for Inactive)
REMARK    1  A    between atoms: C_1  and  C_2
REMARK    2  A    between atoms: C_2  and  C_3
REMARK    3  A    between atoms: C_3  and  C_4
REMARK    4  A    between atoms: C_4  and  C_5
REMARK    5  A    between atoms: C_8  and  C_9
REMARK    6  A    between atoms: C_9  and  O_11
REMARK    7  A    between atoms: N_12  and  C_13
REMARK    8  A    between atoms: C_13  and  C_14
REMARK    9  A    between atoms: C_17  and  C_18
REMARK   10  A    between atoms: C_23  and  S_24
REMARK   11  A    between atoms: S_24  and  N_27
REMARK   12  A    between atoms: C_28  and  C_30
REMARK                            x       y       z     vdW  Elec       q    Type
REMARK                         _______ _______ _______ _____ _____    ______ ____
ROOT
ATOM      1  C   UNL     1       2.649   7.170  19.322  0.00  0.00    +0.000 A 
ATOM      2  C   UNL     1       1.854   7.657  20.360  0.00  0.00    +0.000 A 
ATOM      3  C   UNL     1       0.985   8.730  20.145  0.00  0.00    +0.000 A 
ATOM      4  C   UNL     1       0.789   9.289  18.879  0.00  0.00    +0.000 A 
ATOM      5  C   UNL     1       1.631   8.813  17.853  0.00  0.00    +0.000 A 
ATOM      6  C   UNL     1       2.564   7.790  18.073  0.00  0.00    +0.000 A 
ENDROOT
BRANCH   4   7
ATOM      7  C   UNL     1      -0.197  10.376  18.622  0.00  0.00    +0.000 A 
ATOM      8  C   UNL     1      -1.531   9.982  18.335  0.00  0.00    +0.000 A 
ATOM      9  C   UNL     1      -2.566  10.897  18.140  0.00  0.00    +0.000 A 
ATOM     10  C   UNL     1      -2.303  12.253  18.207  0.00  0.00    +0.000 A 
ATOM     11  C   UNL     1      -1.007  12.689  18.472  0.00  0.00    +0.000 A 
ATOM     12  C   UNL     1       0.050  11.774  18.675  0.00  0.00    +0.000 A 
BRANCH  12  13
ATOM     13  S   UNL     1       1.646  12.455  19.139  0.00  0.00    +0.000 S 
ATOM     14  O   UNL     1       1.821  12.175  20.550  0.00  0.00    +0.000 OA
ATOM     15  O   UNL     1       2.655  12.109  18.167  0.00  0.00    +0.000 OA
BRANCH  13  16
ATOM     16  N   UNL     1       1.494  14.113  19.057  0.00  0.00    +0.000 N 
ATOM     17  C   UNL     1       2.477  15.008  19.498  0.00  0.00    +0.000 C 
ATOM     18  O   UNL     1       3.618  14.680  19.777  0.00  0.00    +0.000 OA
ATOM     19  H   UNL     1       0.544  14.412  18.875  0.00  0.00    +0.000 HD
BRANCH  17  20
ATOM     20  C   UNL     1       2.110  16.450  19.520  0.00  0.00    +0.000 C 
ATOM     21  C   UNL     1       1.654  17.132  20.790  0.00  0.00    +0.000 C 
ATOM     22  C   UNL     1       2.967  17.511  20.165  0.00  0.00    +0.000 C 
ENDBRANCH  17  20
ENDBRANCH  13  16
ENDBRANCH  12  13
ENDBRANCH   4   7
BRANCH   1  23
ATOM     23  C   UNL     1       3.615   6.050  19.576  0.00  0.00    +0.000 C 
BRANCH  23  28
ATOM     24  C   UNL     1       3.166   4.346  17.662  0.00  0.00    +0.000 A 
ATOM     25  N   UNL     1       3.912   3.722  16.770  0.00  0.00    +0.000 NA
ATOM     26  C   UNL     1       5.204   4.044  17.041  0.00  0.00    +0.000 A 
ATOM     27  C   UNL     1       5.295   4.939  18.085  0.00  0.00    +0.000 A 
ATOM     28  N   UNL     1       3.957   5.143  18.470  0.00  0.00    +0.000 N 
BRANCH  27  29
ATOM     29  C   UNL     1       6.436   5.570  18.702  0.00  0.00    +0.000 C 
ATOM     30  O   UNL     1       6.933   5.261  19.780  0.00  0.00    +0.000 OA
BRANCH  29  31
ATOM     31  O   UNL     1       6.959   6.589  17.976  0.00  0.00    +0.000 OA
ATOM     32  H   UNL     1       7.369   6.333  17.133  0.00  0.00    +0.000 HD
ENDBRANCH  29  31
ENDBRANCH  27  29
BRANCH  24  33
ATOM     33  C   UNL     1       1.677   4.178  17.764  0.00  0.00    +0.000 C 
BRANCH  33  34
ATOM     34  C   UNL     1       1.218   3.151  18.809  0.00  0.00    +0.000 C 
BRANCH  34  36
ATOM     35  C   UNL     1       1.589   3.075  21.305  0.00  0.00    +0.000 C 
ATOM     36  C   UNL     1       0.880   3.782  20.162  0.00  0.00    +0.000 C 
ENDBRANCH  34  36
ENDBRANCH  33  34
ENDBRANCH  24  33
ENDBRANCH  23  28
ENDBRANCH   1  23
TORSDOF 11
ENDMDL
MODEL 4
REMARK VINA RESULT:      -7.9      0.356      1.052
REMARK  Name = 
REMARK  12 active torsions:
REMARK  status: ('A' for Active; 'I' for Inactive)
REMARK    1  A    between atoms: C_1  and  C_2
REMARK    2  A    between atoms: C_2  and  C_3
REMARK    3  A    between atoms: C_3  and  C_4
REMARK    4  A    between atoms: C_4  and  C_5
REMARK    5  A    between atoms: C_8  and  C_9
REMARK    6  A    between atoms: C_9  and  O_11
REMARK    7  A    between atoms: N_12  and  C_13
REMARK    8  A    between atoms: C_13  and  C_14
REMARK    9  A    between atoms: C_17  and  C_18
REMARK   10  A    between atoms: C_23  and  S_24
REMARK   11  A    between atoms: S_24  and  N_27
REMARK   12  A    between atoms: C_28  and  C_30
REMARK                            x       y       z     vdW  Elec       q    Type
REMARK                         _______ _______ _______ _____ _____    ______ ____
ROOT
ATOM      1  C   UNL     1       2.586   7.156  19.323  0.00  0.00    +0.000 A 
ATOM      2  C   UNL     1       1.860   7.694  20.386  0.00  0.00    +0.000 A 
ATOM      3  C   UNL     1       1.027   8.799  20.191  0.00  0.00    +0.000 A 
ATOM      4  C   UNL     1       0.796   9.343  18.924  0.00  0.00    +0.000 A 
ATOM      5  C   UNL     1       1.569   8.813  17.870  0.00  0.00    +0.000 A 
ATOM      6  C   UNL     1       2.469   7.756  18.068  0.00  0.00    +0.000 A 
ENDROOT
BRANCH   4   7
ATOM      7  C   UNL     1      -0.155  10.466  18.691  0.00  0.00    +0.000 A 
ATOM      8  C   UNL     1      -1.526  10.128  18.538  0.00  0.00    +0.000 A 
ATOM      9  C   UNL     1      -2.530  11.086  18.380  0.00  0.00    +0.000 A 
ATOM     10  C   UNL     1      -2.197  12.427  18.350  0.00  0.00    +0.000 A 
ATOM     11  C   UNL     1      -0.864  12.808  18.482  0.00  0.00    +0.000 A 
ATOM     12  C   UNL     1       0.162  11.850  18.646  0.00  0.00    +0.000 A 
BRANCH  12  13
ATOM     13  S   UNL     1       1.823  12.468  18.937  0.00  0.00    +0.000 S 
ATOM     14  O   UNL     1       2.066  12.348  20.360  0.00  0.00    +0.000 OA
ATOM     15  O   UNL     1       2.747  11.939  17.963  0.00  0.00    +0.000 OA
BRANCH  13  16
ATOM     16  N   UNL     1       1.770  14.112  18.658  0.00  0.00    +0.000 N 
ATOM     17  C   UNL     1       2.865  14.966  18.834  0.00  0.00    +0.000 C 
ATOM     18  O   UNL     1       4.012  14.579  18.990  0.00  0.00    +0.000 OA
ATOM     19  H   UNL     1       0.825  14.465  18.574  0.00  0.00    +0.000 HD
BRANCH  17  20
ATOM     20  C   UNL     1       2.603  16.426  18.716  0.00  0.00    +0.000 C 
ATOM     21  C   UNL     1       2.562  17.116  17.371  0.00  0.00    +0.000 C 
ATOM     22  C   UNL     1       1.308  16.993  18.189  0.00  0.00    +0.000 C 
ENDBRANCH  17  20
ENDBRANCH  13  16
ENDBRANCH  12  13
ENDBRANCH   4   7
BRANCH   1  23
ATOM     23  C   UNL     1       3.515   6.001  19.555  0.00  0.00    +0.000 C 
BRANCH  23  28
ATOM     24  C   UNL     1       2.905   4.212  17.767  0.00  0.00    +0.000 A 
ATOM     25  N   UNL     1       3.567   3.563  16.828  0.00  0.00    +0.000 NA
ATOM     26  C   UNL     1       4.873   3.917  16.949  0.00  0.00    +0.000 A 
ATOM     27  C   UNL     1       5.053   4.856  17.942  0.00  0.00    +0.000 A 
ATOM     28  N   UNL     1       3.759   5.054  18.456  0.00  0.00    +0.000 N 
BRANCH  27  29
ATOM     29  C   UNL     1       6.240   5.529  18.411  0.00  0.00    +0.000 C 
ATOM     30  O   UNL     1       6.738   6.536  17.920  0.00  0.00    +0.000 OA
BRANCH  29  31
ATOM     31  O   UNL     1       6.810   4.945  19.495  0.00  0.00    +0.000 OA
ATOM     32  H   UNL     1       6.547   5.315  20.353  0.00  0.00    +0.000 HD
ENDBRANCH  29  31
ENDBRANCH  27  29
BRANCH  24  33
ATOM     33  C   UNL     1       1.437   4.025  18.030  0.00  0.00    +0.000 C 
BRANCH  33  34
ATOM     34  C   UNL     1       1.089   2.787  18.869  0.00  0.00    +0.000 C 
BRANCH  34  36
ATOM     35  C   UNL     1       1.489   2.927  21.357  0.00  0.00    +0.000 C 
ATOM     36  C   UNL     1       2.078   2.539  20.011  0.00  0.00    +0.000 C 
ENDBRANCH  34  36
ENDBRANCH  33  34
ENDBRANCH  24  33
ENDBRANCH  23  28
ENDBRANCH   1  23
TORSDOF 11
ENDMDL
MODEL 5
REMARK VINA RESULT:      -7.8      2.844      9.031
REMARK  Name = 
REMARK  12 active torsions:
REMARK  status: ('A' for Active; 'I' for Inactive)
REMARK    1  A    between atoms: C_1  and  C_2
REMARK    2  A    between atoms: C_2  and  C_3
REMARK    3  A    between atoms: C_3  and  C_4
REMARK    4  A    between atoms: C_4  and  C_5
REMARK    5  A    between atoms: C_8  and  C_9
REMARK    6  A    between atoms: C_9  and  O_11
REMARK    7  A    between atoms: N_12  and  C_13
REMARK    8  A    between atoms: C_13  and  C_14
REMARK    9  A    between atoms: C_17  and  C_18
REMARK   10  A    between atoms: C_23  and  S_24
REMARK   11  A    between atoms: S_24  and  N_27
REMARK   12  A    between atoms: C_28  and  C_30
REMARK                            x       y       z     vdW  Elec       q    Type
REMARK                         _______ _______ _______ _____ _____    ______ ____
ROOT
ATOM      1  C   UNL     1       1.220   8.873  19.417  0.00  0.00    +0.000 A 
ATOM      2  C   UNL     1       1.811   7.822  20.119  0.00  0.00    +0.000 A 
ATOM      3  C   UNL     1       2.670   6.930  19.473  0.00  0.00    +0.000 A 
ATOM      4  C   UNL     1       3.062   7.104  18.142  0.00  0.00    +0.000 A 
ATOM      5  C   UNL     1       2.423   8.147  17.438  0.00  0.00    +0.000 A 
ATOM      6  C   UNL     1       1.498   9.001  18.055  0.00  0.00    +0.000 A 
ENDROOT
BRANCH   4   7
ATOM      7  C   UNL     1       4.043   6.209  17.467  0.00  0.00    +0.000 A 
ATOM      8  C   UNL     1       5.333   6.744  17.211  0.00  0.00    +0.000 A 
ATOM      9  C   UNL     1       6.365   5.994  16.645  0.00  0.00    +0.000 A 
ATOM     10  C   UNL     1       6.141   4.675  16.295  0.00  0.00    +0.000 A 
ATOM     11  C   UNL     1       4.887   4.110  16.514  0.00  0.00    +0.000 A 
ATOM     12  C   UNL     1       3.834   4.856  17.089  0.00  0.00    +0.000 A 
BRANCH  12  13
ATOM     13  S   UNL     1       2.306   3.980  17.443  0.00  0.00    +0.000 S 
ATOM     14  O   UNL     1       1.226   4.907  17.176  0.00  0.00    +0.000 OA
ATOM     15  O   UNL     1       2.328   2.655  16.870  0.00  0.00    +0.000 OA
BRANCH  13  16
ATOM     16  N   UNL     1       2.265   3.753  19.094  0.00  0.00    +0.000 N 
ATOM     17  C   UNL     1       3.062   2.822  19.772  0.00  0.00    +0.000 C 
ATOM     18  O   UNL     1       4.014   2.248  19.269  0.00  0.00    +0.000 OA
ATOM     19  H   UNL     1       1.456   4.179  19.529  0.00  0.00    +0.000 HD
BRANCH  17  20
ATOM     20  C   UNL     1       2.775   2.619  21.218  0.00  0.00    +0.000 C 
ATOM     21  C   UNL     1       2.265   3.745  22.089  0.00  0.00    +0.000 C 
ATOM     22  C   UNL     1       1.378   2.571  21.784  0.00  0.00    +0.000 C 
ENDBRANCH  17  20
ENDBRANCH  13  16
ENDBRANCH  12  13
ENDBRANCH   4   7
BRANCH   1  23
ATOM     23  C   UNL     1       0.261   9.796  20.111  0.00  0.00    +0.000 C 
BRANCH  23  28
ATOM     24  C   UNL     1      -1.481  10.923  18.540  0.00  0.00    +0.000 A 
ATOM     25  N   UNL     1      -1.670  12.143  18.074  0.00  0.00    +0.000 NA
ATOM     26  C   UNL     1      -0.624  12.895  18.502  0.00  0.00    +0.000 A 
ATOM     27  C   UNL     1       0.226  12.170  19.309  0.00  0.00    +0.000 A 
ATOM     28  N   UNL     1      -0.354  10.889  19.342  0.00  0.00    +0.000 N 
BRANCH  27  29
ATOM     29  C   UNL     1       1.437  12.546  19.998  0.00  0.00    +0.000 C 
ATOM     30  O   UNL     1       1.554  12.711  21.207  0.00  0.00    +0.000 OA
BRANCH  29  31
ATOM     31  O   UNL     1       2.503  12.718  19.178  0.00  0.00    +0.000 OA
ATOM     32  H   UNL     1       2.857  11.907  18.779  0.00  0.00    +0.000 HD
ENDBRANCH  29  31
ENDBRANCH  27  29
BRANCH  24  33
ATOM     33  C   UNL     1      -2.374   9.760  18.212  0.00  0.00    +0.000 C 
BRANCH  33  34
ATOM     34  C   UNL     1      -3.263   9.963  16.976  0.00  0.00    +0.000 C 
BRANCH  34  36
ATOM     35  C   UNL     1      -3.357  10.176  14.463  0.00  0.00    +0.000 C 
ATOM     36  C   UNL     1      -2.512   9.765  15.657  0.00  0.00    +0.000 C 
ENDBRANCH  34  36
ENDBRANCH  33  34
ENDBRANCH  24  33
ENDBRANCH  23  28
ENDBRANCH   1  23
TORSDOF 11
ENDMDL
MODEL 6
REMARK VINA RESULT:      -7.7      2.595      8.770
REMARK  Name = 
REMARK  12 active torsions:
REMARK  status: ('A' for Active; 'I' for Inactive)
REMARK    1  A    between atoms: C_1  and  C_2
REMARK    2  A    between atoms: C_2  and  C_3
REMARK    3  A    between atoms: C_3  and  C_4
REMARK    4  A    between atoms: C_4  and  C_5
REMARK    5  A    between atoms: C_8  and  C_9
REMARK    6  A    between atoms: C_9  and  O_11
REMARK    7  A    between atoms: N_12  and  C_13
REMARK    8  A    between atoms: C_13  and  C_14
REMARK    9  A    between atoms: C_17  and  C_18
REMARK   10  A    between atoms: C_23  and  S_24
REMARK   11  A    between atoms: S_24  and  N_27
REMARK   12  A    between atoms: C_28  and  C_30
REMARK                            x       y       z     vdW  Elec       q    Type
REMARK                         _______ _______ _______ _____ _____    ______ ____
ROOT
ATOM      1  C   UNL     1       1.599   9.368  18.824  0.00  0.00    +0.000 A 
ATOM      2  C   UNL     1       1.620   8.878  20.130  0.00  0.00    +0.000 A 
ATOM      3  C   UNL     1       1.867   7.526  20.378  0.00  0.00    +0.000 A 
ATOM      4  C   UNL     1       2.211   6.632  19.360  0.00  0.00    +0.000 A 
ATOM      5  C   UNL     1       2.144   7.135  18.044  0.00  0.00    +0.000 A 
ATOM      6  C   UNL     1       1.819   8.472  17.776  0.00  0.00    +0.000 A 
ENDROOT
BRANCH   4   7
ATOM      7  C   UNL     1       2.560   5.208  19.622  0.00  0.00    +0.000 A 
ATOM      8  C   UNL     1       1.517   4.362  20.083  0.00  0.00    +0.000 A 
ATOM      9  C   UNL     1       1.691   2.995  20.305  0.00  0.00    +0.000 A 
ATOM     10  C   UNL     1       2.929   2.419  20.089  0.00  0.00    +0.000 A 
ATOM     11  C   UNL     1       3.988   3.210  19.650  0.00  0.00    +0.000 A 
ATOM     12  C   UNL     1       3.826   4.594  19.419  0.00  0.00    +0.000 A 
BRANCH  12  13
ATOM     13  S   UNL     1       5.227   5.480  18.728  0.00  0.00    +0.000 S 
ATOM     14  O   UNL     1       4.705   6.711  18.171  0.00  0.00    +0.000 OA
ATOM     15  O   UNL     1       6.341   5.476  19.646  0.00  0.00    +0.000 OA
BRANCH  13  16
ATOM     16  N   UNL     1       5.734   4.603  17.404  0.00  0.00    +0.000 N 
ATOM     17  C   UNL     1       6.617   5.096  16.435  0.00  0.00    +0.000 C 
ATOM     18  O   UNL     1       7.273   6.116  16.570  0.00  0.00    +0.000 OA
ATOM     19  H   UNL     1       5.173   3.776  17.243  0.00  0.00    +0.000 HD
BRANCH  17  20
ATOM     20  C   UNL     1       6.826   4.253  15.227  0.00  0.00    +0.000 C 
ATOM     21  C   UNL     1       5.786   4.166  14.133  0.00  0.00    +0.000 C 
ATOM     22  C   UNL     1       7.108   4.824  13.860  0.00  0.00    +0.000 C 
ENDBRANCH  17  20
ENDBRANCH  13  16
ENDBRANCH  12  13
ENDBRANCH   4   7
BRANCH   1  23
ATOM     23  C   UNL     1       1.283  10.812  18.567  0.00  0.00    +0.000 C 
BRANCH  23  28
ATOM     24  C   UNL     1      -1.309  10.913  18.359  0.00  0.00    +0.000 A 
ATOM     25  N   UNL     1      -2.266  11.621  18.927  0.00  0.00    +0.000 NA
ATOM     26  C   UNL     1      -1.660  12.532  19.731  0.00  0.00    +0.000 A 
ATOM     27  C   UNL     1      -0.291  12.374  19.734  0.00  0.00    +0.000 A 
ATOM     28  N   UNL     1      -0.075  11.302  18.848  0.00  0.00    +0.000 N 
BRANCH  27  29
ATOM     29  C   UNL     1       0.748  13.085  20.438  0.00  0.00    +0.000 C 
ATOM     30  O   UNL     1       1.404  14.023  19.998  0.00  0.00    +0.000 OA
BRANCH  29  31
ATOM     31  O   UNL     1       0.973  12.625  21.694  0.00  0.00    +0.000 OA
ATOM     32  H   UNL     1       1.905  12.594  21.965  0.00  0.00    +0.000 HD
ENDBRANCH  29  31
ENDBRANCH  27  29
BRANCH  24  33
ATOM     33  C   UNL     1      -1.560   9.855  17.322  0.00  0.00    +0.000 C 
BRANCH  33  34
ATOM     34  C   UNL     1      -2.936   9.935  16.645  0.00  0.00    +0.000 C 
BRANCH  34  36
ATOM     35  C   UNL     1      -3.623  10.055  14.219  0.00  0.00    +0.000 C 
ATOM     36  C   UNL     1      -2.927  10.772  15.363  0.00  0.00    +0.000 C 
ENDBRANCH  34  36
ENDBRANCH  33  34
ENDBRANCH  24  33
ENDBRANCH  23  28
ENDBRANCH   1  23
TORSDOF 11
ENDMDL
MODEL 7
REMARK VINA RESULT:      -7.7      2.556      8.715
REMARK  Name = 
REMARK  12 active torsions:
REMARK  status: ('A' for Active; 'I' for Inactive)
REMARK    1  A    between atoms: C_1  and  C_2
REMARK    2  A    between atoms: C_2  and  C_3
REMARK    3  A    between atoms: C_3  and  C_4
REMARK    4  A    between atoms: C_4  and  C_5
REMARK    5  A    between atoms: C_8  and  C_9
REMARK    6  A    between atoms: C_9  and  O_11
REMARK    7  A    between atoms: N_12  and  C_13
REMARK    8  A    between atoms: C_13  and  C_14
REMARK    9  A    between atoms: C_17  and  C_18
REMARK   10  A    between atoms: C_23  and  S_24
REMARK   11  A    between atoms: S_24  and  N_27
REMARK   12  A    between atoms: C_28  and  C_30
REMARK                            x       y       z     vdW  Elec       q    Type
REMARK                         _______ _______ _______ _____ _____    ______ ____
ROOT
ATOM      1  C   UNL     1       1.870   9.071  18.618  0.00  0.00    +0.000 A 
ATOM      2  C   UNL     1       2.205   8.245  17.545  0.00  0.00    +0.000 A 
ATOM      3  C   UNL     1       2.407   6.876  17.738  0.00  0.00    +0.000 A 
ATOM      4  C   UNL     1       2.180   6.256  18.970  0.00  0.00    +0.000 A 
ATOM      5  C   UNL     1       1.883   7.112  20.051  0.00  0.00    +0.000 A 
ATOM      6  C   UNL     1       1.756   8.498  19.887  0.00  0.00    +0.000 A 
ENDROOT
BRANCH   4   7
ATOM      7  C   UNL     1       2.310   4.785  19.168  0.00  0.00    +0.000 A 
ATOM      8  C   UNL     1       1.106   4.042  19.283  0.00  0.00    +0.000 A 
ATOM      9  C   UNL     1       1.082   2.651  19.405  0.00  0.00    +0.000 A 
ATOM     10  C   UNL     1       2.271   1.946  19.435  0.00  0.00    +0.000 A 
ATOM     11  C   UNL     1       3.479   2.632  19.340  0.00  0.00    +0.000 A 
ATOM     12  C   UNL     1       3.518   4.039  19.212  0.00  0.00    +0.000 A 
BRANCH  12  13
ATOM     13  S   UNL     1       5.128   4.795  18.965  0.00  0.00    +0.000 S 
ATOM     14  O   UNL     1       5.107   6.058  19.675  0.00  0.00    +0.000 OA
ATOM     15  O   UNL     1       6.185   3.832  19.162  0.00  0.00    +0.000 OA
BRANCH  13  16
ATOM     16  N   UNL     1       5.206   5.222  17.354  0.00  0.00    +0.000 N 
ATOM     17  C   UNL     1       5.285   4.296  16.307  0.00  0.00    +0.000 C 
ATOM     18  O   UNL     1       5.081   3.100  16.440  0.00  0.00    +0.000 OA
ATOM     19  H   UNL     1       5.423   6.201  17.218  0.00  0.00    +0.000 HD
BRANCH  17  20
ATOM     20  C   UNL     1       5.528   4.842  14.944  0.00  0.00    +0.000 C 
ATOM     21  C   UNL     1       6.920   4.915  14.358  0.00  0.00    +0.000 C 
ATOM     22  C   UNL     1       5.903   3.982  13.763  0.00  0.00    +0.000 C 
ENDBRANCH  17  20
ENDBRANCH  13  16
ENDBRANCH  12  13
ENDBRANCH   4   7
BRANCH   1  23
ATOM     23  C   UNL     1       1.704  10.548  18.408  0.00  0.00    +0.000 C 
BRANCH  23  28
ATOM     24  C   UNL     1      -0.874  10.894  18.470  0.00  0.00    +0.000 A 
ATOM     25  N   UNL     1      -1.693  11.719  19.094  0.00  0.00    +0.000 NA
ATOM     26  C   UNL     1      -0.919  12.604  19.775  0.00  0.00    +0.000 A 
ATOM     27  C   UNL     1       0.421  12.312  19.641  0.00  0.00    +0.000 A 
ATOM     28  N   UNL     1       0.437  11.183  18.802  0.00  0.00    +0.000 N 
BRANCH  27  29
ATOM     29  C   UNL     1       1.594  12.950  20.189  0.00  0.00    +0.000 C 
ATOM     30  O   UNL     1       2.511  13.445  19.543  0.00  0.00    +0.000 OA
BRANCH  29  31
ATOM     31  O   UNL     1       1.626  12.967  21.545  0.00  0.00    +0.000 OA
ATOM     32  H   UNL     1       2.417  13.371  21.937  0.00  0.00    +0.000 HD
ENDBRANCH  29  31
ENDBRANCH  27  29
BRANCH  24  33
ATOM     33  C   UNL     1      -1.336   9.818  17.529  0.00  0.00    +0.000 C 
BRANCH  33  34
ATOM     34  C   UNL     1      -2.763  10.004  16.993  0.00  0.00    +0.000 C 
BRANCH  34  36
ATOM     35  C   UNL     1      -3.056  10.059  14.486  0.00  0.00    +0.000 C 
ATOM     36  C   UNL     1      -2.823  10.884  15.740  0.00  0.00    +0.000 C 
ENDBRANCH  34  36
ENDBRANCH  33  34
ENDBRANCH  24  33
ENDBRANCH  23  28
ENDBRANCH   1  23
TORSDOF 11
ENDMDL
MODEL 8
REMARK VINA RESULT:      -7.7      1.482      1.691
REMARK  Name = 
REMARK  12 active torsions:
REMARK  status: ('A' for Active; 'I' for Inactive)
REMARK    1  A    between atoms: C_1  and  C_2
REMARK    2  A    between atoms: C_2  and  C_3
REMARK    3  A    between atoms: C_3  and  C_4
REMARK    4  A    between atoms: C_4  and  C_5
REMARK    5  A    between atoms: C_8  and  C_9
REMARK    6  A    between atoms: C_9  and  O_11
REMARK    7  A    between atoms: N_12  and  C_13
REMARK    8  A    between atoms: C_13  and  C_14
REMARK    9  A    between atoms: C_17  and  C_18
REMARK   10  A    between atoms: C_23  and  S_24
REMARK   11  A    between atoms: S_24  and  N_27
REMARK   12  A    between atoms: C_28  and  C_30
REMARK                            x       y       z     vdW  Elec       q    Type
REMARK                         _______ _______ _______ _____ _____    ______ ____
ROOT
ATOM      1  C   UNL     1       2.725   7.304  19.271  0.00  0.00    +0.000 A 
ATOM      2  C   UNL     1       2.621   7.990  18.061  0.00  0.00    +0.000 A 
ATOM      3  C   UNL     1       1.617   8.941  17.866  0.00  0.00    +0.000 A 
ATOM      4  C   UNL     1       0.749   9.328  18.891  0.00  0.00    +0.000 A 
ATOM      5  C   UNL     1       0.841   8.596  20.093  0.00  0.00    +0.000 A 
ATOM      6  C   UNL     1       1.794   7.583  20.274  0.00  0.00    +0.000 A 
ENDROOT
BRANCH   4   7
ATOM      7  C   UNL     1      -0.270  10.402  18.721  0.00  0.00    +0.000 A 
ATOM      8  C   UNL     1      -1.474  10.048  18.057  0.00  0.00    +0.000 A 
ATOM      9  C   UNL     1      -2.537  10.937  17.889  0.00  0.00    +0.000 A 
ATOM     10  C   UNL     1      -2.429  12.230  18.367  0.00  0.00    +0.000 A 
ATOM     11  C   UNL     1      -1.262  12.629  19.012  0.00  0.00    +0.000 A 
ATOM     12  C   UNL     1      -0.179  11.739  19.192  0.00  0.00    +0.000 A 
BRANCH  12  13
ATOM     13  S   UNL     1       1.217  12.329  20.155  0.00  0.00    +0.000 S 
ATOM     14  O   UNL     1       1.230  11.559  21.382  0.00  0.00    +0.000 OA
ATOM     15  O   UNL     1       2.393  12.459  19.329  0.00  0.00    +0.000 OA
BRANCH  13  16
ATOM     16  N   UNL     1       0.836  13.879  20.638  0.00  0.00    +0.000 N 
ATOM     17  C   UNL     1       1.557  14.593  21.603  0.00  0.00    +0.000 C 
ATOM     18  O   UNL     1       2.651  14.255  22.022  0.00  0.00    +0.000 OA
ATOM     19  H   UNL     1      -0.089  14.166  20.343  0.00  0.00    +0.000 HD
BRANCH  17  20
ATOM     20  C   UNL     1       0.980  15.891  22.047  0.00  0.00    +0.000 C 
ATOM     21  C   UNL     1       1.465  17.207  21.483  0.00  0.00    +0.000 C 
ATOM     22  C   UNL     1       0.072  16.731  21.184  0.00  0.00    +0.000 C 
ENDBRANCH  17  20
ENDBRANCH  13  16
ENDBRANCH  12  13
ENDBRANCH   4   7
BRANCH   1  23
ATOM     23  C   UNL     1       3.777   6.249  19.451  0.00  0.00    +0.000 C 
BRANCH  23  28
ATOM     24  C   UNL     1       3.134   4.474  17.661  0.00  0.00    +0.000 A 
ATOM     25  N   UNL     1       3.792   3.789  16.745  0.00  0.00    +0.000 NA
ATOM     26  C   UNL     1       5.108   4.085  16.898  0.00  0.00    +0.000 A 
ATOM     27  C   UNL     1       5.304   5.024  17.888  0.00  0.00    +0.000 A 
ATOM     28  N   UNL     1       4.007   5.284  18.366  0.00  0.00    +0.000 N 
BRANCH  27  29
ATOM     29  C   UNL     1       6.507   5.648  18.383  0.00  0.00    +0.000 C 
ATOM     30  O   UNL     1       7.054   6.635  17.905  0.00  0.00    +0.000 OA
BRANCH  29  31
ATOM     31  O   UNL     1       7.031   5.039  19.475  0.00  0.00    +0.000 OA
ATOM     32  H   UNL     1       6.509   4.301  19.831  0.00  0.00    +0.000 HD
ENDBRANCH  29  31
ENDBRANCH  27  29
BRANCH  24  33
ATOM     33  C   UNL     1       1.654   4.354  17.887  0.00  0.00    +0.000 C 
BRANCH  33  34
ATOM     34  C   UNL     1       1.250   3.330  18.958  0.00  0.00    +0.000 C 
BRANCH  34  36
ATOM     35  C   UNL     1       1.974   3.520  21.369  0.00  0.00    +0.000 C 
ATOM     36  C   UNL     1       0.968   3.968  20.322  0.00  0.00    +0.000 C 
ENDBRANCH  34  36
ENDBRANCH  33  34
ENDBRANCH  24  33
ENDBRANCH  23  28
ENDBRANCH   1  23
TORSDOF 11
ENDMDL
MODEL 9
REMARK VINA RESULT:      -7.6      2.178      2.926
REMARK  Name = 
REMARK  12 active torsions:
REMARK  status: ('A' for Active; 'I' for Inactive)
REMARK    1  A    between atoms: C_1  and  C_2
REMARK    2  A    between atoms: C_2  and  C_3
REMARK    3  A    between atoms: C_3  and  C_4
REMARK    4  A    between atoms: C_4  and  C_5
REMARK    5  A    between atoms: C_8  and  C_9
REMARK    6  A    between atoms: C_9  and  O_11
REMARK    7  A    between atoms: N_12  and  C_13
REMARK    8  A    between atoms: C_13  and  C_14
REMARK    9  A    between atoms: C_17  and  C_18
REMARK   10  A    between atoms: C_23  and  S_24
REMARK   11  A    between atoms: S_24  and  N_27
REMARK   12  A    between atoms: C_28  and  C_30
REMARK                            x       y       z     vdW  Elec       q    Type
REMARK                         _______ _______ _______ _____ _____    ______ ____
ROOT
ATOM      1  C   UNL     1       2.769   7.200  19.199  0.00  0.00    +0.000 A 
ATOM      2  C   UNL     1       1.904   7.472  20.260  0.00  0.00    +0.000 A 
ATOM      3  C   UNL     1       0.969   8.506  20.168  0.00  0.00    +0.000 A 
ATOM      4  C   UNL     1       0.779   9.236  18.991  0.00  0.00    +0.000 A 
ATOM      5  C   UNL     1       1.689   8.976  17.945  0.00  0.00    +0.000 A 
ATOM      6  C   UNL     1       2.684   7.995  18.054  0.00  0.00    +0.000 A 
ENDROOT
BRANCH   4   7
ATOM      7  C   UNL     1      -0.272  10.283  18.854  0.00  0.00    +0.000 A 
ATOM      8  C   UNL     1      -1.428   9.941  18.103  0.00  0.00    +0.000 A 
ATOM      9  C   UNL     1      -2.515  10.802  17.951  0.00  0.00    +0.000 A 
ATOM     10  C   UNL     1      -2.482  12.056  18.533  0.00  0.00    +0.000 A 
ATOM     11  C   UNL     1      -1.363  12.443  19.267  0.00  0.00    +0.000 A 
ATOM     12  C   UNL     1      -0.257  11.580  19.432  0.00  0.00    +0.000 A 
BRANCH  12  13
ATOM     13  S   UNL     1       1.067  12.141  20.508  0.00  0.00    +0.000 S 
ATOM     14  O   UNL     1       1.239  11.119  21.520  0.00  0.00    +0.000 OA
ATOM     15  O   UNL     1       2.181  12.639  19.737  0.00  0.00    +0.000 OA
BRANCH  13  16
ATOM     16  N   UNL     1       0.473  13.458  21.340  0.00  0.00    +0.000 N 
ATOM     17  C   UNL     1      -0.399  13.361  22.431  0.00  0.00    +0.000 C 
ATOM     18  O   UNL     1      -0.636  12.320  23.022  0.00  0.00    +0.000 OA
ATOM     19  H   UNL     1       0.615  14.331  20.846  0.00  0.00    +0.000 HD
BRANCH  17  20
ATOM     20  C   UNL     1      -0.975  14.634  22.945  0.00  0.00    +0.000 C 
ATOM     21  C   UNL     1      -2.469  14.848  23.030  0.00  0.00    +0.000 C 
ATOM     22  C   UNL     1      -1.653  14.751  24.288  0.00  0.00    +0.000 C 
ENDBRANCH  17  20
ENDBRANCH  13  16
ENDBRANCH  12  13
ENDBRANCH   4   7
BRANCH   1  23
ATOM     23  C   UNL     1       3.802   6.120  19.328  0.00  0.00    +0.000 C 
BRANCH  23  28
ATOM     24  C   UNL     1       3.008   4.319  17.626  0.00  0.00    +0.000 A 
ATOM     25  N   UNL     1       3.585   3.615  16.671  0.00  0.00    +0.000 NA
ATOM     26  C   UNL     1       4.911   3.906  16.711  0.00  0.00    +0.000 A 
ATOM     27  C   UNL     1       5.191   4.860  17.665  0.00  0.00    +0.000 A 
ATOM     28  N   UNL     1       3.939   5.135  18.244  0.00  0.00    +0.000 N 
BRANCH  27  29
ATOM     29  C   UNL     1       6.433   5.486  18.050  0.00  0.00    +0.000 C 
ATOM     30  O   UNL     1       6.835   6.580  17.669  0.00  0.00    +0.000 OA
BRANCH  29  31
ATOM     31  O   UNL     1       7.177   4.746  18.909  0.00  0.00    +0.000 OA
ATOM     32  H   UNL     1       7.489   3.894  18.561  0.00  0.00    +0.000 HD
ENDBRANCH  29  31
ENDBRANCH  27  29
BRANCH  24  33
ATOM     33  C   UNL     1       1.551   4.210  17.974  0.00  0.00    +0.000 C 
BRANCH  33  34
ATOM     34  C   UNL     1       1.232   3.212  19.097  0.00  0.00    +0.000 C 
BRANCH  34  36
ATOM     35  C   UNL     1       2.094   3.600  21.438  0.00  0.00    +0.000 C 
ATOM     36  C   UNL     1       0.979   3.889  20.447  0.00  0.00    +0.000 C 
ENDBRANCH  34  36
ENDBRANCH  33  34
ENDBRANCH  24  33
ENDBRANCH  23  28
ENDBRANCH   1  23
TORSDOF 11
ENDMDL
