MODEL 1
REMARK VINA RESULT:      -6.7      0.000      0.000
REMARK  Name = 
REMARK  6 active torsions:
REMARK  status: ('A' for Active; 'I' for Inactive)
REMARK    1  A    between atoms: C_1  and  O_2
REMARK    2  A    between atoms: O_2  and  C_3
REMARK    3  A    between atoms: C_3  and  C_4
REMARK    4  A    between atoms: C_9  and  C_10
REMARK    5  A    between atoms: C_17  and  C_18
REMARK    6  A    between atoms: C_20  and  N_21
REMARK                            x       y       z     vdW  Elec       q    Type
REMARK                         _______ _______ _______ _____ _____    ______ ____
ROOT
ATOM      1  C   UNL     1       3.399   2.842  20.266  0.00  0.00    +0.000 A 
ATOM      2  N   UNL     1       2.886   2.507  21.467  0.00  0.00    +0.000 NA
ATOM      3  N   UNL     1       2.251   3.619  21.883  0.00  0.00    +0.000 N 
ATOM      4  C   UNL     1       2.312   4.628  20.978  0.00  0.00    +0.000 A 
ATOM      5  C   UNL     1       3.050   4.172  19.917  0.00  0.00    +0.000 A 
ATOM      6  C   UNL     1       3.275   5.057  18.737  0.00  0.00    +0.000 C 
ATOM      7  C   UNL     1       2.719   6.455  19.023  0.00  0.00    +0.000 C 
ATOM      8  C   UNL     1       2.001   6.770  20.133  0.00  0.00    +0.000 C 
ATOM      9  O   UNL     1       1.750   5.822  21.141  0.00  0.00    +0.000 OA
ATOM     10  H   UNL     1       1.800   3.614  22.790  0.00  0.00    +0.000 HD
ENDROOT
BRANCH   6  11
ATOM     11  C   UNL     1       4.766   5.051  18.439  0.00  0.00    +0.000 A 
ATOM     12  C   UNL     1       5.685   5.529  19.398  0.00  0.00    +0.000 A 
ATOM     13  C   UNL     1       7.055   5.568  19.132  0.00  0.00    +0.000 A 
ATOM     14  C   UNL     1       7.539   5.134  17.904  0.00  0.00    +0.000 A 
ATOM     15  C   UNL     1       6.654   4.662  16.938  0.00  0.00    +0.000 A 
ATOM     16  C   UNL     1       5.279   4.622  17.198  0.00  0.00    +0.000 A 
ATOM     17 CL   UNL     1       4.265   4.027  15.930  0.00  0.00    +0.000 Cl
ENDBRANCH   6  11
BRANCH   8  18
ATOM     18  N   UNL     1       1.464   8.005  20.412  0.00  0.00    +0.000 N 
ATOM     19  H   UNL     1       0.615   8.252  19.908  0.00  0.00    +0.000 HD
ATOM     20  H   UNL     1       2.162   8.744  20.414  0.00  0.00    +0.000 HD
ENDBRANCH   8  18
BRANCH   7  21
ATOM     21  C   UNL     1       3.069   7.533  18.012  0.00  0.00    +0.000 C 
ATOM     22  N   UNL     1       3.360   8.429  17.172  0.00  0.00    +0.000 NA
ENDBRANCH   7  21
BRANCH   1  23
ATOM     23  C   UNL     1       4.217   1.856  19.488  0.00  0.00    +0.000 C 
BRANCH  23  25
ATOM     24  C   UNL     1       2.231   1.691  18.225  0.00  0.00    +0.000 C 
ATOM     25  O   UNL     1       3.648   1.623  18.196  0.00  0.00    +0.000 OA
ENDBRANCH  23  25
ENDBRANCH   1  23
TORSDOF 5
ENDMDL
MODEL 2
REMARK VINA RESULT:      -6.5      2.532      4.266
REMARK  Name = 
REMARK  6 active torsions:
REMARK  status: ('A' for Active; 'I' for Inactive)
REMARK    1  A    between atoms: C_1  and  O_2
REMARK    2  A    between atoms: O_2  and  C_3
REMARK    3  A    between atoms: C_3  and  C_4
REMARK    4  A    between atoms: C_9  and  C_10
REMARK    5  A    between atoms: C_17  and  C_18
REMARK    6  A    between atoms: C_20  and  N_21
REMARK                            x       y       z     vdW  Elec       q    Type
REMARK                         _______ _______ _______ _____ _____    ______ ____
ROOT
ATOM      1  C   UNL     1       4.868   5.137  18.065  0.00  0.00    +0.000 A 
ATOM      2  N   UNL     1       5.345   5.367  16.825  0.00  0.00    +0.000 NA
ATOM      3  N   UNL     1       4.694   6.471  16.415  0.00  0.00    +0.000 N 
ATOM      4  C   UNL     1       3.855   6.968  17.358  0.00  0.00    +0.000 A 
ATOM      5  C   UNL     1       3.931   6.133  18.443  0.00  0.00    +0.000 A 
ATOM      6  C   UNL     1       3.131   6.433  19.666  0.00  0.00    +0.000 C 
ATOM      7  C   UNL     1       2.203   7.622  19.399  0.00  0.00    +0.000 C 
ATOM      8  C   UNL     1       2.234   8.366  18.263  0.00  0.00    +0.000 C 
ATOM      9  O   UNL     1       3.112   8.060  17.207  0.00  0.00    +0.000 OA
ATOM     10  H   UNL     1       4.875   6.827  15.483  0.00  0.00    +0.000 HD
ENDROOT
BRANCH   6  11
ATOM     11  C   UNL     1       2.389   5.163  20.049  0.00  0.00    +0.000 A 
ATOM     12  C   UNL     1       2.533   4.617  21.343  0.00  0.00    +0.000 A 
ATOM     13  C   UNL     1       1.891   3.432  21.704  0.00  0.00    +0.000 A 
ATOM     14  C   UNL     1       1.093   2.762  20.784  0.00  0.00    +0.000 A 
ATOM     15  C   UNL     1       0.937   3.276  19.499  0.00  0.00    +0.000 A 
ATOM     16  C   UNL     1       1.580   4.463  19.130  0.00  0.00    +0.000 A 
ATOM     17 CL   UNL     1       1.328   5.012  17.510  0.00  0.00    +0.000 Cl
ENDBRANCH   6  11
BRANCH   8  18
ATOM     18  N   UNL     1       1.436   9.454  17.999  0.00  0.00    +0.000 N 
ATOM     19  H   UNL     1       1.664  10.311  18.497  0.00  0.00    +0.000 HD
ATOM     20  H   UNL     1       0.445   9.227  18.017  0.00  0.00    +0.000 HD
ENDBRANCH   8  18
BRANCH   7  21
ATOM     21  C   UNL     1       1.162   7.909  20.469  0.00  0.00    +0.000 C 
ATOM     22  N   UNL     1       0.298   8.148  21.357  0.00  0.00    +0.000 NA
ENDBRANCH   7  21
BRANCH   1  23
ATOM     23  C   UNL     1       5.340   3.952  18.852  0.00  0.00    +0.000 C 
BRANCH  23  25
ATOM     24  C   UNL     1       4.512   1.936  19.755  0.00  0.00    +0.000 C 
ATOM     25  O   UNL     1       4.482   2.825  18.650  0.00  0.00    +0.000 OA
ENDBRANCH  23  25
ENDBRANCH   1  23
TORSDOF 5
ENDMDL
MODEL 3
REMARK VINA RESULT:      -6.3      2.687      4.527
REMARK  Name = 
REMARK  6 active torsions:
REMARK  status: ('A' for Active; 'I' for Inactive)
REMARK    1  A    between atoms: C_1  and  O_2
REMARK    2  A    between atoms: O_2  and  C_3
REMARK    3  A    between atoms: C_3  and  C_4
REMARK    4  A    between atoms: C_9  and  C_10
REMARK    5  A    between atoms: C_17  and  C_18
REMARK    6  A    between atoms: C_20  and  N_21
REMARK                            x       y       z     vdW  Elec       q    Type
REMARK                         _______ _______ _______ _____ _____    ______ ____
ROOT
ATOM      1  C   UNL     1       4.890   5.303  17.926  0.00  0.00    +0.000 A 
ATOM      2  N   UNL     1       5.330   5.542  16.674  0.00  0.00    +0.000 NA
ATOM      3  N   UNL     1       4.630   6.620  16.273  0.00  0.00    +0.000 N 
ATOM      4  C   UNL     1       3.796   7.091  17.233  0.00  0.00    +0.000 A 
ATOM      5  C   UNL     1       3.926   6.266  18.319  0.00  0.00    +0.000 A 
ATOM      6  C   UNL     1       3.144   6.545  19.559  0.00  0.00    +0.000 C 
ATOM      7  C   UNL     1       2.167   7.698  19.307  0.00  0.00    +0.000 C 
ATOM      8  C   UNL     1       2.145   8.435  18.167  0.00  0.00    +0.000 C 
ATOM      9  O   UNL     1       3.010   8.155  17.093  0.00  0.00    +0.000 OA
ATOM     10  H   UNL     1       4.776   6.976  15.336  0.00  0.00    +0.000 HD
ENDROOT
BRANCH   6  11
ATOM     11  C   UNL     1       2.457   5.252  19.966  0.00  0.00    +0.000 A 
ATOM     12  C   UNL     1       2.650   4.719  21.259  0.00  0.00    +0.000 A 
ATOM     13  C   UNL     1       2.060   3.514  21.642  0.00  0.00    +0.000 A 
ATOM     14  C   UNL     1       1.266   2.810  20.744  0.00  0.00    +0.000 A 
ATOM     15  C   UNL     1       1.063   3.310  19.460  0.00  0.00    +0.000 A 
ATOM     16  C   UNL     1       1.653   4.517  19.070  0.00  0.00    +0.000 A 
ATOM     17 CL   UNL     1       1.345   5.046  17.453  0.00  0.00    +0.000 Cl
ENDBRANCH   6  11
BRANCH   8  18
ATOM     18  N   UNL     1       1.303   9.492  17.915  0.00  0.00    +0.000 N 
ATOM     19  H   UNL     1       1.544  10.083  17.123  0.00  0.00    +0.000 HD
ATOM     20  H   UNL     1       1.071  10.017  18.754  0.00  0.00    +0.000 HD
ENDBRANCH   8  18
BRANCH   7  21
ATOM     21  C   UNL     1       1.141   7.955  20.399  0.00  0.00    +0.000 C 
ATOM     22  N   UNL     1       0.290   8.167  21.305  0.00  0.00    +0.000 NA
ENDBRANCH   7  21
BRANCH   1  23
ATOM     23  C   UNL     1       5.422   4.141  18.709  0.00  0.00    +0.000 C 
BRANCH  23  25
ATOM     24  C   UNL     1       7.221   5.485  19.433  0.00  0.00    +0.000 C 
ATOM     25  O   UNL     1       6.197   4.585  19.827  0.00  0.00    +0.000 OA
ENDBRANCH  23  25
ENDBRANCH   1  23
TORSDOF 5
ENDMDL
MODEL 4
REMARK VINA RESULT:      -6.3      0.753      1.094
REMARK  Name = 
REMARK  6 active torsions:
REMARK  status: ('A' for Active; 'I' for Inactive)
REMARK    1  A    between atoms: C_1  and  O_2
REMARK    2  A    between atoms: O_2  and  C_3
REMARK    3  A    between atoms: C_3  and  C_4
REMARK    4  A    between atoms: C_9  and  C_10
REMARK    5  A    between atoms: C_17  and  C_18
REMARK    6  A    between atoms: C_20  and  N_21
REMARK                            x       y       z     vdW  Elec       q    Type
REMARK                         _______ _______ _______ _____ _____    ______ ____
ROOT
ATOM      1  C   UNL     1       3.211   2.845  20.338  0.00  0.00    +0.000 A 
ATOM      2  N   UNL     1       2.674   2.549  21.538  0.00  0.00    +0.000 NA
ATOM      3  N   UNL     1       2.070   3.689  21.925  0.00  0.00    +0.000 N 
ATOM      4  C   UNL     1       2.173   4.677  21.002  0.00  0.00    +0.000 A 
ATOM      5  C   UNL     1       2.909   4.178  19.959  0.00  0.00    +0.000 A 
ATOM      6  C   UNL     1       3.175   5.032  18.765  0.00  0.00    +0.000 C 
ATOM      7  C   UNL     1       2.660   6.452  19.018  0.00  0.00    +0.000 C 
ATOM      8  C   UNL     1       1.940   6.812  20.112  0.00  0.00    +0.000 C 
ATOM      9  O   UNL     1       1.648   5.892  21.136  0.00  0.00    +0.000 OA
ATOM     10  H   UNL     1       1.609   3.716  22.827  0.00  0.00    +0.000 HD
ENDROOT
BRANCH   6  11
ATOM     11  C   UNL     1       4.667   4.973  18.485  0.00  0.00    +0.000 A 
ATOM     12  C   UNL     1       5.589   5.468  19.433  0.00  0.00    +0.000 A 
ATOM     13  C   UNL     1       6.962   5.458  19.181  0.00  0.00    +0.000 A 
ATOM     14  C   UNL     1       7.448   4.959  17.978  0.00  0.00    +0.000 A 
ATOM     15  C   UNL     1       6.559   4.468  17.024  0.00  0.00    +0.000 A 
ATOM     16  C   UNL     1       5.182   4.476  17.270  0.00  0.00    +0.000 A 
ATOM     17 CL   UNL     1       4.165   3.854  16.017  0.00  0.00    +0.000 Cl
ENDBRANCH   6  11
BRANCH   8  18
ATOM     18  N   UNL     1       1.439   8.068  20.362  0.00  0.00    +0.000 N 
ATOM     19  H   UNL     1       1.429   8.713  19.575  0.00  0.00    +0.000 HD
ATOM     20  H   UNL     1       1.812   8.476  21.215  0.00  0.00    +0.000 HD
ENDBRANCH   8  18
BRANCH   7  21
ATOM     21  C   UNL     1       3.056   7.499  17.990  0.00  0.00    +0.000 C 
ATOM     22  N   UNL     1       3.384   8.369  17.136  0.00  0.00    +0.000 NA
ENDBRANCH   7  21
BRANCH   1  23
ATOM     23  C   UNL     1       4.005   1.819  19.588  0.00  0.00    +0.000 C 
BRANCH  23  25
ATOM     24  C   UNL     1       5.420   0.606  21.035  0.00  0.00    +0.000 C 
ATOM     25  O   UNL     1       5.324   1.693  20.129  0.00  0.00    +0.000 OA
ENDBRANCH  23  25
ENDBRANCH   1  23
TORSDOF 5
ENDMDL
MODEL 5
REMARK VINA RESULT:      -6.1      5.385      8.426
REMARK  Name = 
REMARK  6 active torsions:
REMARK  status: ('A' for Active; 'I' for Inactive)
REMARK    1  A    between atoms: C_1  and  O_2
REMARK    2  A    between atoms: O_2  and  C_3
REMARK    3  A    between atoms: C_3  and  C_4
REMARK    4  A    between atoms: C_9  and  C_10
REMARK    5  A    between atoms: C_17  and  C_18
REMARK    6  A    between atoms: C_20  and  N_21
REMARK                            x       y       z     vdW  Elec       q    Type
REMARK                         _______ _______ _______ _____ _____    ______ ____
ROOT
ATOM      1  C   UNL     1      -0.865  11.261  22.231  0.00  0.00    +0.000 A 
ATOM      2  N   UNL     1      -1.128  10.735  23.445  0.00  0.00    +0.000 NA
ATOM      3  N   UNL     1      -0.491   9.549  23.442  0.00  0.00    +0.000 N 
ATOM      4  C   UNL     1       0.193   9.323  22.292  0.00  0.00    +0.000 A 
ATOM      5  C   UNL     1      -0.024  10.403  21.476  0.00  0.00    +0.000 A 
ATOM      6  C   UNL     1       0.624  10.459  20.134  0.00  0.00    +0.000 C 
ATOM      7  C   UNL     1       1.343   9.137  19.849  0.00  0.00    +0.000 C 
ATOM      8  C   UNL     1       1.480   8.139  20.761  0.00  0.00    +0.000 C 
ATOM      9  O   UNL     1       0.919   8.236  22.047  0.00  0.00    +0.000 OA
ATOM     10  H   UNL     1      -0.566   8.951  24.256  0.00  0.00    +0.000 HD
ENDROOT
BRANCH   6  11
ATOM     11  C   UNL     1      -0.457  10.788  19.118  0.00  0.00    +0.000 A 
ATOM     12  C   UNL     1      -1.458   9.840  18.811  0.00  0.00    +0.000 A 
ATOM     13  C   UNL     1      -2.438  10.106  17.854  0.00  0.00    +0.000 A 
ATOM     14  C   UNL     1      -2.443  11.321  17.179  0.00  0.00    +0.000 A 
ATOM     15  C   UNL     1      -1.465  12.272  17.459  0.00  0.00    +0.000 A 
ATOM     16  C   UNL     1      -0.478  12.011  18.417  0.00  0.00    +0.000 A 
ATOM     17 CL   UNL     1       0.694  13.254  18.683  0.00  0.00    +0.000 Cl
ENDBRANCH   6  11
BRANCH   8  18
ATOM     18  N   UNL     1       2.139   6.951  20.551  0.00  0.00    +0.000 N 
ATOM     19  H   UNL     1       2.166   6.614  19.592  0.00  0.00    +0.000 HD
ATOM     20  H   UNL     1       1.879   6.234  21.224  0.00  0.00    +0.000 HD
ENDBRANCH   8  18
BRANCH   7  21
ATOM     21  C   UNL     1       1.861   8.950  18.433  0.00  0.00    +0.000 C 
ATOM     22  N   UNL     1       2.292   8.794  17.257  0.00  0.00    +0.000 NA
ENDBRANCH   7  21
BRANCH   1  23
ATOM     23  C   UNL     1      -1.438  12.588  21.839  0.00  0.00    +0.000 C 
BRANCH  23  25
ATOM     24  C   UNL     1      -3.780  12.793  22.042  0.00  0.00    +0.000 C 
ATOM     25  O   UNL     1      -2.704  12.431  21.191  0.00  0.00    +0.000 OA
ENDBRANCH  23  25
ENDBRANCH   1  23
TORSDOF 5
ENDMDL
MODEL 6
REMARK VINA RESULT:      -6.0      2.254      4.548
REMARK  Name = 
REMARK  6 active torsions:
REMARK  status: ('A' for Active; 'I' for Inactive)
REMARK    1  A    between atoms: C_1  and  O_2
REMARK    2  A    between atoms: O_2  and  C_3
REMARK    3  A    between atoms: C_3  and  C_4
REMARK    4  A    between atoms: C_9  and  C_10
REMARK    5  A    between atoms: C_17  and  C_18
REMARK    6  A    between atoms: C_20  and  N_21
REMARK                            x       y       z     vdW  Elec       q    Type
REMARK                         _______ _______ _______ _____ _____    ______ ____
ROOT
ATOM      1  C   UNL     1       5.787   5.332  16.468  0.00  0.00    +0.000 A 
ATOM      2  N   UNL     1       5.963   5.988  15.304  0.00  0.00    +0.000 NA
ATOM      3  N   UNL     1       5.061   6.987  15.342  0.00  0.00    +0.000 N 
ATOM      4  C   UNL     1       4.351   7.010  16.499  0.00  0.00    +0.000 A 
ATOM      5  C   UNL     1       4.784   5.952  17.256  0.00  0.00    +0.000 A 
ATOM      6  C   UNL     1       4.202   5.725  18.611  0.00  0.00    +0.000 C 
ATOM      7  C   UNL     1       3.047   6.702  18.850  0.00  0.00    +0.000 C 
ATOM      8  C   UNL     1       2.722   7.711  18.001  0.00  0.00    +0.000 C 
ATOM      9  O   UNL     1       3.414   7.906  16.791  0.00  0.00    +0.000 OA
ATOM     10  H   UNL     1       4.989   7.612  14.548  0.00  0.00    +0.000 HD
ENDROOT
BRANCH   6  11
ATOM     11  C   UNL     1       3.783   4.266  18.688  0.00  0.00    +0.000 A 
ATOM     12  C   UNL     1       4.581   3.331  19.384  0.00  0.00    +0.000 A 
ATOM     13  C   UNL     1       4.235   1.980  19.435  0.00  0.00    +0.000 A 
ATOM     14  C   UNL     1       3.089   1.528  18.794  0.00  0.00    +0.000 A 
ATOM     15  C   UNL     1       2.286   2.428  18.096  0.00  0.00    +0.000 A 
ATOM     16  C   UNL     1       2.628   3.784  18.039  0.00  0.00    +0.000 A 
ATOM     17 CL   UNL     1       1.569   4.815  17.141  0.00  0.00    +0.000 Cl
ENDBRANCH   6  11
BRANCH   8  18
ATOM     18  N   UNL     1       1.711   8.623  18.193  0.00  0.00    +0.000 N 
ATOM     19  H   UNL     1       0.773   8.313  17.950  0.00  0.00    +0.000 HD
ATOM     20  H   UNL     1       1.939   9.544  17.829  0.00  0.00    +0.000 HD
ENDBRANCH   8  18
BRANCH   7  21
ATOM     21  C   UNL     1       2.204   6.449  20.089  0.00  0.00    +0.000 C 
ATOM     22  N   UNL     1       1.504   6.240  21.118  0.00  0.00    +0.000 NA
ENDBRANCH   7  21
BRANCH   1  23
ATOM     23  C   UNL     1       6.604   4.116  16.785  0.00  0.00    +0.000 C 
BRANCH  23  25
ATOM     24  C   UNL     1       7.905   5.129  18.472  0.00  0.00    +0.000 C 
ATOM     25  O   UNL     1       7.921   4.478  17.212  0.00  0.00    +0.000 OA
ENDBRANCH  23  25
ENDBRANCH   1  23
TORSDOF 5
ENDMDL
MODEL 7
REMARK VINA RESULT:      -5.9      2.393      4.765
REMARK  Name = 
REMARK  6 active torsions:
REMARK  status: ('A' for Active; 'I' for Inactive)
REMARK    1  A    between atoms: C_1  and  O_2
REMARK    2  A    between atoms: O_2  and  C_3
REMARK    3  A    between atoms: C_3  and  C_4
REMARK    4  A    between atoms: C_9  and  C_10
REMARK    5  A    between atoms: C_17  and  C_18
REMARK    6  A    between atoms: C_20  and  N_21
REMARK                            x       y       z     vdW  Elec       q    Type
REMARK                         _______ _______ _______ _____ _____    ______ ____
ROOT
ATOM      1  C   UNL     1       5.753   5.298  16.205  0.00  0.00    +0.000 A 
ATOM      2  N   UNL     1       5.987   6.034  15.100  0.00  0.00    +0.000 NA
ATOM      3  N   UNL     1       5.161   7.090  15.219  0.00  0.00    +0.000 N 
ATOM      4  C   UNL     1       4.445   7.069  16.371  0.00  0.00    +0.000 A 
ATOM      5  C   UNL     1       4.791   5.923  17.039  0.00  0.00    +0.000 A 
ATOM      6  C   UNL     1       4.181   5.627  18.368  0.00  0.00    +0.000 C 
ATOM      7  C   UNL     1       3.099   6.664  18.684  0.00  0.00    +0.000 C 
ATOM      8  C   UNL     1       2.858   7.762  17.921  0.00  0.00    +0.000 C 
ATOM      9  O   UNL     1       3.573   8.005  16.735  0.00  0.00    +0.000 OA
ATOM     10  H   UNL     1       5.142   7.782  14.480  0.00  0.00    +0.000 HD
ENDROOT
BRANCH   6  11
ATOM     11  C   UNL     1       3.655   4.202  18.322  0.00  0.00    +0.000 A 
ATOM     12  C   UNL     1       2.581   3.867  17.469  0.00  0.00    +0.000 A 
ATOM     13  C   UNL     1       2.057   2.574  17.438  0.00  0.00    +0.000 A 
ATOM     14  C   UNL     1       2.589   1.585  18.257  0.00  0.00    +0.000 A 
ATOM     15  C   UNL     1       3.647   1.890  19.111  0.00  0.00    +0.000 A 
ATOM     16  C   UNL     1       4.176   3.185  19.148  0.00  0.00    +0.000 A 
ATOM     17 CL   UNL     1       5.481   3.460  20.248  0.00  0.00    +0.000 Cl
ENDBRANCH   6  11
BRANCH   8  18
ATOM     18  N   UNL     1       1.914   8.727  18.186  0.00  0.00    +0.000 N 
ATOM     19  H   UNL     1       2.170   9.683  17.953  0.00  0.00    +0.000 HD
ATOM     20  H   UNL     1       1.506   8.631  19.112  0.00  0.00    +0.000 HD
ENDBRANCH   8  18
BRANCH   7  21
ATOM     21  C   UNL     1       2.228   6.373  19.895  0.00  0.00    +0.000 C 
ATOM     22  N   UNL     1       1.506   6.131  20.901  0.00  0.00    +0.000 NA
ENDBRANCH   7  21
BRANCH   1  23
ATOM     23  C   UNL     1       6.476   4.003  16.421  0.00  0.00    +0.000 C 
BRANCH  23  25
ATOM     24  C   UNL     1       7.872   4.858  18.119  0.00  0.00    +0.000 C 
ATOM     25  O   UNL     1       7.823   4.230  16.848  0.00  0.00    +0.000 OA
ENDBRANCH  23  25
ENDBRANCH   1  23
TORSDOF 5
ENDMDL
MODEL 8
REMARK VINA RESULT:      -5.8      1.252      1.610
REMARK  Name = 
REMARK  6 active torsions:
REMARK  status: ('A' for Active; 'I' for Inactive)
REMARK    1  A    between atoms: C_1  and  O_2
REMARK    2  A    between atoms: O_2  and  C_3
REMARK    3  A    between atoms: C_3  and  C_4
REMARK    4  A    between atoms: C_9  and  C_10
REMARK    5  A    between atoms: C_17  and  C_18
REMARK    6  A    between atoms: C_20  and  N_21
REMARK                            x       y       z     vdW  Elec       q    Type
REMARK                         _______ _______ _______ _____ _____    ______ ____
ROOT
ATOM      1  C   UNL     1       3.331   3.976  20.272  0.00  0.00    +0.000 A 
ATOM      2  N   UNL     1       2.486   4.234  21.289  0.00  0.00    +0.000 NA
ATOM      3  N   UNL     1       1.952   5.433  20.986  0.00  0.00    +0.000 N 
ATOM      4  C   UNL     1       2.399   5.922  19.801  0.00  0.00    +0.000 A 
ATOM      5  C   UNL     1       3.299   5.014  19.306  0.00  0.00    +0.000 A 
ATOM      6  C   UNL     1       3.951   5.263  17.987  0.00  0.00    +0.000 C 
ATOM      7  C   UNL     1       3.571   6.655  17.475  0.00  0.00    +0.000 C 
ATOM      8  C   UNL     1       2.657   7.459  18.078  0.00  0.00    +0.000 C 
ATOM      9  O   UNL     1       2.012   7.077  19.268  0.00  0.00    +0.000 OA
ATOM     10  H   UNL     1       1.293   5.852  21.630  0.00  0.00    +0.000 HD
ENDROOT
BRANCH   6  11
ATOM     11  C   UNL     1       5.448   5.078  18.177  0.00  0.00    +0.000 A 
ATOM     12  C   UNL     1       6.089   5.595  19.324  0.00  0.00    +0.000 A 
ATOM     13  C   UNL     1       7.468   5.470  19.500  0.00  0.00    +0.000 A 
ATOM     14  C   UNL     1       8.240   4.831  18.538  0.00  0.00    +0.000 A 
ATOM     15  C   UNL     1       7.633   4.316  17.395  0.00  0.00    +0.000 A 
ATOM     16  C   UNL     1       6.252   4.439  17.211  0.00  0.00    +0.000 A 
ATOM     17 CL   UNL     1       5.599   3.773  15.754  0.00  0.00    +0.000 Cl
ENDBRANCH   6  11
BRANCH   8  18
ATOM     18  N   UNL     1       2.271   8.702  17.634  0.00  0.00    +0.000 N 
ATOM     19  H   UNL     1       1.608   8.720  16.863  0.00  0.00    +0.000 HD
ATOM     20  H   UNL     1       3.057   9.334  17.505  0.00  0.00    +0.000 HD
ENDBRANCH   8  18
BRANCH   7  21
ATOM     21  C   UNL     1       4.332   7.149  16.256  0.00  0.00    +0.000 C 
ATOM     22  N   UNL     1       4.965   7.560  15.244  0.00  0.00    +0.000 NA
ENDBRANCH   7  21
BRANCH   1  23
ATOM     23  C   UNL     1       4.150   2.721  20.266  0.00  0.00    +0.000 C 
BRANCH  23  25
ATOM     24  C   UNL     1       2.582   1.787  18.771  0.00  0.00    +0.000 C 
ATOM     25  O   UNL     1       3.958   1.986  19.052  0.00  0.00    +0.000 OA
ENDBRANCH  23  25
ENDBRANCH   1  23
TORSDOF 5
ENDMDL
MODEL 9
REMARK VINA RESULT:      -5.7     10.506     12.658
REMARK  Name = 
REMARK  6 active torsions:
REMARK  status: ('A' for Active; 'I' for Inactive)
REMARK    1  A    between atoms: C_1  and  O_2
REMARK    2  A    between atoms: O_2  and  C_3
REMARK    3  A    between atoms: C_3  and  C_4
REMARK    4  A    between atoms: C_9  and  C_10
REMARK    5  A    between atoms: C_17  and  C_18
REMARK    6  A    between atoms: C_20  and  N_21
REMARK                            x       y       z     vdW  Elec       q    Type
REMARK                         _______ _______ _______ _____ _____    ______ ____
ROOT
ATOM      1  C   UNL     1      11.339  14.180  17.314  0.00  0.00    +0.000 A 
ATOM      2  N   UNL     1      12.206  13.304  16.768  0.00  0.00    +0.000 NA
ATOM      3  N   UNL     1      12.035  12.175  17.481  0.00  0.00    +0.000 N 
ATOM      4  C   UNL     1      11.071  12.293  18.429  0.00  0.00    +0.000 A 
ATOM      5  C   UNL     1      10.596  13.577  18.361  0.00  0.00    +0.000 A 
ATOM      6  C   UNL     1       9.498  14.009  19.273  0.00  0.00    +0.000 C 
ATOM      7  C   UNL     1       9.192  12.896  20.280  0.00  0.00    +0.000 C 
ATOM      8  C   UNL     1       9.747  11.657  20.230  0.00  0.00    +0.000 C 
ATOM      9  O   UNL     1      10.700  11.317  19.252  0.00  0.00    +0.000 OA
ATOM     10  H   UNL     1      12.608  11.368  17.264  0.00  0.00    +0.000 HD
ENDROOT
BRANCH   6  11
ATOM     11  C   UNL     1       9.933  15.310  19.927  0.00  0.00    +0.000 A 
ATOM     12  C   UNL     1      11.098  15.351  20.725  0.00  0.00    +0.000 A 
ATOM     13  C   UNL     1      11.495  16.526  21.365  0.00  0.00    +0.000 A 
ATOM     14  C   UNL     1      10.741  17.685  21.229  0.00  0.00    +0.000 A 
ATOM     15  C   UNL     1       9.585  17.671  20.452  0.00  0.00    +0.000 A 
ATOM     16  C   UNL     1       9.180  16.496  19.808  0.00  0.00    +0.000 A 
ATOM     17 CL   UNL     1       7.727  16.583  18.875  0.00  0.00    +0.000 Cl
ENDBRANCH   6  11
BRANCH   8  18
ATOM     18  N   UNL     1       9.478  10.626  21.099  0.00  0.00    +0.000 N 
ATOM     19  H   UNL     1      10.172  10.454  21.823  0.00  0.00    +0.000 HD
ATOM     20  H   UNL     1       9.174   9.781  20.622  0.00  0.00    +0.000 HD
ENDBRANCH   8  18
BRANCH   7  21
ATOM     21  C   UNL     1       8.255  13.265  21.419  0.00  0.00    +0.000 C 
ATOM     22  N   UNL     1       7.478  13.571  22.364  0.00  0.00    +0.000 NA
ENDBRANCH   7  21
BRANCH   1  23
ATOM     23  C   UNL     1      11.256  15.585  16.800  0.00  0.00    +0.000 C 
BRANCH  23  25
ATOM     24  C   UNL     1      11.769  17.795  17.449  0.00  0.00    +0.000 C 
ATOM     25  O   UNL     1      12.183  16.438  17.480  0.00  0.00    +0.000 OA
ENDBRANCH  23  25
ENDBRANCH   1  23
TORSDOF 5
ENDMDL
