MODEL 1
REMARK VINA RESULT:      -7.9      0.000      0.000
REMARK  Name = 
REMARK  7 active torsions:
REMARK  status: ('A' for Active; 'I' for Inactive)
REMARK    1  A    between atoms: C_4  and  C_5
REMARK    2  A    between atoms: C_7  and  O_8
REMARK    3  A    between atoms: O_8  and  C_9
REMARK    4  A    between atoms: C_9  and  C_10
REMARK    5  A    between atoms: C_10  and  C_11
REMARK    6  A    between atoms: C_11  and  N_12
REMARK    7  A    between atoms: C_18  and  C_19
REMARK                            x       y       z     vdW  Elec       q    Type
REMARK                         _______ _______ _______ _____ _____    ______ ____
ROOT
ATOM      1  C   UNL     1       4.700   4.984  17.883  0.00  0.00    +0.000 A 
ATOM      2  N   UNL     1       5.531   5.867  18.456  0.00  0.00    +0.000 NA
ATOM      3  C   UNL     1       6.689   6.081  17.824  0.00  0.00    +0.000 A 
ATOM      4  C   UNL     1       7.039   5.488  16.637  0.00  0.00    +0.000 A 
ATOM      5  C   UNL     1       6.138   4.585  16.109  0.00  0.00    +0.000 A 
ATOM      6  N   UNL     1       4.963   4.332  16.732  0.00  0.00    +0.000 NA
ENDROOT
BRANCH   1  10
ATOM      7  C   UNL     1       1.080   4.044  20.021  0.00  0.00    +0.000 A 
ATOM      8  C   UNL     1       2.067   4.816  20.624  0.00  0.00    +0.000 A 
ATOM      9  C   UNL     1       3.234   5.127  19.918  0.00  0.00    +0.000 A 
ATOM     10  C   UNL     1       3.447   4.677  18.602  0.00  0.00    +0.000 A 
ATOM     11  C   UNL     1       2.426   3.908  18.012  0.00  0.00    +0.000 A 
ATOM     12  C   UNL     1       1.258   3.594  18.715  0.00  0.00    +0.000 A 
ENDBRANCH   1  10
BRANCH   5  13
ATOM     13  C   UNL     1       6.432   3.859  14.816  0.00  0.00    +0.000 C 
ATOM     14  C   UNL     1       5.501   3.977  13.631  0.00  0.00    +0.000 C 
ATOM     15  C   UNL     1       6.840   4.649  13.593  0.00  0.00    +0.000 C 
ENDBRANCH   5  13
BRANCH   3  16
ATOM     16  O   UNL     1       7.611   6.937  18.389  0.00  0.00    +0.000 OA
BRANCH  16  17
ATOM     17  C   UNL     1       7.792   8.134  17.623  0.00  0.00    +0.000 C 
BRANCH  17  18
ATOM     18  C   UNL     1       8.584   9.114  18.483  0.00  0.00    +0.000 C 
BRANCH  18  19
ATOM     19  C   UNL     1       8.730  10.470  17.787  0.00  0.00    +0.000 C 
BRANCH  19  20
ATOM     20  N   UNL     1       9.182  11.549  18.685  0.00  0.00    +0.000 NA
ATOM     21  C   UNL     1       9.755  12.709  17.981  0.00  0.00    +0.000 C 
ATOM     22  C   UNL     1      11.183  12.306  17.678  0.00  0.00    +0.000 C 
ATOM     23  C   UNL     1      11.591  11.579  18.946  0.00  0.00    +0.000 C 
ATOM     24  C   UNL     1      10.282  11.071  19.551  0.00  0.00    +0.000 C 
ENDBRANCH  19  20
ENDBRANCH  18  19
ENDBRANCH  17  18
ENDBRANCH  16  17
ENDBRANCH   3  16
TORSDOF 7
ENDMDL
MODEL 2
REMARK VINA RESULT:      -7.8      3.636      5.675
REMARK  Name = 
REMARK  7 active torsions:
REMARK  status: ('A' for Active; 'I' for Inactive)
REMARK    1  A    between atoms: C_4  and  C_5
REMARK    2  A    between atoms: C_7  and  O_8
REMARK    3  A    between atoms: O_8  and  C_9
REMARK    4  A    between atoms: C_9  and  C_10
REMARK    5  A    between atoms: C_10  and  C_11
REMARK    6  A    between atoms: C_11  and  N_12
REMARK    7  A    between atoms: C_18  and  C_19
REMARK                            x       y       z     vdW  Elec       q    Type
REMARK                         _______ _______ _______ _____ _____    ______ ____
ROOT
ATOM      1  C   UNL     1       3.194   5.920  19.251  0.00  0.00    +0.000 A 
ATOM      2  N   UNL     1       4.521   5.940  19.437  0.00  0.00    +0.000 NA
ATOM      3  C   UNL     1       5.112   4.751  19.590  0.00  0.00    +0.000 A 
ATOM      4  C   UNL     1       4.452   3.550  19.528  0.00  0.00    +0.000 A 
ATOM      5  C   UNL     1       3.085   3.606  19.340  0.00  0.00    +0.000 A 
ATOM      6  N   UNL     1       2.452   4.795  19.200  0.00  0.00    +0.000 NA
ENDROOT
BRANCH   1  10
ATOM      7  C   UNL     1       1.137   9.695  18.966  0.00  0.00    +0.000 A 
ATOM      8  C   UNL     1       1.113   8.974  20.155  0.00  0.00    +0.000 A 
ATOM      9  C   UNL     1       1.794   7.755  20.243  0.00  0.00    +0.000 A 
ATOM     10  C   UNL     1       2.510   7.226  19.153  0.00  0.00    +0.000 A 
ATOM     11  C   UNL     1       2.528   7.982  17.966  0.00  0.00    +0.000 A 
ATOM     12  C   UNL     1       1.848   9.201  17.874  0.00  0.00    +0.000 A 
ENDBRANCH   1  10
BRANCH   5  13
ATOM     13  C   UNL     1       2.256   2.344  19.278  0.00  0.00    +0.000 C 
ATOM     14  C   UNL     1       0.824   2.379  18.796  0.00  0.00    +0.000 C 
ATOM     15  C   UNL     1       1.883   1.762  17.933  0.00  0.00    +0.000 C 
ENDBRANCH   5  13
BRANCH   3  16
ATOM     16  O   UNL     1       6.468   4.704  19.839  0.00  0.00    +0.000 OA
BRANCH  16  17
ATOM     17  C   UNL     1       7.158   5.861  19.351  0.00  0.00    +0.000 C 
BRANCH  17  18
ATOM     18  C   UNL     1       7.685   5.528  17.959  0.00  0.00    +0.000 C 
BRANCH  18  19
ATOM     19  C   UNL     1       7.121   6.488  16.908  0.00  0.00    +0.000 C 
BRANCH  19  20
ATOM     20  N   UNL     1       6.805   5.838  15.622  0.00  0.00    +0.000 NA
ATOM     21  C   UNL     1       5.391   5.954  15.229  0.00  0.00    +0.000 C 
ATOM     22  C   UNL     1       4.686   4.860  16.003  0.00  0.00    +0.000 C 
ATOM     23  C   UNL     1       5.677   3.713  15.920  0.00  0.00    +0.000 C 
ATOM     24  C   UNL     1       7.038   4.380  15.713  0.00  0.00    +0.000 C 
ENDBRANCH  19  20
ENDBRANCH  18  19
ENDBRANCH  17  18
ENDBRANCH  16  17
ENDBRANCH   3  16
TORSDOF 7
ENDMDL
MODEL 3
REMARK VINA RESULT:      -7.8      3.221      7.367
REMARK  Name = 
REMARK  7 active torsions:
REMARK  status: ('A' for Active; 'I' for Inactive)
REMARK    1  A    between atoms: C_4  and  C_5
REMARK    2  A    between atoms: C_7  and  O_8
REMARK    3  A    between atoms: O_8  and  C_9
REMARK    4  A    between atoms: C_9  and  C_10
REMARK    5  A    between atoms: C_10  and  C_11
REMARK    6  A    between atoms: C_11  and  N_12
REMARK    7  A    between atoms: C_18  and  C_19
REMARK                            x       y       z     vdW  Elec       q    Type
REMARK                         _______ _______ _______ _____ _____    ______ ____
ROOT
ATOM      1  C   UNL     1       3.479   6.818  18.012  0.00  0.00    +0.000 A 
ATOM      2  N   UNL     1       2.993   5.603  17.722  0.00  0.00    +0.000 NA
ATOM      3  C   UNL     1       3.869   4.719  17.234  0.00  0.00    +0.000 A 
ATOM      4  C   UNL     1       5.205   4.977  17.060  0.00  0.00    +0.000 A 
ATOM      5  C   UNL     1       5.634   6.252  17.373  0.00  0.00    +0.000 A 
ATOM      6  N   UNL     1       4.770   7.177  17.853  0.00  0.00    +0.000 NA
ENDROOT
BRANCH   1  10
ATOM      7  C   UNL     1       0.615   9.727  19.390  0.00  0.00    +0.000 A 
ATOM      8  C   UNL     1       1.153   8.801  20.277  0.00  0.00    +0.000 A 
ATOM      9  C   UNL     1       2.092   7.868  19.824  0.00  0.00    +0.000 A 
ATOM     10  C   UNL     1       2.514   7.833  18.483  0.00  0.00    +0.000 A 
ATOM     11  C   UNL     1       1.963   8.789  17.609  0.00  0.00    +0.000 A 
ATOM     12  C   UNL     1       1.023   9.723  18.058  0.00  0.00    +0.000 A 
ENDBRANCH   1  10
BRANCH   5  13
ATOM     13  C   UNL     1       7.082   6.650  17.199  0.00  0.00    +0.000 C 
ATOM     14  C   UNL     1       7.565   8.020  17.614  0.00  0.00    +0.000 C 
ATOM     15  C   UNL     1       7.961   6.818  18.418  0.00  0.00    +0.000 C 
ENDBRANCH   5  13
BRANCH   3  16
ATOM     16  O   UNL     1       3.422   3.468  16.865  0.00  0.00    +0.000 OA
BRANCH  16  17
ATOM     17  C   UNL     1       3.619   2.488  17.892  0.00  0.00    +0.000 C 
BRANCH  17  18
ATOM     18  C   UNL     1       2.257   1.885  18.218  0.00  0.00    +0.000 C 
BRANCH  18  19
ATOM     19  C   UNL     1       1.216   2.976  18.486  0.00  0.00    +0.000 C 
BRANCH  19  20
ATOM     20  N   UNL     1       0.761   3.027  19.888  0.00  0.00    +0.000 NA
ATOM     21  C   UNL     1       0.857   4.365  20.496  0.00  0.00    +0.000 C 
ATOM     22  C   UNL     1       2.305   4.491  20.919  0.00  0.00    +0.000 C 
ATOM     23  C   UNL     1       2.610   3.104  21.452  0.00  0.00    +0.000 C 
ATOM     24  C   UNL     1       1.623   2.178  20.739  0.00  0.00    +0.000 C 
ENDBRANCH  19  20
ENDBRANCH  18  19
ENDBRANCH  17  18
ENDBRANCH  16  17
ENDBRANCH   3  16
TORSDOF 7
ENDMDL
MODEL 4
REMARK VINA RESULT:      -7.7      1.422      4.675
REMARK  Name = 
REMARK  7 active torsions:
REMARK  status: ('A' for Active; 'I' for Inactive)
REMARK    1  A    between atoms: C_4  and  C_5
REMARK    2  A    between atoms: C_7  and  O_8
REMARK    3  A    between atoms: O_8  and  C_9
REMARK    4  A    between atoms: C_9  and  C_10
REMARK    5  A    between atoms: C_10  and  C_11
REMARK    6  A    between atoms: C_11  and  N_12
REMARK    7  A    between atoms: C_18  and  C_19
REMARK                            x       y       z     vdW  Elec       q    Type
REMARK                         _______ _______ _______ _____ _____    ______ ____
ROOT
ATOM      1  C   UNL     1       6.237   5.386  15.684  0.00  0.00    +0.000 A 
ATOM      2  N   UNL     1       7.249   6.052  16.259  0.00  0.00    +0.000 NA
ATOM      3  C   UNL     1       6.986   6.615  17.442  0.00  0.00    +0.000 A 
ATOM      4  C   UNL     1       5.782   6.513  18.092  0.00  0.00    +0.000 A 
ATOM      5  C   UNL     1       4.784   5.818  17.438  0.00  0.00    +0.000 A 
ATOM      6  N   UNL     1       5.011   5.250  16.229  0.00  0.00    +0.000 NA
ENDROOT
BRANCH   1  10
ATOM      7  C   UNL     1       6.931   3.792  11.742  0.00  0.00    +0.000 A 
ATOM      8  C   UNL     1       7.757   4.790  12.247  0.00  0.00    +0.000 A 
ATOM      9  C   UNL     1       7.532   5.294  13.533  0.00  0.00    +0.000 A 
ATOM     10  C   UNL     1       6.484   4.819  14.342  0.00  0.00    +0.000 A 
ATOM     11  C   UNL     1       5.671   3.800  13.811  0.00  0.00    +0.000 A 
ATOM     12  C   UNL     1       5.892   3.294  12.525  0.00  0.00    +0.000 A 
ENDBRANCH   1  10
BRANCH   5  13
ATOM     13  C   UNL     1       3.412   5.662  18.053  0.00  0.00    +0.000 C 
ATOM     14  C   UNL     1       3.097   6.258  19.405  0.00  0.00    +0.000 C 
ATOM     15  C   UNL     1       2.506   6.867  18.170  0.00  0.00    +0.000 C 
ENDBRANCH   5  13
BRANCH   3  16
ATOM     16  O   UNL     1       7.967   7.360  18.062  0.00  0.00    +0.000 OA
BRANCH  16  17
ATOM     17  C   UNL     1       7.893   8.752  17.732  0.00  0.00    +0.000 C 
BRANCH  17  18
ATOM     18  C   UNL     1       8.726   9.512  18.760  0.00  0.00    +0.000 C 
BRANCH  18  19
ATOM     19  C   UNL     1       9.478  10.677  18.112  0.00  0.00    +0.000 C 
BRANCH  19  20
ATOM     20  N   UNL     1       9.654  11.838  19.005  0.00  0.00    +0.000 NA
ATOM     21  C   UNL     1      10.393  12.954  18.392  0.00  0.00    +0.000 C 
ATOM     22  C   UNL     1      11.851  12.572  18.533  0.00  0.00    +0.000 C 
ATOM     23  C   UNL     1      11.894  11.961  19.921  0.00  0.00    +0.000 C 
ATOM     24  C   UNL     1      10.472  11.463  20.179  0.00  0.00    +0.000 C 
ENDBRANCH  19  20
ENDBRANCH  18  19
ENDBRANCH  17  18
ENDBRANCH  16  17
ENDBRANCH   3  16
TORSDOF 7
ENDMDL
MODEL 5
REMARK VINA RESULT:      -7.7      0.290      1.023
REMARK  Name = 
REMARK  7 active torsions:
REMARK  status: ('A' for Active; 'I' for Inactive)
REMARK    1  A    between atoms: C_4  and  C_5
REMARK    2  A    between atoms: C_7  and  O_8
REMARK    3  A    between atoms: O_8  and  C_9
REMARK    4  A    between atoms: C_9  and  C_10
REMARK    5  A    between atoms: C_10  and  C_11
REMARK    6  A    between atoms: C_11  and  N_12
REMARK    7  A    between atoms: C_18  and  C_19
REMARK                            x       y       z     vdW  Elec       q    Type
REMARK                         _______ _______ _______ _____ _____    ______ ____
ROOT
ATOM      1  C   UNL     1       4.892   5.103  17.833  0.00  0.00    +0.000 A 
ATOM      2  N   UNL     1       5.732   5.988  18.387  0.00  0.00    +0.000 NA
ATOM      3  C   UNL     1       6.889   6.183  17.747  0.00  0.00    +0.000 A 
ATOM      4  C   UNL     1       7.229   5.569  16.568  0.00  0.00    +0.000 A 
ATOM      5  C   UNL     1       6.318   4.664  16.059  0.00  0.00    +0.000 A 
ATOM      6  N   UNL     1       5.144   4.430  16.692  0.00  0.00    +0.000 NA
ENDROOT
BRANCH   1  10
ATOM      7  C   UNL     1       1.207   4.318  19.922  0.00  0.00    +0.000 A 
ATOM      8  C   UNL     1       1.383   3.861  18.621  0.00  0.00    +0.000 A 
ATOM      9  C   UNL     1       2.588   4.109  17.954  0.00  0.00    +0.000 A 
ATOM     10  C   UNL     1       3.640   4.817  18.563  0.00  0.00    +0.000 A 
ATOM     11  C   UNL     1       3.439   5.258  19.885  0.00  0.00    +0.000 A 
ATOM     12  C   UNL     1       2.235   5.012  20.555  0.00  0.00    +0.000 A 
ENDBRANCH   1  10
BRANCH   5  13
ATOM     13  C   UNL     1       6.600   3.915  14.777  0.00  0.00    +0.000 C 
ATOM     14  C   UNL     1       5.619   3.946  13.628  0.00  0.00    +0.000 C 
ATOM     15  C   UNL     1       6.917   4.687  13.516  0.00  0.00    +0.000 C 
ENDBRANCH   5  13
BRANCH   3  16
ATOM     16  O   UNL     1       7.820   7.042  18.293  0.00  0.00    +0.000 OA
BRANCH  16  17
ATOM     17  C   UNL     1       7.812   8.332  17.670  0.00  0.00    +0.000 C 
BRANCH  17  18
ATOM     18  C   UNL     1       8.575   9.287  18.582  0.00  0.00    +0.000 C 
BRANCH  18  19
ATOM     19  C   UNL     1       9.144  10.470  17.795  0.00  0.00    +0.000 C 
BRANCH  19  20
ATOM     20  N   UNL     1       9.478  11.635  18.636  0.00  0.00    +0.000 NA
ATOM     21  C   UNL     1      10.219  12.690  17.925  0.00  0.00    +0.000 C 
ATOM     22  C   UNL     1      11.658  12.220  17.933  0.00  0.00    +0.000 C 
ATOM     23  C   UNL     1      11.801  11.634  19.325  0.00  0.00    +0.000 C 
ATOM     24  C   UNL     1      10.384  11.232  19.734  0.00  0.00    +0.000 C 
ENDBRANCH  19  20
ENDBRANCH  18  19
ENDBRANCH  17  18
ENDBRANCH  16  17
ENDBRANCH   3  16
TORSDOF 7
ENDMDL
MODEL 6
REMARK VINA RESULT:      -7.7      4.303      8.100
REMARK  Name = 
REMARK  7 active torsions:
REMARK  status: ('A' for Active; 'I' for Inactive)
REMARK    1  A    between atoms: C_4  and  C_5
REMARK    2  A    between atoms: C_7  and  O_8
REMARK    3  A    between atoms: O_8  and  C_9
REMARK    4  A    between atoms: C_9  and  C_10
REMARK    5  A    between atoms: C_10  and  C_11
REMARK    6  A    between atoms: C_11  and  N_12
REMARK    7  A    between atoms: C_18  and  C_19
REMARK                            x       y       z     vdW  Elec       q    Type
REMARK                         _______ _______ _______ _____ _____    ______ ____
ROOT
ATOM      1  C   UNL     1       3.951   6.396  17.975  0.00  0.00    +0.000 A 
ATOM      2  N   UNL     1       3.518   5.718  19.048  0.00  0.00    +0.000 NA
ATOM      3  C   UNL     1       2.532   6.290  19.747  0.00  0.00    +0.000 A 
ATOM      4  C   UNL     1       1.937   7.478  19.406  0.00  0.00    +0.000 A 
ATOM      5  C   UNL     1       2.439   8.124  18.294  0.00  0.00    +0.000 A 
ATOM      6  N   UNL     1       3.449   7.582  17.573  0.00  0.00    +0.000 NA
ENDROOT
BRANCH   1  10
ATOM      7  C   UNL     1       7.308   4.770  15.820  0.00  0.00    +0.000 A 
ATOM      8  C   UNL     1       7.333   4.830  17.209  0.00  0.00    +0.000 A 
ATOM      9  C   UNL     1       6.233   5.348  17.902  0.00  0.00    +0.000 A 
ATOM     10  C   UNL     1       5.089   5.819  17.231  0.00  0.00    +0.000 A 
ATOM     11  C   UNL     1       5.087   5.735  15.826  0.00  0.00    +0.000 A 
ATOM     12  C   UNL     1       6.185   5.219  15.130  0.00  0.00    +0.000 A 
ENDBRANCH   1  10
BRANCH   5  13
ATOM     13  C   UNL     1       1.871   9.450  17.842  0.00  0.00    +0.000 C 
ATOM     14  C   UNL     1       0.404   9.766  18.018  0.00  0.00    +0.000 C 
ATOM     15  C   UNL     1       1.420  10.459  18.874  0.00  0.00    +0.000 C 
ENDBRANCH   5  13
BRANCH   3  16
ATOM     16  O   UNL     1       2.077   5.671  20.892  0.00  0.00    +0.000 OA
BRANCH  16  17
ATOM     17  C   UNL     1       1.123   4.637  20.617  0.00  0.00    +0.000 C 
BRANCH  17  18
ATOM     18  C   UNL     1       1.630   3.358  21.275  0.00  0.00    +0.000 C 
BRANCH  18  19
ATOM     19  C   UNL     1       2.810   2.766  20.499  0.00  0.00    +0.000 C 
BRANCH  19  20
ATOM     20  N   UNL     1       2.405   1.870  19.399  0.00  0.00    +0.000 NA
ATOM     21  C   UNL     1       3.528   1.398  18.572  0.00  0.00    +0.000 C 
ATOM     22  C   UNL     1       3.796   2.533  17.606  0.00  0.00    +0.000 C 
ATOM     23  C   UNL     1       2.395   2.998  17.254  0.00  0.00    +0.000 C 
ATOM     24  C   UNL     1       1.530   2.590  18.447  0.00  0.00    +0.000 C 
ENDBRANCH  19  20
ENDBRANCH  18  19
ENDBRANCH  17  18
ENDBRANCH  16  17
ENDBRANCH   3  16
TORSDOF 7
ENDMDL
MODEL 7
REMARK VINA RESULT:      -7.6      4.277      8.106
REMARK  Name = 
REMARK  7 active torsions:
REMARK  status: ('A' for Active; 'I' for Inactive)
REMARK    1  A    between atoms: C_4  and  C_5
REMARK    2  A    between atoms: C_7  and  O_8
REMARK    3  A    between atoms: O_8  and  C_9
REMARK    4  A    between atoms: C_9  and  C_10
REMARK    5  A    between atoms: C_10  and  C_11
REMARK    6  A    between atoms: C_11  and  N_12
REMARK    7  A    between atoms: C_18  and  C_19
REMARK                            x       y       z     vdW  Elec       q    Type
REMARK                         _______ _______ _______ _____ _____    ______ ____
ROOT
ATOM      1  C   UNL     1       4.036   6.351  17.842  0.00  0.00    +0.000 A 
ATOM      2  N   UNL     1       3.712   5.693  18.964  0.00  0.00    +0.000 NA
ATOM      3  C   UNL     1       2.721   6.220  19.690  0.00  0.00    +0.000 A 
ATOM      4  C   UNL     1       2.018   7.342  19.333  0.00  0.00    +0.000 A 
ATOM      5  C   UNL     1       2.411   7.972  18.168  0.00  0.00    +0.000 A 
ATOM      6  N   UNL     1       3.423   7.475  17.418  0.00  0.00    +0.000 NA
ENDROOT
BRANCH   1  10
ATOM      7  C   UNL     1       7.324   4.769  15.551  0.00  0.00    +0.000 A 
ATOM      8  C   UNL     1       6.212   5.296  14.905  0.00  0.00    +0.000 A 
ATOM      9  C   UNL     1       5.154   5.820  15.656  0.00  0.00    +0.000 A 
ATOM     10  C   UNL     1       5.177   5.828  17.063  0.00  0.00    +0.000 A 
ATOM     11  C   UNL     1       6.320   5.299  17.691  0.00  0.00    +0.000 A 
ATOM     12  C   UNL     1       7.379   4.774  16.943  0.00  0.00    +0.000 A 
ENDBRANCH   1  10
BRANCH   5  13
ATOM     13  C   UNL     1       1.718   9.228  17.692  0.00  0.00    +0.000 C 
ATOM     14  C   UNL     1       0.845  10.034  18.625  0.00  0.00    +0.000 C 
ATOM     15  C   UNL     1       2.179  10.574  18.205  0.00  0.00    +0.000 C 
ENDBRANCH   5  13
BRANCH   3  16
ATOM     16  O   UNL     1       2.375   5.621  20.883  0.00  0.00    +0.000 OA
BRANCH  16  17
ATOM     17  C   UNL     1       1.206   4.801  20.769  0.00  0.00    +0.000 C 
BRANCH  17  18
ATOM     18  C   UNL     1       1.578   3.402  21.251  0.00  0.00    +0.000 C 
BRANCH  18  19
ATOM     19  C   UNL     1       2.760   2.838  20.460  0.00  0.00    +0.000 C 
BRANCH  19  20
ATOM     20  N   UNL     1       2.362   1.935  19.364  0.00  0.00    +0.000 NA
ATOM     21  C   UNL     1       3.494   1.420  18.576  0.00  0.00    +0.000 C 
ATOM     22  C   UNL     1       3.818   2.530  17.598  0.00  0.00    +0.000 C 
ATOM     23  C   UNL     1       2.439   3.025  17.201  0.00  0.00    +0.000 C 
ATOM     24  C   UNL     1       1.532   2.660  18.377  0.00  0.00    +0.000 C 
ENDBRANCH  19  20
ENDBRANCH  18  19
ENDBRANCH  17  18
ENDBRANCH  16  17
ENDBRANCH   3  16
TORSDOF 7
ENDMDL
MODEL 8
REMARK VINA RESULT:      -7.6      1.002      1.513
REMARK  Name = 
REMARK  7 active torsions:
REMARK  status: ('A' for Active; 'I' for Inactive)
REMARK    1  A    between atoms: C_4  and  C_5
REMARK    2  A    between atoms: C_7  and  O_8
REMARK    3  A    between atoms: O_8  and  C_9
REMARK    4  A    between atoms: C_9  and  C_10
REMARK    5  A    between atoms: C_10  and  C_11
REMARK    6  A    between atoms: C_11  and  N_12
REMARK    7  A    between atoms: C_18  and  C_19
REMARK                            x       y       z     vdW  Elec       q    Type
REMARK                         _______ _______ _______ _____ _____    ______ ____
ROOT
ATOM      1  C   UNL     1       4.885   5.007  16.963  0.00  0.00    +0.000 A 
ATOM      2  N   UNL     1       5.788   5.963  17.224  0.00  0.00    +0.000 NA
ATOM      3  C   UNL     1       6.818   6.047  16.376  0.00  0.00    +0.000 A 
ATOM      4  C   UNL     1       6.967   5.253  15.266  0.00  0.00    +0.000 A 
ATOM      5  C   UNL     1       6.002   4.286  15.064  0.00  0.00    +0.000 A 
ATOM      6  N   UNL     1       4.955   4.162  15.914  0.00  0.00    +0.000 NA
ENDROOT
BRANCH   1  10
ATOM      7  C   UNL     1       1.619   4.594  19.743  0.00  0.00    +0.000 A 
ATOM      8  C   UNL     1       1.509   4.083  18.454  0.00  0.00    +0.000 A 
ATOM      9  C   UNL     1       2.579   4.211  17.562  0.00  0.00    +0.000 A 
ATOM     10  C   UNL     1       3.778   4.849  17.928  0.00  0.00    +0.000 A 
ATOM     11  C   UNL     1       3.867   5.346  19.242  0.00  0.00    +0.000 A 
ATOM     12  C   UNL     1       2.799   5.221  20.137  0.00  0.00    +0.000 A 
ENDBRANCH   1  10
BRANCH   5  13
ATOM     13  C   UNL     1       6.080   3.344  13.885  0.00  0.00    +0.000 C 
ATOM     14  C   UNL     1       5.111   3.463  12.732  0.00  0.00    +0.000 C 
ATOM     15  C   UNL     1       6.542   3.865  12.543  0.00  0.00    +0.000 C 
ENDBRANCH   5  13
BRANCH   3  16
ATOM     16  O   UNL     1       7.810   6.973  16.617  0.00  0.00    +0.000 OA
BRANCH  16  17
ATOM     17  C   UNL     1       7.770   7.489  17.953  0.00  0.00    +0.000 C 
BRANCH  17  18
ATOM     18  C   UNL     1       7.767   9.011  17.858  0.00  0.00    +0.000 C 
BRANCH  18  19
ATOM     19  C   UNL     1       8.935   9.617  18.641  0.00  0.00    +0.000 C 
BRANCH  19  20
ATOM     20  N   UNL     1       9.131  11.058  18.389  0.00  0.00    +0.000 NA
ATOM     21  C   UNL     1      10.439  11.387  17.799  0.00  0.00    +0.000 C 
ATOM     22  C   UNL     1      11.393  11.420  18.975  0.00  0.00    +0.000 C 
ATOM     23  C   UNL     1      10.560  12.094  20.050  0.00  0.00    +0.000 C 
ATOM     24  C   UNL     1       9.108  11.809  19.664  0.00  0.00    +0.000 C 
ENDBRANCH  19  20
ENDBRANCH  18  19
ENDBRANCH  17  18
ENDBRANCH  16  17
ENDBRANCH   3  16
TORSDOF 7
ENDMDL
MODEL 9
REMARK VINA RESULT:      -7.5      3.593      6.069
REMARK  Name = 
REMARK  7 active torsions:
REMARK  status: ('A' for Active; 'I' for Inactive)
REMARK    1  A    between atoms: C_4  and  C_5
REMARK    2  A    between atoms: C_7  and  O_8
REMARK    3  A    between atoms: O_8  and  C_9
REMARK    4  A    between atoms: C_9  and  C_10
REMARK    5  A    between atoms: C_10  and  C_11
REMARK    6  A    between atoms: C_11  and  N_12
REMARK    7  A    between atoms: C_18  and  C_19
REMARK                            x       y       z     vdW  Elec       q    Type
REMARK                         _______ _______ _______ _____ _____    ______ ____
ROOT
ATOM      1  C   UNL     1       2.964   5.992  19.364  0.00  0.00    +0.000 A 
ATOM      2  N   UNL     1       4.276   5.839  19.134  0.00  0.00    +0.000 NA
ATOM      3  C   UNL     1       4.777   4.623  19.376  0.00  0.00    +0.000 A 
ATOM      4  C   UNL     1       4.030   3.553  19.797  0.00  0.00    +0.000 A 
ATOM      5  C   UNL     1       2.687   3.786  20.019  0.00  0.00    +0.000 A 
ATOM      6  N   UNL     1       2.150   5.010  19.801  0.00  0.00    +0.000 NA
ENDROOT
BRANCH   1  10
ATOM      7  C   UNL     1       1.264   9.911  18.805  0.00  0.00    +0.000 A 
ATOM      8  C   UNL     1       1.106   9.248  20.017  0.00  0.00    +0.000 A 
ATOM      9  C   UNL     1       1.672   7.980  20.194  0.00  0.00    +0.000 A 
ATOM     10  C   UNL     1       2.403   7.346  19.174  0.00  0.00    +0.000 A 
ATOM     11  C   UNL     1       2.558   8.046  17.962  0.00  0.00    +0.000 A 
ATOM     12  C   UNL     1       1.993   9.312  17.781  0.00  0.00    +0.000 A 
ENDBRANCH   1  10
BRANCH   5  13
ATOM     13  C   UNL     1       1.775   2.682  20.504  0.00  0.00    +0.000 C 
ATOM     14  C   UNL     1       2.208   1.749  21.611  0.00  0.00    +0.000 C 
ATOM     15  C   UNL     1       1.152   2.778  21.879  0.00  0.00    +0.000 C 
ENDBRANCH   5  13
BRANCH   3  16
ATOM     16  O   UNL     1       6.130   4.413  19.212  0.00  0.00    +0.000 OA
BRANCH  16  17
ATOM     17  C   UNL     1       6.900   5.608  19.390  0.00  0.00    +0.000 C 
BRANCH  17  18
ATOM     18  C   UNL     1       7.734   5.808  18.129  0.00  0.00    +0.000 C 
BRANCH  18  19
ATOM     19  C   UNL     1       6.973   6.627  17.084  0.00  0.00    +0.000 C 
BRANCH  19  20
ATOM     20  N   UNL     1       6.915   5.986  15.757  0.00  0.00    +0.000 NA
ATOM     21  C   UNL     1       5.572   5.988  15.152  0.00  0.00    +0.000 C 
ATOM     22  C   UNL     1       4.860   4.817  15.796  0.00  0.00    +0.000 C 
ATOM     23  C   UNL     1       5.951   3.764  15.853  0.00  0.00    +0.000 C 
ATOM     24  C   UNL     1       7.262   4.551  15.865  0.00  0.00    +0.000 C 
ENDBRANCH  19  20
ENDBRANCH  18  19
ENDBRANCH  17  18
ENDBRANCH  16  17
ENDBRANCH   3  16
TORSDOF 7
ENDMDL
