MODEL 1
REMARK VINA RESULT:      -9.5      0.000      0.000
REMARK  Name = 
REMARK  7 active torsions:
REMARK  status: ('A' for Active; 'I' for Inactive)
REMARK    1  A    between atoms: C_1  and  C_2
REMARK    2  A    between atoms: C_2  and  C_3
REMARK    3  A    between atoms: C_2  and  N_13
REMARK    4  A    between atoms: N_5  and  C_6
REMARK    5  A    between atoms: C_6  and  C_7
REMARK    6  A    between atoms: C_14  and  C_15
REMARK    7  A    between atoms: C_15  and  C_16
REMARK                            x       y       z     vdW  Elec       q    Type
REMARK                         _______ _______ _______ _____ _____    ______ ____
ROOT
ATOM      1  N   UNL     1       5.826   5.429  18.050  0.00  0.00    +0.000 N 
ATOM      2  C   UNL     1       5.400   5.586  16.754  0.00  0.00    +0.000 A 
ATOM      3  N   UNL     1       4.746   6.741  16.744  0.00  0.00    +0.000 NA
ATOM      4  C   UNL     1       3.993   6.581  17.882  0.00  0.00    +0.000 A 
ATOM      5  C   UNL     1       2.655   6.956  18.059  0.00  0.00    +0.000 A 
ATOM      6  C   UNL     1       1.850   6.029  18.726  0.00  0.00    +0.000 A 
ATOM      7  C   UNL     1       2.408   4.900  19.335  0.00  0.00    +0.000 A 
ATOM      8  C   UNL     1       3.801   4.706  19.418  0.00  0.00    +0.000 A 
ATOM      9  C   UNL     1       4.602   5.602  18.694  0.00  0.00    +0.000 A 
ENDROOT
BRANCH   1  11
ATOM     10  C   UNL     1       8.144   4.595  18.064  0.00  0.00    +0.000 C 
ATOM     11  C   UNL     1       7.208   5.755  18.420  0.00  0.00    +0.000 C 
BRANCH  11  12
ATOM     12  C   UNL     1       7.730   7.054  17.700  0.00  0.00    +0.000 C 
ATOM     13  O   UNL     1       7.960   7.069  16.487  0.00  0.00    +0.000 OA
ATOM     14  N   UNL     1       7.933   8.199  18.462  0.00  0.00    +0.000 N 
ATOM     15  H   UNL     1       7.655   8.215  19.438  0.00  0.00    +0.000 HD
BRANCH  14  16
ATOM     16  C   UNL     1       8.292   9.461  17.826  0.00  0.00    +0.000 C 
BRANCH  16  17
ATOM     17  C   UNL     1       9.215  10.389  18.593  0.00  0.00    +0.000 A 
ATOM     18  C   UNL     1       9.219  10.508  19.991  0.00  0.00    +0.000 A 
ATOM     19  C   UNL     1      10.136  11.348  20.638  0.00  0.00    +0.000 A 
ATOM     20  C   UNL     1      11.077  12.067  19.905  0.00  0.00    +0.000 A 
ATOM     21  C   UNL     1      11.112  11.941  18.518  0.00  0.00    +0.000 A 
ATOM     22  C   UNL     1      10.193  11.106  17.873  0.00  0.00    +0.000 A 
ENDBRANCH  16  17
ENDBRANCH  14  16
ENDBRANCH  11  12
ENDBRANCH   1  11
BRANCH   2  23
ATOM     23  C   UNL     1       5.144   4.317  16.008  0.00  0.00    +0.000 C 
BRANCH  23  24
ATOM     24  C   UNL     1       5.756   4.269  14.659  0.00  0.00    +0.000 A 
ATOM     25  C   UNL     1       6.921   5.006  14.420  0.00  0.00    +0.000 A 
ATOM     26  C   UNL     1       7.528   4.949  13.184  0.00  0.00    +0.000 A 
ATOM     27  F   UNL     1       8.658   5.622  12.978  0.00  0.00    +0.000 F 
ATOM     28  C   UNL     1       6.993   4.157  12.164  0.00  0.00    +0.000 A 
ATOM     29  C   UNL     1       5.840   3.423  12.407  0.00  0.00    +0.000 A 
ATOM     30  F   UNL     1       5.323   2.662  11.430  0.00  0.00    +0.000 F 
ATOM     31  C   UNL     1       5.223   3.465  13.647  0.00  0.00    +0.000 A 
ENDBRANCH  23  24
ENDBRANCH   2  23
TORSDOF 6
ENDMDL
MODEL 2
REMARK VINA RESULT:      -9.4      3.533      5.323
REMARK  Name = 
REMARK  7 active torsions:
REMARK  status: ('A' for Active; 'I' for Inactive)
REMARK    1  A    between atoms: C_1  and  C_2
REMARK    2  A    between atoms: C_2  and  C_3
REMARK    3  A    between atoms: C_2  and  N_13
REMARK    4  A    between atoms: N_5  and  C_6
REMARK    5  A    between atoms: C_6  and  C_7
REMARK    6  A    between atoms: C_14  and  C_15
REMARK    7  A    between atoms: C_15  and  C_16
REMARK                            x       y       z     vdW  Elec       q    Type
REMARK                         _______ _______ _______ _____ _____    ______ ____
ROOT
ATOM      1  N   UNL     1       5.338   5.248  18.149  0.00  0.00    +0.000 N 
ATOM      2  C   UNL     1       4.358   5.962  18.793  0.00  0.00    +0.000 A 
ATOM      3  N   UNL     1       4.075   5.255  19.880  0.00  0.00    +0.000 NA
ATOM      4  C   UNL     1       3.996   4.004  19.318  0.00  0.00    +0.000 A 
ATOM      5  C   UNL     1       3.063   3.007  19.627  0.00  0.00    +0.000 A 
ATOM      6  C   UNL     1       2.525   2.321  18.534  0.00  0.00    +0.000 A 
ATOM      7  C   UNL     1       3.041   2.504  17.247  0.00  0.00    +0.000 A 
ATOM      8  C   UNL     1       4.194   3.278  17.006  0.00  0.00    +0.000 A 
ATOM      9  C   UNL     1       4.692   4.014  18.091  0.00  0.00    +0.000 A 
ENDROOT
BRANCH   1  11
ATOM     10  C   UNL     1       7.656   4.563  17.670  0.00  0.00    +0.000 C 
ATOM     11  C   UNL     1       6.746   5.636  18.281  0.00  0.00    +0.000 C 
BRANCH  11  12
ATOM     12  C   UNL     1       7.058   7.010  17.578  0.00  0.00    +0.000 C 
ATOM     13  O   UNL     1       6.544   7.310  16.495  0.00  0.00    +0.000 OA
ATOM     14  N   UNL     1       7.933   7.892  18.201  0.00  0.00    +0.000 N 
ATOM     15  H   UNL     1       8.280   7.687  19.133  0.00  0.00    +0.000 HD
BRANCH  14  16
ATOM     16  C   UNL     1       8.156   9.226  17.658  0.00  0.00    +0.000 C 
BRANCH  16  17
ATOM     17  C   UNL     1       9.055  10.158  18.449  0.00  0.00    +0.000 A 
ATOM     18  C   UNL     1       9.055  10.244  19.848  0.00  0.00    +0.000 A 
ATOM     19  C   UNL     1       9.951  11.090  20.517  0.00  0.00    +0.000 A 
ATOM     20  C   UNL     1      10.876  11.848  19.802  0.00  0.00    +0.000 A 
ATOM     21  C   UNL     1      10.915  11.755  18.413  0.00  0.00    +0.000 A 
ATOM     22  C   UNL     1      10.018  10.914  17.747  0.00  0.00    +0.000 A 
ENDBRANCH  16  17
ENDBRANCH  14  16
ENDBRANCH  11  12
ENDBRANCH   1  11
BRANCH   2  23
ATOM     23  C   UNL     1       3.475   6.779  17.907  0.00  0.00    +0.000 C 
BRANCH  23  24
ATOM     24  C   UNL     1       2.582   7.714  18.630  0.00  0.00    +0.000 A 
ATOM     25  C   UNL     1       2.112   8.850  17.965  0.00  0.00    +0.000 A 
ATOM     26  C   UNL     1       1.252   9.716  18.605  0.00  0.00    +0.000 A 
ATOM     27  F   UNL     1       0.779  10.774  17.951  0.00  0.00    +0.000 F 
ATOM     28  C   UNL     1       0.838   9.467  19.917  0.00  0.00    +0.000 A 
ATOM     29  C   UNL     1       1.303   8.335  20.572  0.00  0.00    +0.000 A 
ATOM     30  F   UNL     1       0.908   8.092  21.833  0.00  0.00    +0.000 F 
ATOM     31  C   UNL     1       2.162   7.453  19.938  0.00  0.00    +0.000 A 
ENDBRANCH  23  24
ENDBRANCH   2  23
TORSDOF 6
ENDMDL
MODEL 3
REMARK VINA RESULT:      -9.4      3.534      5.291
REMARK  Name = 
REMARK  7 active torsions:
REMARK  status: ('A' for Active; 'I' for Inactive)
REMARK    1  A    between atoms: C_1  and  C_2
REMARK    2  A    between atoms: C_2  and  C_3
REMARK    3  A    between atoms: C_2  and  N_13
REMARK    4  A    between atoms: N_5  and  C_6
REMARK    5  A    between atoms: C_6  and  C_7
REMARK    6  A    between atoms: C_14  and  C_15
REMARK    7  A    between atoms: C_15  and  C_16
REMARK                            x       y       z     vdW  Elec       q    Type
REMARK                         _______ _______ _______ _____ _____    ______ ____
ROOT
ATOM      1  N   UNL     1       5.389   5.180  18.170  0.00  0.00    +0.000 N 
ATOM      2  C   UNL     1       4.426   5.944  18.782  0.00  0.00    +0.000 A 
ATOM      3  N   UNL     1       4.176   5.328  19.932  0.00  0.00    +0.000 NA
ATOM      4  C   UNL     1       4.085   4.036  19.476  0.00  0.00    +0.000 A 
ATOM      5  C   UNL     1       3.164   3.066  19.893  0.00  0.00    +0.000 A 
ATOM      6  C   UNL     1       2.596   2.293  18.877  0.00  0.00    +0.000 A 
ATOM      7  C   UNL     1       3.074   2.370  17.564  0.00  0.00    +0.000 A 
ATOM      8  C   UNL     1       4.217   3.122  17.227  0.00  0.00    +0.000 A 
ATOM      9  C   UNL     1       4.744   3.945  18.233  0.00  0.00    +0.000 A 
ENDROOT
BRANCH   1  11
ATOM     10  C   UNL     1       7.678   4.534  17.528  0.00  0.00    +0.000 C 
ATOM     11  C   UNL     1       6.799   5.578  18.228  0.00  0.00    +0.000 C 
BRANCH  11  12
ATOM     12  C   UNL     1       7.055   6.976  17.552  0.00  0.00    +0.000 C 
ATOM     13  O   UNL     1       6.517   7.283  16.484  0.00  0.00    +0.000 OA
ATOM     14  N   UNL     1       7.910   7.872  18.184  0.00  0.00    +0.000 N 
ATOM     15  H   UNL     1       8.277   7.659  19.106  0.00  0.00    +0.000 HD
BRANCH  14  16
ATOM     16  C   UNL     1       8.081   9.225  17.669  0.00  0.00    +0.000 C 
BRANCH  16  17
ATOM     17  C   UNL     1       9.000  10.153  18.442  0.00  0.00    +0.000 A 
ATOM     18  C   UNL     1       9.073  10.193  19.842  0.00  0.00    +0.000 A 
ATOM     19  C   UNL     1       9.983  11.040  20.490  0.00  0.00    +0.000 A 
ATOM     20  C   UNL     1      10.849  11.845  19.754  0.00  0.00    +0.000 A 
ATOM     21  C   UNL     1      10.815  11.799  18.362  0.00  0.00    +0.000 A 
ATOM     22  C   UNL     1       9.904  10.957  17.716  0.00  0.00    +0.000 A 
ENDBRANCH  16  17
ENDBRANCH  14  16
ENDBRANCH  11  12
ENDBRANCH   1  11
BRANCH   2  23
ATOM     23  C   UNL     1       3.516   6.685  17.858  0.00  0.00    +0.000 C 
BRANCH  23  24
ATOM     24  C   UNL     1       2.611   7.645  18.533  0.00  0.00    +0.000 A 
ATOM     25  C   UNL     1       2.207   7.383  19.846  0.00  0.00    +0.000 A 
ATOM     26  C   UNL     1       1.394   8.279  20.507  0.00  0.00    +0.000 A 
ATOM     27  F   UNL     1       1.048   8.041  21.769  0.00  0.00    +0.000 F 
ATOM     28  C   UNL     1       0.971   9.454  19.878  0.00  0.00    +0.000 A 
ATOM     29  C   UNL     1       1.379   9.712  18.577  0.00  0.00    +0.000 A 
ATOM     30  F   UNL     1       0.974  10.840  17.969  0.00  0.00    +0.000 F 
ATOM     31  C   UNL     1       2.201   8.824  17.903  0.00  0.00    +0.000 A 
ENDBRANCH  23  24
ENDBRANCH   2  23
TORSDOF 6
ENDMDL
MODEL 4
REMARK VINA RESULT:      -9.3      4.179      7.911
REMARK  Name = 
REMARK  7 active torsions:
REMARK  status: ('A' for Active; 'I' for Inactive)
REMARK    1  A    between atoms: C_1  and  C_2
REMARK    2  A    between atoms: C_2  and  C_3
REMARK    3  A    between atoms: C_2  and  N_13
REMARK    4  A    between atoms: N_5  and  C_6
REMARK    5  A    between atoms: C_6  and  C_7
REMARK    6  A    between atoms: C_14  and  C_15
REMARK    7  A    between atoms: C_15  and  C_16
REMARK                            x       y       z     vdW  Elec       q    Type
REMARK                         _______ _______ _______ _____ _____    ______ ____
ROOT
ATOM      1  N   UNL     1       4.933   5.420  17.435  0.00  0.00    +0.000 N 
ATOM      2  C   UNL     1       4.116   6.001  18.373  0.00  0.00    +0.000 A 
ATOM      3  N   UNL     1       4.482   5.462  19.530  0.00  0.00    +0.000 NA
ATOM      4  C   UNL     1       4.551   4.144  19.150  0.00  0.00    +0.000 A 
ATOM      5  C   UNL     1       4.131   3.036  19.896  0.00  0.00    +0.000 A 
ATOM      6  C   UNL     1       3.434   2.056  19.185  0.00  0.00    +0.000 A 
ATOM      7  C   UNL     1       3.343   2.109  17.789  0.00  0.00    +0.000 A 
ATOM      8  C   UNL     1       4.047   3.065  17.030  0.00  0.00    +0.000 A 
ATOM      9  C   UNL     1       4.691   4.084  17.748  0.00  0.00    +0.000 A 
ENDROOT
BRANCH   1  11
ATOM     10  C   UNL     1       7.052   6.492  18.095  0.00  0.00    +0.000 C 
ATOM     11  C   UNL     1       6.113   6.135  16.936  0.00  0.00    +0.000 C 
BRANCH  11  12
ATOM     12  C   UNL     1       6.923   5.290  15.883  0.00  0.00    +0.000 C 
ATOM     13  O   UNL     1       7.869   4.573  16.224  0.00  0.00    +0.000 OA
ATOM     14  N   UNL     1       6.555   5.368  14.545  0.00  0.00    +0.000 N 
ATOM     15  H   UNL     1       5.721   5.882  14.277  0.00  0.00    +0.000 HD
BRANCH  14  16
ATOM     16  C   UNL     1       7.187   4.511  13.549  0.00  0.00    +0.000 C 
BRANCH  16  17
ATOM     17  C   UNL     1       6.275   3.671  12.675  0.00  0.00    +0.000 A 
ATOM     18  C   UNL     1       4.933   3.984  12.416  0.00  0.00    +0.000 A 
ATOM     19  C   UNL     1       4.162   3.190  11.555  0.00  0.00    +0.000 A 
ATOM     20  C   UNL     1       4.723   2.084  10.921  0.00  0.00    +0.000 A 
ATOM     21  C   UNL     1       6.063   1.772  11.139  0.00  0.00    +0.000 A 
ATOM     22  C   UNL     1       6.829   2.561  12.002  0.00  0.00    +0.000 A 
ENDBRANCH  16  17
ENDBRANCH  14  16
ENDBRANCH  11  12
ENDBRANCH   1  11
BRANCH   2  23
ATOM     23  C   UNL     1       2.769   6.417  17.878  0.00  0.00    +0.000 C 
BRANCH  23  24
ATOM     24  C   UNL     1       2.160   7.536  18.635  0.00  0.00    +0.000 A 
ATOM     25  C   UNL     1       1.936   7.379  20.006  0.00  0.00    +0.000 A 
ATOM     26  C   UNL     1       1.403   8.418  20.739  0.00  0.00    +0.000 A 
ATOM     27  F   UNL     1       1.230   8.274  22.050  0.00  0.00    +0.000 F 
ATOM     28  C   UNL     1       1.085   9.633  20.124  0.00  0.00    +0.000 A 
ATOM     29  C   UNL     1       1.314   9.785  18.763  0.00  0.00    +0.000 A 
ATOM     30  F   UNL     1       1.010  10.951  18.169  0.00  0.00    +0.000 F 
ATOM     31  C   UNL     1       1.856   8.752  18.016  0.00  0.00    +0.000 A 
ENDBRANCH  23  24
ENDBRANCH   2  23
TORSDOF 6
ENDMDL
MODEL 5
REMARK VINA RESULT:      -9.3      4.689      7.825
REMARK  Name = 
REMARK  7 active torsions:
REMARK  status: ('A' for Active; 'I' for Inactive)
REMARK    1  A    between atoms: C_1  and  C_2
REMARK    2  A    between atoms: C_2  and  C_3
REMARK    3  A    between atoms: C_2  and  N_13
REMARK    4  A    between atoms: N_5  and  C_6
REMARK    5  A    between atoms: C_6  and  C_7
REMARK    6  A    between atoms: C_14  and  C_15
REMARK    7  A    between atoms: C_15  and  C_16
REMARK                            x       y       z     vdW  Elec       q    Type
REMARK                         _______ _______ _______ _____ _____    ______ ____
ROOT
ATOM      1  N   UNL     1       4.762   5.118  17.681  0.00  0.00    +0.000 N 
ATOM      2  C   UNL     1       3.996   5.924  18.485  0.00  0.00    +0.000 A 
ATOM      3  N   UNL     1       4.152   5.436  19.710  0.00  0.00    +0.000 NA
ATOM      4  C   UNL     1       3.997   4.098  19.439  0.00  0.00    +0.000 A 
ATOM      5  C   UNL     1       3.309   3.161  20.219  0.00  0.00    +0.000 A 
ATOM      6  C   UNL     1       2.499   2.265  19.517  0.00  0.00    +0.000 A 
ATOM      7  C   UNL     1       2.540   2.205  18.120  0.00  0.00    +0.000 A 
ATOM      8  C   UNL     1       3.476   2.940  17.365  0.00  0.00    +0.000 A 
ATOM      9  C   UNL     1       4.242   3.883  18.067  0.00  0.00    +0.000 A 
ENDROOT
BRANCH   1  11
ATOM     10  C   UNL     1       7.166   4.581  17.764  0.00  0.00    +0.000 C 
ATOM     11  C   UNL     1       6.096   5.552  17.251  0.00  0.00    +0.000 C 
BRANCH  11  12
ATOM     12  C   UNL     1       6.219   5.645  15.684  0.00  0.00    +0.000 C 
ATOM     13  O   UNL     1       5.553   6.455  15.033  0.00  0.00    +0.000 OA
ATOM     14  N   UNL     1       7.100   4.786  15.036  0.00  0.00    +0.000 N 
ATOM     15  H   UNL     1       7.715   4.187  15.578  0.00  0.00    +0.000 HD
BRANCH  14  16
ATOM     16  C   UNL     1       7.347   4.916  13.605  0.00  0.00    +0.000 C 
BRANCH  16  17
ATOM     17  C   UNL     1       6.657   3.925  12.687  0.00  0.00    +0.000 A 
ATOM     18  C   UNL     1       7.325   2.902  11.998  0.00  0.00    +0.000 A 
ATOM     19  C   UNL     1       6.617   1.987  11.206  0.00  0.00    +0.000 A 
ATOM     20  C   UNL     1       5.230   2.064  11.105  0.00  0.00    +0.000 A 
ATOM     21  C   UNL     1       4.542   3.052  11.805  0.00  0.00    +0.000 A 
ATOM     22  C   UNL     1       5.250   3.967  12.591  0.00  0.00    +0.000 A 
ENDBRANCH  16  17
ENDBRANCH  14  16
ENDBRANCH  11  12
ENDBRANCH   1  11
BRANCH   2  23
ATOM     23  C   UNL     1       2.802   6.534  17.826  0.00  0.00    +0.000 C 
BRANCH  23  24
ATOM     24  C   UNL     1       2.158   7.614  18.611  0.00  0.00    +0.000 A 
ATOM     25  C   UNL     1       1.962   7.427  19.982  0.00  0.00    +0.000 A 
ATOM     26  C   UNL     1       1.398   8.432  20.739  0.00  0.00    +0.000 A 
ATOM     27  F   UNL     1       1.252   8.260  22.051  0.00  0.00    +0.000 F 
ATOM     28  C   UNL     1       1.021   9.642  20.149  0.00  0.00    +0.000 A 
ATOM     29  C   UNL     1       1.222   9.825  18.788  0.00  0.00    +0.000 A 
ATOM     30  F   UNL     1       0.861  10.986  18.217  0.00  0.00    +0.000 F 
ATOM     31  C   UNL     1       1.795   8.827  18.016  0.00  0.00    +0.000 A 
ENDBRANCH  23  24
ENDBRANCH   2  23
TORSDOF 6
ENDMDL
MODEL 6
REMARK VINA RESULT:      -9.3      0.316      1.536
REMARK  Name = 
REMARK  7 active torsions:
REMARK  status: ('A' for Active; 'I' for Inactive)
REMARK    1  A    between atoms: C_1  and  C_2
REMARK    2  A    between atoms: C_2  and  C_3
REMARK    3  A    between atoms: C_2  and  N_13
REMARK    4  A    between atoms: N_5  and  C_6
REMARK    5  A    between atoms: C_6  and  C_7
REMARK    6  A    between atoms: C_14  and  C_15
REMARK    7  A    between atoms: C_15  and  C_16
REMARK                            x       y       z     vdW  Elec       q    Type
REMARK                         _______ _______ _______ _____ _____    ______ ____
ROOT
ATOM      1  N   UNL     1       5.758   5.439  17.982  0.00  0.00    +0.000 N 
ATOM      2  C   UNL     1       5.317   5.633  16.697  0.00  0.00    +0.000 A 
ATOM      3  N   UNL     1       4.675   6.796  16.725  0.00  0.00    +0.000 NA
ATOM      4  C   UNL     1       3.935   6.613  17.868  0.00  0.00    +0.000 A 
ATOM      5  C   UNL     1       2.603   6.997  18.071  0.00  0.00    +0.000 A 
ATOM      6  C   UNL     1       1.797   6.061  18.725  0.00  0.00    +0.000 A 
ATOM      7  C   UNL     1       2.350   4.911  19.297  0.00  0.00    +0.000 A 
ATOM      8  C   UNL     1       3.742   4.701  19.358  0.00  0.00    +0.000 A 
ATOM      9  C   UNL     1       4.544   5.607  18.646  0.00  0.00    +0.000 A 
ENDROOT
BRANCH   1  11
ATOM     10  C   UNL     1       8.059   4.560  17.994  0.00  0.00    +0.000 C 
ATOM     11  C   UNL     1       7.147   5.741  18.344  0.00  0.00    +0.000 C 
BRANCH  11  12
ATOM     12  C   UNL     1       7.692   7.023  17.609  0.00  0.00    +0.000 C 
ATOM     13  O   UNL     1       8.026   6.990  16.421  0.00  0.00    +0.000 OA
ATOM     14  N   UNL     1       7.793   8.208  18.328  0.00  0.00    +0.000 N 
ATOM     15  H   UNL     1       7.430   8.259  19.276  0.00  0.00    +0.000 HD
BRANCH  14  16
ATOM     16  C   UNL     1       8.169   9.451  17.665  0.00  0.00    +0.000 C 
BRANCH  16  17
ATOM     17  C   UNL     1       8.956  10.462  18.477  0.00  0.00    +0.000 A 
ATOM     18  C   UNL     1       9.338  10.266  19.812  0.00  0.00    +0.000 A 
ATOM     19  C   UNL     1      10.111  11.222  20.486  0.00  0.00    +0.000 A 
ATOM     20  C   UNL     1      10.533  12.379  19.834  0.00  0.00    +0.000 A 
ATOM     21  C   UNL     1      10.192  12.579  18.499  0.00  0.00    +0.000 A 
ATOM     22  C   UNL     1       9.417  11.628  17.829  0.00  0.00    +0.000 A 
ENDBRANCH  16  17
ENDBRANCH  14  16
ENDBRANCH  11  12
ENDBRANCH   1  11
BRANCH   2  23
ATOM     23  C   UNL     1       5.039   4.388  15.921  0.00  0.00    +0.000 C 
BRANCH  23  24
ATOM     24  C   UNL     1       5.765   4.296  14.633  0.00  0.00    +0.000 A 
ATOM     25  C   UNL     1       5.248   3.479  13.623  0.00  0.00    +0.000 A 
ATOM     26  C   UNL     1       5.887   3.406  12.403  0.00  0.00    +0.000 A 
ATOM     27  F   UNL     1       5.365   2.657  11.435  0.00  0.00    +0.000 F 
ATOM     28  C   UNL     1       7.048   4.145  12.163  0.00  0.00    +0.000 A 
ATOM     29  C   UNL     1       7.555   4.959  13.167  0.00  0.00    +0.000 A 
ATOM     30  F   UNL     1       8.672   5.670  12.940  0.00  0.00    +0.000 F 
ATOM     31  C   UNL     1       6.920   5.048  14.394  0.00  0.00    +0.000 A 
ENDBRANCH  23  24
ENDBRANCH   2  23
TORSDOF 6
ENDMDL
MODEL 7
REMARK VINA RESULT:      -9.2      4.435      7.537
REMARK  Name = 
REMARK  7 active torsions:
REMARK  status: ('A' for Active; 'I' for Inactive)
REMARK    1  A    between atoms: C_1  and  C_2
REMARK    2  A    between atoms: C_2  and  C_3
REMARK    3  A    between atoms: C_2  and  N_13
REMARK    4  A    between atoms: N_5  and  C_6
REMARK    5  A    between atoms: C_6  and  C_7
REMARK    6  A    between atoms: C_14  and  C_15
REMARK    7  A    between atoms: C_15  and  C_16
REMARK                            x       y       z     vdW  Elec       q    Type
REMARK                         _______ _______ _______ _____ _____    ______ ____
ROOT
ATOM      1  N   UNL     1       4.957   5.237  18.204  0.00  0.00    +0.000 N 
ATOM      2  C   UNL     1       3.963   5.854  18.922  0.00  0.00    +0.000 A 
ATOM      3  N   UNL     1       3.840   5.133  20.030  0.00  0.00    +0.000 NA
ATOM      4  C   UNL     1       3.847   3.875  19.478  0.00  0.00    +0.000 A 
ATOM      5  C   UNL     1       3.049   2.790  19.863  0.00  0.00    +0.000 A 
ATOM      6  C   UNL     1       2.501   2.041  18.818  0.00  0.00    +0.000 A 
ATOM      7  C   UNL     1       2.892   2.263  17.493  0.00  0.00    +0.000 A 
ATOM      8  C   UNL     1       3.937   3.148  17.160  0.00  0.00    +0.000 A 
ATOM      9  C   UNL     1       4.439   3.943  18.201  0.00  0.00    +0.000 A 
ENDROOT
BRANCH   1  11
ATOM     10  C   UNL     1       7.015   5.421  19.548  0.00  0.00    +0.000 C 
ATOM     11  C   UNL     1       6.324   5.769  18.223  0.00  0.00    +0.000 C 
BRANCH  11  12
ATOM     12  C   UNL     1       7.202   5.207  17.043  0.00  0.00    +0.000 C 
ATOM     13  O   UNL     1       8.057   4.338  17.235  0.00  0.00    +0.000 OA
ATOM     14  N   UNL     1       6.999   5.714  15.765  0.00  0.00    +0.000 N 
ATOM     15  H   UNL     1       6.233   6.358  15.591  0.00  0.00    +0.000 HD
BRANCH  14  16
ATOM     16  C   UNL     1       7.692   5.140  14.619  0.00  0.00    +0.000 C 
BRANCH  16  17
ATOM     17  C   UNL     1       6.844   4.453  13.565  0.00  0.00    +0.000 A 
ATOM     18  C   UNL     1       7.325   4.064  12.306  0.00  0.00    +0.000 A 
ATOM     19  C   UNL     1       6.499   3.385  11.399  0.00  0.00    +0.000 A 
ATOM     20  C   UNL     1       5.186   3.066  11.740  0.00  0.00    +0.000 A 
ATOM     21  C   UNL     1       4.697   3.415  12.996  0.00  0.00    +0.000 A 
ATOM     22  C   UNL     1       5.521   4.096  13.898  0.00  0.00    +0.000 A 
ENDBRANCH  16  17
ENDBRANCH  14  16
ENDBRANCH  11  12
ENDBRANCH   1  11
BRANCH   2  23
ATOM     23  C   UNL     1       2.934   6.566  18.106  0.00  0.00    +0.000 C 
BRANCH  23  24
ATOM     24  C   UNL     1       2.233   7.657  18.825  0.00  0.00    +0.000 A 
ATOM     25  C   UNL     1       1.855   8.800  18.114  0.00  0.00    +0.000 A 
ATOM     26  C   UNL     1       1.171   9.812  18.753  0.00  0.00    +0.000 A 
ATOM     27  F   UNL     1       0.780  10.878  18.059  0.00  0.00    +0.000 F 
ATOM     28  C   UNL     1       0.847   9.706  20.108  0.00  0.00    +0.000 A 
ATOM     29  C   UNL     1       1.220   8.567  20.809  0.00  0.00    +0.000 A 
ATOM     30  F   UNL     1       0.911   8.462  22.112  0.00  0.00    +0.000 F 
ATOM     31  C   UNL     1       1.901   7.539  20.178  0.00  0.00    +0.000 A 
ENDBRANCH  23  24
ENDBRANCH   2  23
TORSDOF 6
ENDMDL
MODEL 8
REMARK VINA RESULT:      -9.2      4.445      7.597
REMARK  Name = 
REMARK  7 active torsions:
REMARK  status: ('A' for Active; 'I' for Inactive)
REMARK    1  A    between atoms: C_1  and  C_2
REMARK    2  A    between atoms: C_2  and  C_3
REMARK    3  A    between atoms: C_2  and  N_13
REMARK    4  A    between atoms: N_5  and  C_6
REMARK    5  A    between atoms: C_6  and  C_7
REMARK    6  A    between atoms: C_14  and  C_15
REMARK    7  A    between atoms: C_15  and  C_16
REMARK                            x       y       z     vdW  Elec       q    Type
REMARK                         _______ _______ _______ _____ _____    ______ ____
ROOT
ATOM      1  N   UNL     1       4.922   5.319  18.108  0.00  0.00    +0.000 N 
ATOM      2  C   UNL     1       3.943   5.952  18.833  0.00  0.00    +0.000 A 
ATOM      3  N   UNL     1       3.836   5.248  19.954  0.00  0.00    +0.000 NA
ATOM      4  C   UNL     1       3.826   3.982  19.422  0.00  0.00    +0.000 A 
ATOM      5  C   UNL     1       3.030   2.908  19.836  0.00  0.00    +0.000 A 
ATOM      6  C   UNL     1       2.459   2.146  18.813  0.00  0.00    +0.000 A 
ATOM      7  C   UNL     1       2.829   2.346  17.478  0.00  0.00    +0.000 A 
ATOM      8  C   UNL     1       3.872   3.220  17.113  0.00  0.00    +0.000 A 
ATOM      9  C   UNL     1       4.397   4.028  18.133  0.00  0.00    +0.000 A 
ENDROOT
BRANCH   1  11
ATOM     10  C   UNL     1       6.990   5.547  19.428  0.00  0.00    +0.000 C 
ATOM     11  C   UNL     1       6.292   5.844  18.095  0.00  0.00    +0.000 C 
BRANCH  11  12
ATOM     12  C   UNL     1       7.158   5.229  16.933  0.00  0.00    +0.000 C 
ATOM     13  O   UNL     1       8.020   4.375  17.156  0.00  0.00    +0.000 OA
ATOM     14  N   UNL     1       6.935   5.671  15.634  0.00  0.00    +0.000 N 
ATOM     15  H   UNL     1       6.163   6.302  15.438  0.00  0.00    +0.000 HD
BRANCH  14  16
ATOM     16  C   UNL     1       7.617   5.045  14.508  0.00  0.00    +0.000 C 
BRANCH  16  17
ATOM     17  C   UNL     1       6.756   4.335  13.480  0.00  0.00    +0.000 A 
ATOM     18  C   UNL     1       7.255   3.773  12.296  0.00  0.00    +0.000 A 
ATOM     19  C   UNL     1       6.410   3.085  11.415  0.00  0.00    +0.000 A 
ATOM     20  C   UNL     1       5.057   2.928  11.709  0.00  0.00    +0.000 A 
ATOM     21  C   UNL     1       4.546   3.452  12.894  0.00  0.00    +0.000 A 
ATOM     22  C   UNL     1       5.389   4.142  13.770  0.00  0.00    +0.000 A 
ENDBRANCH  16  17
ENDBRANCH  14  16
ENDBRANCH  11  12
ENDBRANCH   1  11
BRANCH   2  23
ATOM     23  C   UNL     1       2.904   6.658  18.025  0.00  0.00    +0.000 C 
BRANCH  23  24
ATOM     24  C   UNL     1       2.178   7.721  18.759  0.00  0.00    +0.000 A 
ATOM     25  C   UNL     1       1.940   7.555  20.126  0.00  0.00    +0.000 A 
ATOM     26  C   UNL     1       1.298   8.546  20.838  0.00  0.00    +0.000 A 
ATOM     27  F   UNL     1       1.111   8.397  22.147  0.00  0.00    +0.000 F 
ATOM     28  C   UNL     1       0.884   9.722  20.205  0.00  0.00    +0.000 A 
ATOM     29  C   UNL     1       1.127   9.884  18.848  0.00  0.00    +0.000 A 
ATOM     30  F   UNL     1       0.730  11.012  18.237  0.00  0.00    +0.000 F 
ATOM     31  C   UNL     1       1.777   8.900  18.122  0.00  0.00    +0.000 A 
ENDBRANCH  23  24
ENDBRANCH   2  23
TORSDOF 6
ENDMDL
MODEL 9
REMARK VINA RESULT:      -9.2      3.967      6.865
REMARK  Name = 
REMARK  7 active torsions:
REMARK  status: ('A' for Active; 'I' for Inactive)
REMARK    1  A    between atoms: C_1  and  C_2
REMARK    2  A    between atoms: C_2  and  C_3
REMARK    3  A    between atoms: C_2  and  N_13
REMARK    4  A    between atoms: N_5  and  C_6
REMARK    5  A    between atoms: C_6  and  C_7
REMARK    6  A    between atoms: C_14  and  C_15
REMARK    7  A    between atoms: C_15  and  C_16
REMARK                            x       y       z     vdW  Elec       q    Type
REMARK                         _______ _______ _______ _____ _____    ______ ____
ROOT
ATOM      1  N   UNL     1       3.021   5.650  19.357  0.00  0.00    +0.000 N 
ATOM      2  C   UNL     1       3.134   4.759  18.319  0.00  0.00    +0.000 A 
ATOM      3  N   UNL     1       1.886   4.405  18.032  0.00  0.00    +0.000 NA
ATOM      4  C   UNL     1       1.420   4.185  19.305  0.00  0.00    +0.000 A 
ATOM      5  C   UNL     1       0.572   3.149  19.717  0.00  0.00    +0.000 A 
ATOM      6  C   UNL     1       0.911   2.533  20.924  0.00  0.00    +0.000 A 
ATOM      7  C   UNL     1       1.918   3.059  21.741  0.00  0.00    +0.000 A 
ATOM      8  C   UNL     1       2.544   4.289  21.458  0.00  0.00    +0.000 A 
ATOM      9  C   UNL     1       2.249   4.871  20.217  0.00  0.00    +0.000 A 
ENDROOT
BRANCH   1  11
ATOM     10  C   UNL     1       3.043   7.378  17.600  0.00  0.00    +0.000 C 
ATOM     11  C   UNL     1       3.094   7.094  19.106  0.00  0.00    +0.000 C 
BRANCH  11  12
ATOM     12  C   UNL     1       1.921   7.882  19.801  0.00  0.00    +0.000 C 
ATOM     13  O   UNL     1       1.432   7.499  20.868  0.00  0.00    +0.000 OA
ATOM     14  N   UNL     1       1.437   9.030  19.184  0.00  0.00    +0.000 N 
ATOM     15  H   UNL     1       1.900   9.396  18.359  0.00  0.00    +0.000 HD
BRANCH  14  16
ATOM     16  C   UNL     1       0.442   9.866  19.846  0.00  0.00    +0.000 C 
BRANCH  16  17
ATOM     17  C   UNL     1      -0.749  10.315  19.021  0.00  0.00    +0.000 A 
ATOM     18  C   UNL     1      -1.609  11.358  19.393  0.00  0.00    +0.000 A 
ATOM     19  C   UNL     1      -2.662  11.755  18.557  0.00  0.00    +0.000 A 
ATOM     20  C   UNL     1      -2.861  11.133  17.326  0.00  0.00    +0.000 A 
ATOM     21  C   UNL     1      -2.001  10.115  16.923  0.00  0.00    +0.000 A 
ATOM     22  C   UNL     1      -0.954   9.717  17.760  0.00  0.00    +0.000 A 
ENDBRANCH  16  17
ENDBRANCH  14  16
ENDBRANCH  11  12
ENDBRANCH   1  11
BRANCH   2  23
ATOM     23  C   UNL     1       4.400   3.968  18.290  0.00  0.00    +0.000 C 
BRANCH  23  24
ATOM     24  C   UNL     1       5.394   4.442  17.298  0.00  0.00    +0.000 A 
ATOM     25  C   UNL     1       5.483   3.788  16.066  0.00  0.00    +0.000 A 
ATOM     26  C   UNL     1       6.375   4.233  15.114  0.00  0.00    +0.000 A 
ATOM     27  F   UNL     1       6.424   3.628  13.929  0.00  0.00    +0.000 F 
ATOM     28  C   UNL     1       7.192   5.338  15.366  0.00  0.00    +0.000 A 
ATOM     29  C   UNL     1       7.097   5.988  16.589  0.00  0.00    +0.000 A 
ATOM     30  F   UNL     1       7.881   7.050  16.836  0.00  0.00    +0.000 F 
ATOM     31  C   UNL     1       6.200   5.556  17.552  0.00  0.00    +0.000 A 
ENDBRANCH  23  24
ENDBRANCH   2  23
TORSDOF 6
ENDMDL
