MODEL 1
REMARK VINA RESULT:      -8.5      0.000      0.000
REMARK  Name = 
REMARK  8 active torsions:
REMARK  status: ('A' for Active; 'I' for Inactive)
REMARK    1  A    between atoms: C_1  and  C_2
REMARK    2  A    between atoms: C_2  and  N_3
REMARK    3  A    between atoms: C_2  and  C_24
REMARK    4  A    between atoms: C_4  and  C_6
REMARK    5  A    between atoms: C_10  and  C_11
REMARK    6  A    between atoms: N_13  and  C_14
REMARK    7  A    between atoms: C_14  and  C_15
REMARK    8  A    between atoms: C_14  and  C_16
REMARK                            x       y       z     vdW  Elec       q    Type
REMARK                         _______ _______ _______ _____ _____    ______ ____
ROOT
ATOM      1  C   UNL     1       1.090   9.750  20.088  0.00  0.00    +0.000 A 
ATOM      2  C   UNL     1       1.281  10.318  18.821  0.00  0.00    +0.000 A 
ATOM      3  C   UNL     1       1.870   9.566  17.809  0.00  0.00    +0.000 A 
ATOM      4  C   UNL     1       2.258   8.248  18.056  0.00  0.00    +0.000 A 
ATOM      5  C   UNL     1       2.063   7.662  19.319  0.00  0.00    +0.000 A 
ATOM      6  C   UNL     1       1.477   8.422  20.335  0.00  0.00    +0.000 A 
ENDROOT
BRANCH   1   8
ATOM      7  N   UNL     1      -0.370  11.559  20.833  0.00  0.00    +0.000 N 
ATOM      8  C   UNL     1       0.429  10.499  21.189  0.00  0.00    +0.000 C 
ATOM      9  O   UNL     1       0.624  10.169  22.354  0.00  0.00    +0.000 OA
ATOM     10  H   UNL     1      -0.418  11.899  19.882  0.00  0.00    +0.000 HD
BRANCH   7  12
ATOM     11  C   UNL     1      -0.331  13.723  21.959  0.00  0.00    +0.000 C 
ATOM     12  C   UNL     1      -1.032  12.372  21.845  0.00  0.00    +0.000 C 
BRANCH  12  13
ATOM     13  C   UNL     1      -2.514  12.575  21.454  0.00  0.00    +0.000 C 
ATOM     14  O   UNL     1      -2.848  12.728  20.279  0.00  0.00    +0.000 OA
ATOM     15  N   UNL     1      -3.415  12.668  22.496  0.00  0.00    +0.000 N 
ATOM     16  C   UNL     1      -4.802  13.024  22.282  0.00  0.00    +0.000 C 
ATOM     17  C   UNL     1      -5.274  13.409  23.675  0.00  0.00    +0.000 C 
ATOM     18  C   UNL     1      -4.521  12.441  24.582  0.00  0.00    +0.000 C 
ATOM     19  C   UNL     1      -3.221  12.145  23.838  0.00  0.00    +0.000 C 
ENDBRANCH  12  13
ENDBRANCH   7  12
ENDBRANCH   1   8
BRANCH   5  20
ATOM     20  C   UNL     1       2.492   6.245  19.489  0.00  0.00    +0.000 C 
ATOM     21  O   UNL     1       2.362   5.701  20.585  0.00  0.00    +0.000 OA
ATOM     22  N   UNL     1       3.033   5.581  18.411  0.00  0.00    +0.000 N 
ATOM     23  H   UNL     1       3.186   6.018  17.508  0.00  0.00    +0.000 HD
BRANCH  22  24
ATOM     24  C   UNL     1       3.509   4.207  18.542  0.00  0.00    +0.000 C 
ATOM     25  C   UNL     1       2.878   3.321  17.478  0.00  0.00    +0.000 C 
BRANCH  24  26
ATOM     26  C   UNL     1       5.049   4.227  18.417  0.00  0.00    +0.000 C 
ATOM     27  O   UNL     1       5.745   3.832  19.364  0.00  0.00    +0.000 OA
ATOM     28  N   UNL     1       5.621   4.686  17.253  0.00  0.00    +0.000 N 
ATOM     29  C   UNL     1       4.965   5.162  16.044  0.00  0.00    +0.000 C 
ATOM     30  C   UNL     1       5.862   4.640  14.936  0.00  0.00    +0.000 C 
ATOM     31  C   UNL     1       7.260   4.757  15.536  0.00  0.00    +0.000 C 
ATOM     32  C   UNL     1       7.050   4.547  17.033  0.00  0.00    +0.000 C 
ENDBRANCH  24  26
ENDBRANCH  22  24
ENDBRANCH   5  20
TORSDOF 6
ENDMDL
MODEL 2
REMARK VINA RESULT:      -8.4      0.974      1.387
REMARK  Name = 
REMARK  8 active torsions:
REMARK  status: ('A' for Active; 'I' for Inactive)
REMARK    1  A    between atoms: C_1  and  C_2
REMARK    2  A    between atoms: C_2  and  N_3
REMARK    3  A    between atoms: C_2  and  C_24
REMARK    4  A    between atoms: C_4  and  C_6
REMARK    5  A    between atoms: C_10  and  C_11
REMARK    6  A    between atoms: N_13  and  C_14
REMARK    7  A    between atoms: C_14  and  C_15
REMARK    8  A    between atoms: C_14  and  C_16
REMARK                            x       y       z     vdW  Elec       q    Type
REMARK                         _______ _______ _______ _____ _____    ______ ____
ROOT
ATOM      1  C   UNL     1       1.000   9.762  20.083  0.00  0.00    +0.000 A 
ATOM      2  C   UNL     1       1.250  10.442  18.883  0.00  0.00    +0.000 A 
ATOM      3  C   UNL     1       1.892   9.786  17.838  0.00  0.00    +0.000 A 
ATOM      4  C   UNL     1       2.274   8.451  17.984  0.00  0.00    +0.000 A 
ATOM      5  C   UNL     1       2.022   7.753  19.178  0.00  0.00    +0.000 A 
ATOM      6  C   UNL     1       1.383   8.418  20.228  0.00  0.00    +0.000 A 
ENDROOT
BRANCH   1   8
ATOM      7  N   UNL     1      -0.391  11.574  20.942  0.00  0.00    +0.000 N 
ATOM      8  C   UNL     1       0.283  10.407  21.213  0.00  0.00    +0.000 C 
ATOM      9  O   UNL     1       0.325   9.903  22.330  0.00  0.00    +0.000 OA
ATOM     10  H   UNL     1      -0.310  12.046  20.051  0.00  0.00    +0.000 HD
BRANCH   7  12
ATOM     11  C   UNL     1      -0.391  13.621  22.269  0.00  0.00    +0.000 C 
ATOM     12  C   UNL     1      -1.096  12.296  21.994  0.00  0.00    +0.000 C 
BRANCH  12  13
ATOM     13  C   UNL     1      -2.555  12.551  21.553  0.00  0.00    +0.000 C 
ATOM     14  O   UNL     1      -2.844  12.721  20.368  0.00  0.00    +0.000 OA
ATOM     15  N   UNL     1      -3.489  12.671  22.565  0.00  0.00    +0.000 N 
ATOM     16  C   UNL     1      -4.853  13.077  22.306  0.00  0.00    +0.000 C 
ATOM     17  C   UNL     1      -5.359  13.472  23.683  0.00  0.00    +0.000 C 
ATOM     18  C   UNL     1      -4.672  12.474  24.610  0.00  0.00    +0.000 C 
ATOM     19  C   UNL     1      -3.359  12.136  23.910  0.00  0.00    +0.000 C 
ENDBRANCH  12  13
ENDBRANCH   7  12
ENDBRANCH   1   8
BRANCH   5  20
ATOM     20  C   UNL     1       2.450   6.327  19.239  0.00  0.00    +0.000 C 
ATOM     21  O   UNL     1       2.575   5.780  20.335  0.00  0.00    +0.000 OA
ATOM     22  N   UNL     1       2.705   5.658  18.063  0.00  0.00    +0.000 N 
ATOM     23  H   UNL     1       2.648   6.097  17.150  0.00  0.00    +0.000 HD
BRANCH  22  24
ATOM     24  C   UNL     1       3.171   4.274  18.076  0.00  0.00    +0.000 C 
ATOM     25  C   UNL     1       2.118   3.352  17.480  0.00  0.00    +0.000 C 
BRANCH  24  26
ATOM     26  C   UNL     1       4.491   4.213  17.276  0.00  0.00    +0.000 C 
ATOM     27  O   UNL     1       4.459   3.979  16.059  0.00  0.00    +0.000 OA
ATOM     28  N   UNL     1       5.683   4.418  17.932  0.00  0.00    +0.000 N 
ATOM     29  C   UNL     1       5.905   4.723  19.338  0.00  0.00    +0.000 C 
ATOM     30  C   UNL     1       7.070   5.696  19.301  0.00  0.00    +0.000 C 
ATOM     31  C   UNL     1       7.925   5.171  18.150  0.00  0.00    +0.000 C 
ATOM     32  C   UNL     1       6.920   4.550  17.183  0.00  0.00    +0.000 C 
ENDBRANCH  24  26
ENDBRANCH  22  24
ENDBRANCH   5  20
TORSDOF 6
ENDMDL
MODEL 3
REMARK VINA RESULT:      -8.3      1.102     10.917
REMARK  Name = 
REMARK  8 active torsions:
REMARK  status: ('A' for Active; 'I' for Inactive)
REMARK    1  A    between atoms: C_1  and  C_2
REMARK    2  A    between atoms: C_2  and  N_3
REMARK    3  A    between atoms: C_2  and  C_24
REMARK    4  A    between atoms: C_4  and  C_6
REMARK    5  A    between atoms: C_10  and  C_11
REMARK    6  A    between atoms: N_13  and  C_14
REMARK    7  A    between atoms: C_14  and  C_15
REMARK    8  A    between atoms: C_14  and  C_16
REMARK                            x       y       z     vdW  Elec       q    Type
REMARK                         _______ _______ _______ _____ _____    ______ ____
ROOT
ATOM      1  C   UNL     1       1.768   7.939  19.546  0.00  0.00    +0.000 A 
ATOM      2  C   UNL     1       1.955   8.655  18.356  0.00  0.00    +0.000 A 
ATOM      3  C   UNL     1       1.521   9.973  18.267  0.00  0.00    +0.000 A 
ATOM      4  C   UNL     1       0.909  10.581  19.366  0.00  0.00    +0.000 A 
ATOM      5  C   UNL     1       0.724   9.878  20.569  0.00  0.00    +0.000 A 
ATOM      6  C   UNL     1       1.156   8.552  20.653  0.00  0.00    +0.000 A 
ENDROOT
BRANCH   1   8
ATOM      7  N   UNL     1       2.766   5.929  18.586  0.00  0.00    +0.000 N 
ATOM      8  C   UNL     1       2.251   6.542  19.703  0.00  0.00    +0.000 C 
ATOM      9  O   UNL     1       2.163   5.985  20.792  0.00  0.00    +0.000 OA
ATOM     10  H   UNL     1       2.713   6.352  17.669  0.00  0.00    +0.000 HD
BRANCH   7  12
ATOM     11  C   UNL     1       2.068   3.602  18.367  0.00  0.00    +0.000 C 
ATOM     12  C   UNL     1       3.234   4.550  18.636  0.00  0.00    +0.000 C 
BRANCH  12  13
ATOM     13  C   UNL     1       4.340   4.343  17.577  0.00  0.00    +0.000 C 
ATOM     14  O   UNL     1       4.096   3.810  16.494  0.00  0.00    +0.000 OA
ATOM     15  N   UNL     1       5.621   4.700  17.951  0.00  0.00    +0.000 N 
ATOM     16  C   UNL     1       6.773   4.405  17.126  0.00  0.00    +0.000 C 
ATOM     17  C   UNL     1       7.936   4.580  18.088  0.00  0.00    +0.000 C 
ATOM     18  C   UNL     1       7.491   5.743  18.970  0.00  0.00    +0.000 C 
ATOM     19  C   UNL     1       5.968   5.648  18.997  0.00  0.00    +0.000 C 
ENDBRANCH  12  13
ENDBRANCH   7  12
ENDBRANCH   1   8
BRANCH   5  20
ATOM     20  C   UNL     1       0.077  10.610  21.695  0.00  0.00    +0.000 C 
ATOM     21  O   UNL     1       0.350  10.299  22.854  0.00  0.00    +0.000 OA
ATOM     22  N   UNL     1      -0.818  11.616  21.407  0.00  0.00    +0.000 N 
ATOM     23  H   UNL     1      -1.089  11.865  20.462  0.00  0.00    +0.000 HD
BRANCH  22  24
ATOM     24  C   UNL     1      -1.510  12.330  22.477  0.00  0.00    +0.000 C 
ATOM     25  C   UNL     1      -0.758  13.601  22.841  0.00  0.00    +0.000 C 
BRANCH  24  26
ATOM     26  C   UNL     1      -2.941  12.642  21.987  0.00  0.00    +0.000 C 
ATOM     27  O   UNL     1      -3.179  12.673  20.770  0.00  0.00    +0.000 OA
ATOM     28  N   UNL     1      -3.929  12.884  22.913  0.00  0.00    +0.000 N 
ATOM     29  C   UNL     1      -3.836  12.868  24.366  0.00  0.00    +0.000 C 
ATOM     30  C   UNL     1      -5.166  12.272  24.791  0.00  0.00    +0.000 C 
ATOM     31  C   UNL     1      -6.145  12.839  23.766  0.00  0.00    +0.000 C 
ATOM     32  C   UNL     1      -5.316  12.998  22.495  0.00  0.00    +0.000 C 
ENDBRANCH  24  26
ENDBRANCH  22  24
ENDBRANCH   5  20
TORSDOF 6
ENDMDL
MODEL 4
REMARK VINA RESULT:      -8.2      0.463     11.000
REMARK  Name = 
REMARK  8 active torsions:
REMARK  status: ('A' for Active; 'I' for Inactive)
REMARK    1  A    between atoms: C_1  and  C_2
REMARK    2  A    between atoms: C_2  and  N_3
REMARK    3  A    between atoms: C_2  and  C_24
REMARK    4  A    between atoms: C_4  and  C_6
REMARK    5  A    between atoms: C_10  and  C_11
REMARK    6  A    between atoms: N_13  and  C_14
REMARK    7  A    between atoms: C_14  and  C_15
REMARK    8  A    between atoms: C_14  and  C_16
REMARK                            x       y       z     vdW  Elec       q    Type
REMARK                         _______ _______ _______ _____ _____    ______ ____
ROOT
ATOM      1  C   UNL     1       2.017   7.634  19.382  0.00  0.00    +0.000 A 
ATOM      2  C   UNL     1       2.117   8.223  18.114  0.00  0.00    +0.000 A 
ATOM      3  C   UNL     1       1.649   9.518  17.915  0.00  0.00    +0.000 A 
ATOM      4  C   UNL     1       1.091  10.228  18.980  0.00  0.00    +0.000 A 
ATOM      5  C   UNL     1       0.992   9.653  20.259  0.00  0.00    +0.000 A 
ATOM      6  C   UNL     1       1.458   8.350  20.454  0.00  0.00    +0.000 A 
ENDROOT
BRANCH   1   8
ATOM      7  N   UNL     1       3.479   5.773  18.781  0.00  0.00    +0.000 N 
ATOM      8  C   UNL     1       2.540   6.268  19.654  0.00  0.00    +0.000 C 
ATOM      9  O   UNL     1       2.116   5.633  20.613  0.00  0.00    +0.000 OA
ATOM     10  H   UNL     1       3.722   6.253  17.925  0.00  0.00    +0.000 HD
BRANCH   7  12
ATOM     11  C   UNL     1       3.267   3.455  18.054  0.00  0.00    +0.000 C 
ATOM     12  C   UNL     1       4.025   4.432  18.948  0.00  0.00    +0.000 C 
BRANCH  12  13
ATOM     13  C   UNL     1       5.525   4.437  18.578  0.00  0.00    +0.000 C 
ATOM     14  O   UNL     1       6.397   4.506  19.445  0.00  0.00    +0.000 OA
ATOM     15  N   UNL     1       5.823   4.456  17.229  0.00  0.00    +0.000 N 
ATOM     16  C   UNL     1       7.176   4.631  16.744  0.00  0.00    +0.000 C 
ATOM     17  C   UNL     1       6.969   5.005  15.285  0.00  0.00    +0.000 C 
ATOM     18  C   UNL     1       5.760   4.170  14.876  0.00  0.00    +0.000 C 
ATOM     19  C   UNL     1       4.948   4.009  16.158  0.00  0.00    +0.000 C 
ENDBRANCH  12  13
ENDBRANCH   7  12
ENDBRANCH   1   8
BRANCH   5  20
ATOM     20  C   UNL     1       0.398  10.489  21.340  0.00  0.00    +0.000 C 
ATOM     21  O   UNL     1       0.645  10.222  22.516  0.00  0.00    +0.000 OA
ATOM     22  N   UNL     1      -0.423  11.539  20.993  0.00  0.00    +0.000 N 
ATOM     23  H   UNL     1      -0.673  11.756  20.034  0.00  0.00    +0.000 HD
BRANCH  22  24
ATOM     24  C   UNL     1      -1.064  12.357  22.019  0.00  0.00    +0.000 C 
ATOM     25  C   UNL     1      -0.327  13.678  22.183  0.00  0.00    +0.000 C 
BRANCH  24  26
ATOM     26  C   UNL     1      -2.533  12.579  21.595  0.00  0.00    +0.000 C 
ATOM     27  O   UNL     1      -2.849  12.467  20.402  0.00  0.00    +0.000 OA
ATOM     28  N   UNL     1      -3.466  12.902  22.554  0.00  0.00    +0.000 N 
ATOM     29  C   UNL     1      -3.278  13.053  23.989  0.00  0.00    +0.000 C 
ATOM     30  C   UNL     1      -4.559  12.478  24.567  0.00  0.00    +0.000 C 
ATOM     31  C   UNL     1      -5.619  12.903  23.555  0.00  0.00    +0.000 C 
ATOM     32  C   UNL     1      -4.879  12.936  22.221  0.00  0.00    +0.000 C 
ENDBRANCH  24  26
ENDBRANCH  22  24
ENDBRANCH   5  20
TORSDOF 6
ENDMDL
MODEL 5
REMARK VINA RESULT:      -8.1      0.886     10.703
REMARK  Name = 
REMARK  8 active torsions:
REMARK  status: ('A' for Active; 'I' for Inactive)
REMARK    1  A    between atoms: C_1  and  C_2
REMARK    2  A    between atoms: C_2  and  N_3
REMARK    3  A    between atoms: C_2  and  C_24
REMARK    4  A    between atoms: C_4  and  C_6
REMARK    5  A    between atoms: C_10  and  C_11
REMARK    6  A    between atoms: N_13  and  C_14
REMARK    7  A    between atoms: C_14  and  C_15
REMARK    8  A    between atoms: C_14  and  C_16
REMARK                            x       y       z     vdW  Elec       q    Type
REMARK                         _______ _______ _______ _____ _____    ______ ____
ROOT
ATOM      1  C   UNL     1       1.936   7.624  19.388  0.00  0.00    +0.000 A 
ATOM      2  C   UNL     1       2.156   8.273  18.166  0.00  0.00    +0.000 A 
ATOM      3  C   UNL     1       1.789   9.607  18.016  0.00  0.00    +0.000 A 
ATOM      4  C   UNL     1       1.212  10.295  19.086  0.00  0.00    +0.000 A 
ATOM      5  C   UNL     1       0.994   9.659  20.320  0.00  0.00    +0.000 A 
ATOM      6  C   UNL     1       1.359   8.318  20.465  0.00  0.00    +0.000 A 
ENDROOT
BRANCH   1   8
ATOM      7  N   UNL     1       2.984   5.576  18.570  0.00  0.00    +0.000 N 
ATOM      8  C   UNL     1       2.349   6.213  19.610  0.00  0.00    +0.000 C 
ATOM      9  O   UNL     1       2.101   5.666  20.679  0.00  0.00    +0.000 OA
ATOM     10  H   UNL     1       3.064   5.996  17.653  0.00  0.00    +0.000 HD
BRANCH   7  12
ATOM     11  C   UNL     1       3.058   3.442  17.392  0.00  0.00    +0.000 C 
ATOM     12  C   UNL     1       3.396   4.183  18.683  0.00  0.00    +0.000 C 
BRANCH  12  13
ATOM     13  C   UNL     1       4.916   4.116  18.951  0.00  0.00    +0.000 C 
ATOM     14  O   UNL     1       5.394   3.270  19.708  0.00  0.00    +0.000 OA
ATOM     15  N   UNL     1       5.685   5.108  18.374  0.00  0.00    +0.000 N 
ATOM     16  C   UNL     1       7.091   5.264  18.677  0.00  0.00    +0.000 C 
ATOM     17  C   UNL     1       7.394   6.667  18.179  0.00  0.00    +0.000 C 
ATOM     18  C   UNL     1       6.524   6.794  16.933  0.00  0.00    +0.000 C 
ATOM     19  C   UNL     1       5.321   5.895  17.207  0.00  0.00    +0.000 C 
ENDBRANCH  12  13
ENDBRANCH   7  12
ENDBRANCH   1   8
BRANCH   5  20
ATOM     20  C   UNL     1       0.388  10.474  21.411  0.00  0.00    +0.000 C 
ATOM     21  O   UNL     1       0.615  10.178  22.584  0.00  0.00    +0.000 OA
ATOM     22  N   UNL     1      -0.420  11.537  21.076  0.00  0.00    +0.000 N 
ATOM     23  H   UNL     1      -0.654  11.777  20.119  0.00  0.00    +0.000 HD
BRANCH  22  24
ATOM     24  C   UNL     1      -1.072  12.335  22.110  0.00  0.00    +0.000 C 
ATOM     25  C   UNL     1      -0.329  13.647  22.317  0.00  0.00    +0.000 C 
BRANCH  24  26
ATOM     26  C   UNL     1      -2.532  12.579  21.669  0.00  0.00    +0.000 C 
ATOM     27  O   UNL     1      -2.830  12.498  20.468  0.00  0.00    +0.000 OA
ATOM     28  N   UNL     1      -3.478  12.884  22.620  0.00  0.00    +0.000 N 
ATOM     29  C   UNL     1      -3.313  12.998  24.062  0.00  0.00    +0.000 C 
ATOM     30  C   UNL     1      -4.607  12.418  24.605  0.00  0.00    +0.000 C 
ATOM     31  C   UNL     1      -5.648  12.876  23.586  0.00  0.00    +0.000 C 
ATOM     32  C   UNL     1      -4.886  12.937  22.266  0.00  0.00    +0.000 C 
ENDBRANCH  24  26
ENDBRANCH  22  24
ENDBRANCH   5  20
TORSDOF 6
ENDMDL
MODEL 6
REMARK VINA RESULT:      -8.1      1.139      1.411
REMARK  Name = 
REMARK  8 active torsions:
REMARK  status: ('A' for Active; 'I' for Inactive)
REMARK    1  A    between atoms: C_1  and  C_2
REMARK    2  A    between atoms: C_2  and  N_3
REMARK    3  A    between atoms: C_2  and  C_24
REMARK    4  A    between atoms: C_4  and  C_6
REMARK    5  A    between atoms: C_10  and  C_11
REMARK    6  A    between atoms: N_13  and  C_14
REMARK    7  A    between atoms: C_14  and  C_15
REMARK    8  A    between atoms: C_14  and  C_16
REMARK                            x       y       z     vdW  Elec       q    Type
REMARK                         _______ _______ _______ _____ _____    ______ ____
ROOT
ATOM      1  C   UNL     1       0.847   9.646  19.965  0.00  0.00    +0.000 A 
ATOM      2  C   UNL     1       1.034  10.294  18.737  0.00  0.00    +0.000 A 
ATOM      3  C   UNL     1       1.764   9.668  17.731  0.00  0.00    +0.000 A 
ATOM      4  C   UNL     1       2.299   8.397  17.946  0.00  0.00    +0.000 A 
ATOM      5  C   UNL     1       2.111   7.732  19.171  0.00  0.00    +0.000 A 
ATOM      6  C   UNL     1       1.382   8.365  20.180  0.00  0.00    +0.000 A 
ENDROOT
BRANCH   1   8
ATOM      7  N   UNL     1      -0.273  11.589  20.933  0.00  0.00    +0.000 N 
ATOM      8  C   UNL     1       0.040  10.256  21.056  0.00  0.00    +0.000 C 
ATOM      9  O   UNL     1      -0.299   9.574  22.017  0.00  0.00    +0.000 OA
ATOM     10  H   UNL     1       0.122  12.167  20.203  0.00  0.00    +0.000 HD
BRANCH   7  12
ATOM     11  C   UNL     1      -0.413  13.651  22.227  0.00  0.00    +0.000 C 
ATOM     12  C   UNL     1      -1.031  12.280  21.967  0.00  0.00    +0.000 C 
BRANCH  12  13
ATOM     13  C   UNL     1      -2.500  12.437  21.510  0.00  0.00    +0.000 C 
ATOM     14  O   UNL     1      -2.793  12.501  20.316  0.00  0.00    +0.000 OA
ATOM     15  N   UNL     1      -3.439  12.595  22.510  0.00  0.00    +0.000 N 
ATOM     16  C   UNL     1      -4.820  12.920  22.223  0.00  0.00    +0.000 C 
ATOM     17  C   UNL     1      -5.344  13.399  23.566  0.00  0.00    +0.000 C 
ATOM     18  C   UNL     1      -4.616  12.507  24.567  0.00  0.00    +0.000 C 
ATOM     19  C   UNL     1      -3.288  12.172  23.893  0.00  0.00    +0.000 C 
ENDBRANCH  12  13
ENDBRANCH   7  12
ENDBRANCH   1   8
BRANCH   5  20
ATOM     20  C   UNL     1       2.703   6.371  19.306  0.00  0.00    +0.000 C 
ATOM     21  O   UNL     1       3.821   6.245  19.806  0.00  0.00    +0.000 OA
ATOM     22  N   UNL     1       1.984   5.285  18.860  0.00  0.00    +0.000 N 
ATOM     23  H   UNL     1       1.078   5.365  18.410  0.00  0.00    +0.000 HD
BRANCH  22  24
ATOM     24  C   UNL     1       2.542   3.938  18.931  0.00  0.00    +0.000 C 
ATOM     25  C   UNL     1       1.462   2.933  19.303  0.00  0.00    +0.000 C 
BRANCH  24  26
ATOM     26  C   UNL     1       3.165   3.612  17.555  0.00  0.00    +0.000 C 
ATOM     27  O   UNL     1       2.432   3.257  16.620  0.00  0.00    +0.000 OA
ATOM     28  N   UNL     1       4.527   3.721  17.393  0.00  0.00    +0.000 N 
ATOM     29  C   UNL     1       5.527   4.139  18.364  0.00  0.00    +0.000 C 
ATOM     30  C   UNL     1       6.512   4.934  17.525  0.00  0.00    +0.000 C 
ATOM     31  C   UNL     1       6.529   4.179  16.199  0.00  0.00    +0.000 C 
ATOM     32  C   UNL     1       5.121   3.602  16.073  0.00  0.00    +0.000 C 
ENDBRANCH  24  26
ENDBRANCH  22  24
ENDBRANCH   5  20
TORSDOF 6
ENDMDL
MODEL 7
REMARK VINA RESULT:      -7.8      2.418     10.211
REMARK  Name = 
REMARK  8 active torsions:
REMARK  status: ('A' for Active; 'I' for Inactive)
REMARK    1  A    between atoms: C_1  and  C_2
REMARK    2  A    between atoms: C_2  and  N_3
REMARK    3  A    between atoms: C_2  and  C_24
REMARK    4  A    between atoms: C_4  and  C_6
REMARK    5  A    between atoms: C_10  and  C_11
REMARK    6  A    between atoms: N_13  and  C_14
REMARK    7  A    between atoms: C_14  and  C_15
REMARK    8  A    between atoms: C_14  and  C_16
REMARK                            x       y       z     vdW  Elec       q    Type
REMARK                         _______ _______ _______ _____ _____    ______ ____
ROOT
ATOM      1  C   UNL     1       1.213   8.420  20.718  0.00  0.00    +0.000 A 
ATOM      2  C   UNL     1       1.015   8.719  22.072  0.00  0.00    +0.000 A 
ATOM      3  C   UNL     1       0.207   9.793  22.431  0.00  0.00    +0.000 A 
ATOM      4  C   UNL     1      -0.410  10.562  21.442  0.00  0.00    +0.000 A 
ATOM      5  C   UNL     1      -0.228  10.267  20.080  0.00  0.00    +0.000 A 
ATOM      6  C   UNL     1       0.589   9.191  19.723  0.00  0.00    +0.000 A 
ENDROOT
BRANCH   1   8
ATOM      7  N   UNL     1       1.801   6.058  20.915  0.00  0.00    +0.000 N 
ATOM      8  C   UNL     1       2.034   7.258  20.285  0.00  0.00    +0.000 C 
ATOM      9  O   UNL     1       2.885   7.404  19.415  0.00  0.00    +0.000 OA
ATOM     10  H   UNL     1       1.190   5.983  21.717  0.00  0.00    +0.000 HD
BRANCH   7  12
ATOM     11  C   UNL     1       2.166   3.715  21.486  0.00  0.00    +0.000 C 
ATOM     12  C   UNL     1       2.579   4.873  20.581  0.00  0.00    +0.000 C 
BRANCH  12  13
ATOM     13  C   UNL     1       2.340   4.500  19.100  0.00  0.00    +0.000 C 
ATOM     14  O   UNL     1       1.210   4.256  18.678  0.00  0.00    +0.000 OA
ATOM     15  N   UNL     1       3.467   4.366  18.312  0.00  0.00    +0.000 N 
ATOM     16  C   UNL     1       3.402   3.859  16.958  0.00  0.00    +0.000 C 
ATOM     17  C   UNL     1       4.847   3.497  16.659  0.00  0.00    +0.000 C 
ATOM     18  C   UNL     1       5.639   4.581  17.384  0.00  0.00    +0.000 C 
ATOM     19  C   UNL     1       4.763   4.971  18.571  0.00  0.00    +0.000 C 
ENDBRANCH  12  13
ENDBRANCH   7  12
ENDBRANCH   1   8
BRANCH   5  20
ATOM     20  C   UNL     1      -0.938  11.130  19.093  0.00  0.00    +0.000 C 
ATOM     21  O   UNL     1      -0.429  12.195  18.745  0.00  0.00    +0.000 OA
ATOM     22  N   UNL     1      -2.154  10.714  18.601  0.00  0.00    +0.000 N 
ATOM     23  H   UNL     1      -2.613   9.861  18.900  0.00  0.00    +0.000 HD
BRANCH  22  24
ATOM     24  C   UNL     1      -2.907  11.548  17.668  0.00  0.00    +0.000 C 
ATOM     25  C   UNL     1      -2.761  11.023  16.247  0.00  0.00    +0.000 C 
BRANCH  24  26
ATOM     26  C   UNL     1      -4.385  11.546  18.119  0.00  0.00    +0.000 C 
ATOM     27  O   UNL     1      -5.230  10.937  17.446  0.00  0.00    +0.000 OA
ATOM     28  N   UNL     1      -4.737  12.224  19.263  0.00  0.00    +0.000 N 
ATOM     29  C   UNL     1      -3.883  12.967  20.178  0.00  0.00    +0.000 C 
ATOM     30  C   UNL     1      -4.489  12.665  21.538  0.00  0.00    +0.000 C 
ATOM     31  C   UNL     1      -5.986  12.607  21.247  0.00  0.00    +0.000 C 
ATOM     32  C   UNL     1      -6.074  12.090  19.814  0.00  0.00    +0.000 C 
ENDBRANCH  24  26
ENDBRANCH  22  24
ENDBRANCH   5  20
TORSDOF 6
ENDMDL
MODEL 8
REMARK VINA RESULT:      -7.8      1.927      3.200
REMARK  Name = 
REMARK  8 active torsions:
REMARK  status: ('A' for Active; 'I' for Inactive)
REMARK    1  A    between atoms: C_1  and  C_2
REMARK    2  A    between atoms: C_2  and  N_3
REMARK    3  A    between atoms: C_2  and  C_24
REMARK    4  A    between atoms: C_4  and  C_6
REMARK    5  A    between atoms: C_10  and  C_11
REMARK    6  A    between atoms: N_13  and  C_14
REMARK    7  A    between atoms: C_14  and  C_15
REMARK    8  A    between atoms: C_14  and  C_16
REMARK                            x       y       z     vdW  Elec       q    Type
REMARK                         _______ _______ _______ _____ _____    ______ ____
ROOT
ATOM      1  C   UNL     1       1.163   8.861  19.719  0.00  0.00    +0.000 A 
ATOM      2  C   UNL     1       1.291   9.755  18.647  0.00  0.00    +0.000 A 
ATOM      3  C   UNL     1       2.150   9.452  17.595  0.00  0.00    +0.000 A 
ATOM      4  C   UNL     1       2.872   8.257  17.607  0.00  0.00    +0.000 A 
ATOM      5  C   UNL     1       2.746   7.347  18.671  0.00  0.00    +0.000 A 
ATOM      6  C   UNL     1       1.887   7.657  19.729  0.00  0.00    +0.000 A 
ENDROOT
BRANCH   1   8
ATOM      7  N   UNL     1       0.017  10.433  21.194  0.00  0.00    +0.000 N 
ATOM      8  C   UNL     1       0.228   9.120  20.846  0.00  0.00    +0.000 C 
ATOM      9  O   UNL     1      -0.301   8.179  21.428  0.00  0.00    +0.000 OA
ATOM     10  H   UNL     1       0.557  11.188  20.793  0.00  0.00    +0.000 HD
BRANCH   7  12
ATOM     11  C   UNL     1      -0.403  10.051  23.566  0.00  0.00    +0.000 C 
ATOM     12  C   UNL     1      -0.858  10.783  22.306  0.00  0.00    +0.000 C 
BRANCH  12  13
ATOM     13  C   UNL     1      -0.814  12.311  22.535  0.00  0.00    +0.000 C 
ATOM     14  O   UNL     1       0.158  12.981  22.184  0.00  0.00    +0.000 OA
ATOM     15  N   UNL     1      -1.874  12.857  23.232  0.00  0.00    +0.000 N 
ATOM     16  C   UNL     1      -1.880  14.239  23.661  0.00  0.00    +0.000 C 
ATOM     17  C   UNL     1      -2.982  14.266  24.708  0.00  0.00    +0.000 C 
ATOM     18  C   UNL     1      -4.014  13.287  24.157  0.00  0.00    +0.000 C 
ATOM     19  C   UNL     1      -3.200  12.274  23.357  0.00  0.00    +0.000 C 
ENDBRANCH  12  13
ENDBRANCH   7  12
ENDBRANCH   1   8
BRANCH   5  20
ATOM     20  C   UNL     1       3.542   6.090  18.593  0.00  0.00    +0.000 C 
ATOM     21  O   UNL     1       4.558   5.973  19.278  0.00  0.00    +0.000 OA
ATOM     22  N   UNL     1       3.121   5.089  17.745  0.00  0.00    +0.000 N 
ATOM     23  H   UNL     1       2.311   5.175  17.142  0.00  0.00    +0.000 HD
BRANCH  22  24
ATOM     24  C   UNL     1       3.894   3.858  17.601  0.00  0.00    +0.000 C 
ATOM     25  C   UNL     1       5.254   4.152  16.984  0.00  0.00    +0.000 C 
BRANCH  24  26
ATOM     26  C   UNL     1       4.037   3.224  19.002  0.00  0.00    +0.000 C 
ATOM     27  O   UNL     1       5.167   3.025  19.472  0.00  0.00    +0.000 OA
ATOM     28  N   UNL     1       2.903   2.888  19.706  0.00  0.00    +0.000 N 
ATOM     29  C   UNL     1       1.510   3.068  19.322  0.00  0.00    +0.000 C 
ATOM     30  C   UNL     1       0.836   3.433  20.633  0.00  0.00    +0.000 C 
ATOM     31  C   UNL     1       1.585   2.586  21.658  0.00  0.00    +0.000 C 
ATOM     32  C   UNL     1       2.997   2.465  21.092  0.00  0.00    +0.000 C 
ENDBRANCH  24  26
ENDBRANCH  22  24
ENDBRANCH   5  20
TORSDOF 6
ENDMDL
MODEL 9
REMARK VINA RESULT:      -7.8      2.384     10.346
REMARK  Name = 
REMARK  8 active torsions:
REMARK  status: ('A' for Active; 'I' for Inactive)
REMARK    1  A    between atoms: C_1  and  C_2
REMARK    2  A    between atoms: C_2  and  N_3
REMARK    3  A    between atoms: C_2  and  C_24
REMARK    4  A    between atoms: C_4  and  C_6
REMARK    5  A    between atoms: C_10  and  C_11
REMARK    6  A    between atoms: N_13  and  C_14
REMARK    7  A    between atoms: C_14  and  C_15
REMARK    8  A    between atoms: C_14  and  C_16
REMARK                            x       y       z     vdW  Elec       q    Type
REMARK                         _______ _______ _______ _____ _____    ______ ____
ROOT
ATOM      1  C   UNL     1       1.189   8.353  20.751  0.00  0.00    +0.000 A 
ATOM      2  C   UNL     1       1.142   8.749  22.094  0.00  0.00    +0.000 A 
ATOM      3  C   UNL     1       0.468   9.914  22.448  0.00  0.00    +0.000 A 
ATOM      4  C   UNL     1      -0.164  10.678  21.465  0.00  0.00    +0.000 A 
ATOM      5  C   UNL     1      -0.133  10.288  20.115  0.00  0.00    +0.000 A 
ATOM      6  C   UNL     1       0.549   9.120  19.763  0.00  0.00    +0.000 A 
ENDROOT
BRANCH   1   8
ATOM      7  N   UNL     1       2.503   7.107  19.114  0.00  0.00    +0.000 N 
ATOM      8  C   UNL     1       1.861   7.095  20.329  0.00  0.00    +0.000 C 
ATOM      9  O   UNL     1       1.808   6.105  21.050  0.00  0.00    +0.000 OA
ATOM     10  H   UNL     1       2.428   7.886  18.474  0.00  0.00    +0.000 HD
BRANCH   7  12
ATOM     11  C   UNL     1       2.141   5.027  17.891  0.00  0.00    +0.000 C 
ATOM     12  C   UNL     1       3.162   5.912  18.603  0.00  0.00    +0.000 C 
BRANCH  12  13
ATOM     13  C   UNL     1       4.284   6.321  17.622  0.00  0.00    +0.000 C 
ATOM     14  O   UNL     1       4.041   6.991  16.618  0.00  0.00    +0.000 OA
ATOM     15  N   UNL     1       5.543   5.818  17.887  0.00  0.00    +0.000 N 
ATOM     16  C   UNL     1       6.645   5.981  16.963  0.00  0.00    +0.000 C 
ATOM     17  C   UNL     1       7.649   4.947  17.443  0.00  0.00    +0.000 C 
ATOM     18  C   UNL     1       7.480   4.970  18.959  0.00  0.00    +0.000 C 
ATOM     19  C   UNL     1       6.022   5.360  19.180  0.00  0.00    +0.000 C 
ENDBRANCH  12  13
ENDBRANCH   7  12
ENDBRANCH   1   8
BRANCH   5  20
ATOM     20  C   UNL     1      -0.849  11.155  19.137  0.00  0.00    +0.000 C 
ATOM     21  O   UNL     1      -0.331  12.210  18.772  0.00  0.00    +0.000 OA
ATOM     22  N   UNL     1      -2.082  10.754  18.672  0.00  0.00    +0.000 N 
ATOM     23  H   UNL     1      -2.547   9.910  18.986  0.00  0.00    +0.000 HD
BRANCH  22  24
ATOM     24  C   UNL     1      -2.840  11.593  17.748  0.00  0.00    +0.000 C 
ATOM     25  C   UNL     1      -2.690  11.085  16.322  0.00  0.00    +0.000 C 
BRANCH  24  26
ATOM     26  C   UNL     1      -4.317  11.576  18.199  0.00  0.00    +0.000 C 
ATOM     27  O   UNL     1      -5.158  10.965  17.523  0.00  0.00    +0.000 OA
ATOM     28  N   UNL     1      -4.675  12.244  19.348  0.00  0.00    +0.000 N 
ATOM     29  C   UNL     1      -3.827  12.988  20.268  0.00  0.00    +0.000 C 
ATOM     30  C   UNL     1      -4.430  12.673  21.625  0.00  0.00    +0.000 C 
ATOM     31  C   UNL     1      -5.927  12.604  21.334  0.00  0.00    +0.000 C 
ATOM     32  C   UNL     1      -6.011  12.096  19.898  0.00  0.00    +0.000 C 
ENDBRANCH  24  26
ENDBRANCH  22  24
ENDBRANCH   5  20
TORSDOF 6
ENDMDL
