MODEL 1
REMARK VINA RESULT:      -7.7      0.000      0.000
REMARK  Name = 
REMARK  3 active torsions:
REMARK  status: ('A' for Active; 'I' for Inactive)
REMARK    1  A    between atoms: C_2  and  C_3
REMARK    2  A    between atoms: C_12  and  N_13
REMARK    3  A    between atoms: N_13  and  C_14
REMARK                            x       y       z     vdW  Elec       q    Type
REMARK                         _______ _______ _______ _____ _____    ______ ____
ROOT
ATOM      1  O   UNL     1       5.023   2.644  19.812  0.00  0.00    +0.000 OA
ATOM      2  C   UNL     1       4.211   3.556  19.647  0.00  0.00    +0.000 C 
ATOM      3  N   UNL     1       4.599   4.798  19.136  0.00  0.00    +0.000 N 
ATOM      4  C   UNL     1       3.710   5.908  18.780  0.00  0.00    +0.000 C 
ATOM      5  C   UNL     1       3.909   6.364  17.343  0.00  0.00    +0.000 C 
ATOM      6  C   UNL     1       5.377   6.665  17.064  0.00  0.00    +0.000 C 
ATOM      7  C   UNL     1       6.279   5.464  17.408  0.00  0.00    +0.000 C 
ATOM      8  C   UNL     1       6.029   5.043  18.875  0.00  0.00    +0.000 C 
ENDROOT
BRANCH   2   9
ATOM      9  C   UNL     1       2.805   3.315  19.931  0.00  0.00    +0.000 A 
ATOM     10  C   UNL     1       1.869   2.711  19.056  0.00  0.00    +0.000 A 
ATOM     11  N   UNL     1       0.629   2.690  19.550  0.00  0.00    +0.000 NA
ATOM     12  N   UNL     1       0.772   3.229  20.770  0.00  0.00    +0.000 N 
ATOM     13  C   UNL     1       2.062   3.541  21.075  0.00  0.00    +0.000 A 
ATOM     14  H   UNL     1      -0.059   3.354  21.343  0.00  0.00    +0.000 HD
ENDBRANCH   2   9
BRANCH   7  15
ATOM     15  N   UNL     1       5.945   4.355  16.498  0.00  0.00    +0.000 N 
ATOM     16  H   UNL     1       6.126   3.456  16.947  0.00  0.00    +0.000 HD
BRANCH  15  17
ATOM     17  C   UNL     1       6.371   4.338  15.167  0.00  0.00    +0.000 A 
ATOM     18  C   UNL     1       7.512   5.007  14.711  0.00  0.00    +0.000 A 
ATOM     19  C   UNL     1       7.820   5.077  13.346  0.00  0.00    +0.000 A 
ATOM     20  C   UNL     1       6.980   4.485  12.407  0.00  0.00    +0.000 A 
ATOM     21  C   UNL     1       5.839   3.822  12.841  0.00  0.00    +0.000 A 
ATOM     22 BR   UNL     1       4.693   3.007  11.576  0.00  0.00    +0.000 Br
ATOM     23  C   UNL     1       5.528   3.762  14.202  0.00  0.00    +0.000 A 
ENDBRANCH  15  17
ENDBRANCH   7  15
TORSDOF 3
ENDMDL
MODEL 2
REMARK VINA RESULT:      -7.7      3.903      7.051
REMARK  Name = 
REMARK  3 active torsions:
REMARK  status: ('A' for Active; 'I' for Inactive)
REMARK    1  A    between atoms: C_2  and  C_3
REMARK    2  A    between atoms: C_12  and  N_13
REMARK    3  A    between atoms: N_13  and  C_14
REMARK                            x       y       z     vdW  Elec       q    Type
REMARK                         _______ _______ _______ _____ _____    ______ ____
ROOT
ATOM      1  O   UNL     1       6.466   4.563  19.044  0.00  0.00    +0.000 OA
ATOM      2  C   UNL     1       5.687   4.323  18.120  0.00  0.00    +0.000 C 
ATOM      3  N   UNL     1       4.341   4.027  18.355  0.00  0.00    +0.000 N 
ATOM      4  C   UNL     1       3.299   3.850  17.340  0.00  0.00    +0.000 C 
ATOM      5  C   UNL     1       2.113   4.774  17.569  0.00  0.00    +0.000 C 
ATOM      6  C   UNL     1       1.584   4.640  18.992  0.00  0.00    +0.000 C 
ATOM      7  C   UNL     1       2.694   4.874  20.035  0.00  0.00    +0.000 C 
ATOM      8  C   UNL     1       3.872   3.913  19.749  0.00  0.00    +0.000 C 
ENDROOT
BRANCH   2   9
ATOM      9  C   UNL     1       6.163   4.411  16.749  0.00  0.00    +0.000 A 
ATOM     10  C   UNL     1       7.003   5.422  16.221  0.00  0.00    +0.000 A 
ATOM     11  N   UNL     1       7.215   5.293  14.909  0.00  0.00    +0.000 NA
ATOM     12  N   UNL     1       6.558   4.166  14.597  0.00  0.00    +0.000 N 
ATOM     13  C   UNL     1       5.985   3.559  15.673  0.00  0.00    +0.000 A 
ATOM     14  H   UNL     1       6.545   3.869  13.625  0.00  0.00    +0.000 HD
ENDBRANCH   2   9
BRANCH   7  15
ATOM     15  N   UNL     1       3.143   6.273  19.932  0.00  0.00    +0.000 N 
ATOM     16  H   UNL     1       3.856   6.473  20.635  0.00  0.00    +0.000 HD
BRANCH  15  17
ATOM     17  C   UNL     1       2.238   7.333  19.830  0.00  0.00    +0.000 A 
ATOM     18  C   UNL     1       2.118   8.142  18.694  0.00  0.00    +0.000 A 
ATOM     19  C   UNL     1       1.297   9.277  18.691  0.00  0.00    +0.000 A 
ATOM     20  C   UNL     1       0.589   9.634  19.834  0.00  0.00    +0.000 A 
ATOM     21  C   UNL     1       0.702   8.847  20.973  0.00  0.00    +0.000 A 
ATOM     22 BR   UNL     1      -0.262   9.314  22.533  0.00  0.00    +0.000 Br
ATOM     23  C   UNL     1       1.528   7.719  20.979  0.00  0.00    +0.000 A 
ENDBRANCH  15  17
ENDBRANCH   7  15
TORSDOF 3
ENDMDL
MODEL 3
REMARK VINA RESULT:      -7.0      4.188      7.219
REMARK  Name = 
REMARK  3 active torsions:
REMARK  status: ('A' for Active; 'I' for Inactive)
REMARK    1  A    between atoms: C_2  and  C_3
REMARK    2  A    between atoms: C_12  and  N_13
REMARK    3  A    between atoms: N_13  and  C_14
REMARK                            x       y       z     vdW  Elec       q    Type
REMARK                         _______ _______ _______ _____ _____    ______ ____
ROOT
ATOM      1  O   UNL     1       6.310   6.130  17.774  0.00  0.00    +0.000 OA
ATOM      2  C   UNL     1       5.576   5.240  17.342  0.00  0.00    +0.000 C 
ATOM      3  N   UNL     1       4.488   4.764  18.081  0.00  0.00    +0.000 N 
ATOM      4  C   UNL     1       3.478   3.806  17.624  0.00  0.00    +0.000 C 
ATOM      5  C   UNL     1       2.066   4.353  17.761  0.00  0.00    +0.000 C 
ATOM      6  C   UNL     1       1.810   4.854  19.178  0.00  0.00    +0.000 C 
ATOM      7  C   UNL     1       2.864   5.891  19.612  0.00  0.00    +0.000 C 
ATOM      8  C   UNL     1       4.276   5.282  19.445  0.00  0.00    +0.000 C 
ENDROOT
BRANCH   2   9
ATOM      9  C   UNL     1       5.806   4.715  16.005  0.00  0.00    +0.000 A 
ATOM     10  C   UNL     1       5.280   5.242  14.800  0.00  0.00    +0.000 A 
ATOM     11  N   UNL     1       5.594   4.510  13.729  0.00  0.00    +0.000 NA
ATOM     12  N   UNL     1       6.372   3.540  14.232  0.00  0.00    +0.000 N 
ATOM     13  C   UNL     1       6.596   3.666  15.569  0.00  0.00    +0.000 A 
ATOM     14  H   UNL     1       6.717   2.822  13.601  0.00  0.00    +0.000 HD
ENDBRANCH   2   9
BRANCH   7  15
ATOM     15  N   UNL     1       2.722   7.085  18.761  0.00  0.00    +0.000 N 
ATOM     16  H   UNL     1       3.638   7.438  18.482  0.00  0.00    +0.000 HD
BRANCH  15  17
ATOM     17  C   UNL     1       1.869   8.138  19.102  0.00  0.00    +0.000 A 
ATOM     18  C   UNL     1       1.529   9.175  18.226  0.00  0.00    +0.000 A 
ATOM     19  C   UNL     1       0.785  10.281  18.658  0.00  0.00    +0.000 A 
ATOM     20  C   UNL     1       0.377  10.375  19.985  0.00  0.00    +0.000 A 
ATOM     21  C   UNL     1       0.711   9.359  20.871  0.00  0.00    +0.000 A 
ATOM     22 BR   UNL     1       0.156   9.471  22.676  0.00  0.00    +0.000 Br
ATOM     23  C   UNL     1       1.462   8.261  20.441  0.00  0.00    +0.000 A 
ENDBRANCH  15  17
ENDBRANCH   7  15
TORSDOF 3
ENDMDL
MODEL 4
REMARK VINA RESULT:      -7.0      3.957      7.365
REMARK  Name = 
REMARK  3 active torsions:
REMARK  status: ('A' for Active; 'I' for Inactive)
REMARK    1  A    between atoms: C_2  and  C_3
REMARK    2  A    between atoms: C_12  and  N_13
REMARK    3  A    between atoms: N_13  and  C_14
REMARK                            x       y       z     vdW  Elec       q    Type
REMARK                         _______ _______ _______ _____ _____    ______ ____
ROOT
ATOM      1  O   UNL     1       6.217   5.642  19.530  0.00  0.00    +0.000 OA
ATOM      2  C   UNL     1       5.557   5.167  18.604  0.00  0.00    +0.000 C 
ATOM      3  N   UNL     1       4.265   4.670  18.806  0.00  0.00    +0.000 N 
ATOM      4  C   UNL     1       3.342   4.199  17.770  0.00  0.00    +0.000 C 
ATOM      5  C   UNL     1       2.006   4.922  17.821  0.00  0.00    +0.000 C 
ATOM      6  C   UNL     1       1.406   4.862  19.222  0.00  0.00    +0.000 C 
ATOM      7  C   UNL     1       2.385   5.403  20.282  0.00  0.00    +0.000 C 
ATOM      8  C   UNL     1       3.724   4.636  20.178  0.00  0.00    +0.000 C 
ENDROOT
BRANCH   2   9
ATOM      9  C   UNL     1       6.107   5.179  17.258  0.00  0.00    +0.000 A 
ATOM     10  C   UNL     1       7.238   4.452  16.813  0.00  0.00    +0.000 A 
ATOM     11  N   UNL     1       7.563   4.716  15.545  0.00  0.00    +0.000 NA
ATOM     12  N   UNL     1       6.609   5.572  15.151  0.00  0.00    +0.000 N 
ATOM     13  C   UNL     1       5.672   5.814  16.109  0.00  0.00    +0.000 A 
ATOM     14  H   UNL     1       6.660   5.952  14.210  0.00  0.00    +0.000 HD
ENDBRANCH   2   9
BRANCH   7  15
ATOM     15  N   UNL     1       2.600   6.838  20.028  0.00  0.00    +0.000 N 
ATOM     16  H   UNL     1       3.544   7.113  20.302  0.00  0.00    +0.000 HD
BRANCH  15  17
ATOM     17  C   UNL     1       1.671   7.805  20.420  0.00  0.00    +0.000 A 
ATOM     18  C   UNL     1       0.829   7.665  21.530  0.00  0.00    +0.000 A 
ATOM     19  C   UNL     1      -0.182   8.596  21.800  0.00  0.00    +0.000 A 
ATOM     20  C   UNL     1      -0.379   9.683  20.954  0.00  0.00    +0.000 A 
ATOM     21  C   UNL     1       0.442   9.834  19.843  0.00  0.00    +0.000 A 
ATOM     22 BR   UNL     1       0.191  11.311  18.688  0.00  0.00    +0.000 Br
ATOM     23  C   UNL     1       1.444   8.899  19.569  0.00  0.00    +0.000 A 
ENDBRANCH  15  17
ENDBRANCH   7  15
TORSDOF 3
ENDMDL
MODEL 5
REMARK VINA RESULT:      -6.8      1.213      1.600
REMARK  Name = 
REMARK  3 active torsions:
REMARK  status: ('A' for Active; 'I' for Inactive)
REMARK    1  A    between atoms: C_2  and  C_3
REMARK    2  A    between atoms: C_12  and  N_13
REMARK    3  A    between atoms: N_13  and  C_14
REMARK                            x       y       z     vdW  Elec       q    Type
REMARK                         _______ _______ _______ _____ _____    ______ ____
ROOT
ATOM      1  O   UNL     1       4.783   2.407  19.960  0.00  0.00    +0.000 OA
ATOM      2  C   UNL     1       4.013   3.323  19.667  0.00  0.00    +0.000 C 
ATOM      3  N   UNL     1       4.483   4.544  19.173  0.00  0.00    +0.000 N 
ATOM      4  C   UNL     1       3.666   5.654  18.675  0.00  0.00    +0.000 C 
ATOM      5  C   UNL     1       4.052   6.062  17.262  0.00  0.00    +0.000 C 
ATOM      6  C   UNL     1       5.549   6.335  17.163  0.00  0.00    +0.000 C 
ATOM      7  C   UNL     1       6.379   5.134  17.653  0.00  0.00    +0.000 C 
ATOM      8  C   UNL     1       5.939   4.762  19.089  0.00  0.00    +0.000 C 
ENDROOT
BRANCH   2   9
ATOM      9  C   UNL     1       2.579   3.110  19.777  0.00  0.00    +0.000 A 
ATOM     10  C   UNL     1       1.765   2.418  18.847  0.00  0.00    +0.000 A 
ATOM     11  N   UNL     1       0.469   2.444  19.165  0.00  0.00    +0.000 NA
ATOM     12  N   UNL     1       0.449   3.106  20.332  0.00  0.00    +0.000 N 
ATOM     13  C   UNL     1       1.688   3.451  20.779  0.00  0.00    +0.000 A 
ATOM     14  H   UNL     1      -0.451   3.287  20.769  0.00  0.00    +0.000 HD
ENDBRANCH   2   9
BRANCH   7  15
ATOM     15  N   UNL     1       6.144   4.001  16.741  0.00  0.00    +0.000 N 
ATOM     16  H   UNL     1       6.677   3.183  17.040  0.00  0.00    +0.000 HD
BRANCH  15  17
ATOM     17  C   UNL     1       6.202   4.148  15.353  0.00  0.00    +0.000 A 
ATOM     18  C   UNL     1       5.375   3.449  14.465  0.00  0.00    +0.000 A 
ATOM     19  C   UNL     1       5.565   3.524  13.079  0.00  0.00    +0.000 A 
ATOM     20  C   UNL     1       6.600   4.292  12.554  0.00  0.00    +0.000 A 
ATOM     21  C   UNL     1       7.435   4.986  13.420  0.00  0.00    +0.000 A 
ATOM     22 BR   UNL     1       8.842   6.040  12.719  0.00  0.00    +0.000 Br
ATOM     23  C   UNL     1       7.251   4.903  14.803  0.00  0.00    +0.000 A 
ENDBRANCH  15  17
ENDBRANCH   7  15
TORSDOF 3
ENDMDL
MODEL 6
REMARK VINA RESULT:      -6.7      3.944      7.286
REMARK  Name = 
REMARK  3 active torsions:
REMARK  status: ('A' for Active; 'I' for Inactive)
REMARK    1  A    between atoms: C_2  and  C_3
REMARK    2  A    between atoms: C_12  and  N_13
REMARK    3  A    between atoms: N_13  and  C_14
REMARK                            x       y       z     vdW  Elec       q    Type
REMARK                         _______ _______ _______ _____ _____    ______ ____
ROOT
ATOM      1  O   UNL     1       6.151   6.017  18.585  0.00  0.00    +0.000 OA
ATOM      2  C   UNL     1       5.489   5.249  17.885  0.00  0.00    +0.000 C 
ATOM      3  N   UNL     1       4.325   4.640  18.364  0.00  0.00    +0.000 N 
ATOM      4  C   UNL     1       3.393   3.815  17.590  0.00  0.00    +0.000 C 
ATOM      5  C   UNL     1       1.967   4.337  17.664  0.00  0.00    +0.000 C 
ATOM      6  C   UNL     1       1.530   4.528  19.112  0.00  0.00    +0.000 C 
ATOM      7  C   UNL     1       2.507   5.435  19.885  0.00  0.00    +0.000 C 
ATOM      8  C   UNL     1       3.937   4.858  19.770  0.00  0.00    +0.000 C 
ENDROOT
BRANCH   2   9
ATOM      9  C   UNL     1       5.891   5.019  16.506  0.00  0.00    +0.000 A 
ATOM     10  C   UNL     1       5.541   5.818  15.391  0.00  0.00    +0.000 A 
ATOM     11  N   UNL     1       5.988   5.324  14.233  0.00  0.00    +0.000 NA
ATOM     12  N   UNL     1       6.676   4.235  14.605  0.00  0.00    +0.000 N 
ATOM     13  C   UNL     1       6.718   4.056  15.954  0.00  0.00    +0.000 A 
ATOM     14  H   UNL     1       7.094   3.657  13.880  0.00  0.00    +0.000 HD
ENDBRANCH   2   9
BRANCH   7  15
ATOM     15  N   UNL     1       2.454   6.784  19.297  0.00  0.00    +0.000 N 
ATOM     16  H   UNL     1       3.377   7.065  18.963  0.00  0.00    +0.000 HD
BRANCH  15  17
ATOM     17  C   UNL     1       1.818   7.847  19.944  0.00  0.00    +0.000 A 
ATOM     18  C   UNL     1       1.257   7.751  21.223  0.00  0.00    +0.000 A 
ATOM     19  C   UNL     1       0.508   8.801  21.771  0.00  0.00    +0.000 A 
ATOM     20  C   UNL     1       0.294   9.966  21.040  0.00  0.00    +0.000 A 
ATOM     21  C   UNL     1       0.838  10.076  19.766  0.00  0.00    +0.000 A 
ATOM     22 BR   UNL     1       0.562  11.657  18.764  0.00  0.00    +0.000 Br
ATOM     23  C   UNL     1       1.576   9.024  19.216  0.00  0.00    +0.000 A 
ENDBRANCH  15  17
ENDBRANCH   7  15
TORSDOF 3
ENDMDL
MODEL 7
REMARK VINA RESULT:      -6.7      2.676      4.339
REMARK  Name = 
REMARK  3 active torsions:
REMARK  status: ('A' for Active; 'I' for Inactive)
REMARK    1  A    between atoms: C_2  and  C_3
REMARK    2  A    between atoms: C_12  and  N_13
REMARK    3  A    between atoms: N_13  and  C_14
REMARK                            x       y       z     vdW  Elec       q    Type
REMARK                         _______ _______ _______ _____ _____    ______ ____
ROOT
ATOM      1  O   UNL     1       3.619   6.658  17.383  0.00  0.00    +0.000 OA
ATOM      2  C   UNL     1       2.803   6.349  18.253  0.00  0.00    +0.000 C 
ATOM      3  N   UNL     1       2.487   5.012  18.518  0.00  0.00    +0.000 N 
ATOM      4  C   UNL     1       1.634   4.519  19.604  0.00  0.00    +0.000 C 
ATOM      5  C   UNL     1       2.346   3.491  20.469  0.00  0.00    +0.000 C 
ATOM      6  C   UNL     1       2.931   2.370  19.617  0.00  0.00    +0.000 C 
ATOM      7  C   UNL     1       3.855   2.920  18.513  0.00  0.00    +0.000 C 
ATOM      8  C   UNL     1       3.081   3.961  17.672  0.00  0.00    +0.000 C 
ENDROOT
BRANCH   2   9
ATOM      9  C   UNL     1       2.201   7.392  19.067  0.00  0.00    +0.000 A 
ATOM     10  C   UNL     1       2.009   7.349  20.470  0.00  0.00    +0.000 A 
ATOM     11  N   UNL     1       1.360   8.417  20.942  0.00  0.00    +0.000 NA
ATOM     12  N   UNL     1       1.182   9.179  19.852  0.00  0.00    +0.000 N 
ATOM     13  C   UNL     1       1.738   8.651  18.727  0.00  0.00    +0.000 A 
ATOM     14  H   UNL     1       0.669  10.051  19.952  0.00  0.00    +0.000 HD
ENDBRANCH   2   9
BRANCH   7  15
ATOM     15  N   UNL     1       5.022   3.551  19.154  0.00  0.00    +0.000 N 
ATOM     16  H   UNL     1       4.756   3.976  20.043  0.00  0.00    +0.000 HD
BRANCH  15  17
ATOM     17  C   UNL     1       5.891   4.386  18.447  0.00  0.00    +0.000 A 
ATOM     18  C   UNL     1       6.533   5.494  19.013  0.00  0.00    +0.000 A 
ATOM     19  C   UNL     1       7.282   6.381  18.230  0.00  0.00    +0.000 A 
ATOM     20  C   UNL     1       7.393   6.183  16.857  0.00  0.00    +0.000 A 
ATOM     21  C   UNL     1       6.757   5.093  16.277  0.00  0.00    +0.000 A 
ATOM     22 BR   UNL     1       6.905   4.806  14.412  0.00  0.00    +0.000 Br
ATOM     23  C   UNL     1       6.001   4.214  17.057  0.00  0.00    +0.000 A 
ENDBRANCH  15  17
ENDBRANCH   7  15
TORSDOF 3
ENDMDL
MODEL 8
REMARK VINA RESULT:      -6.6      3.954      7.068
REMARK  Name = 
REMARK  3 active torsions:
REMARK  status: ('A' for Active; 'I' for Inactive)
REMARK    1  A    between atoms: C_2  and  C_3
REMARK    2  A    between atoms: C_12  and  N_13
REMARK    3  A    between atoms: N_13  and  C_14
REMARK                            x       y       z     vdW  Elec       q    Type
REMARK                         _______ _______ _______ _____ _____    ______ ____
ROOT
ATOM      1  O   UNL     1       6.127   6.864  16.363  0.00  0.00    +0.000 OA
ATOM      2  C   UNL     1       5.868   5.660  16.348  0.00  0.00    +0.000 C 
ATOM      3  N   UNL     1       5.349   5.009  17.471  0.00  0.00    +0.000 N 
ATOM      4  C   UNL     1       4.887   3.620  17.536  0.00  0.00    +0.000 C 
ATOM      5  C   UNL     1       3.456   3.514  18.039  0.00  0.00    +0.000 C 
ATOM      6  C   UNL     1       3.284   4.258  19.358  0.00  0.00    +0.000 C 
ATOM      7  C   UNL     1       3.738   5.727  19.245  0.00  0.00    +0.000 C 
ATOM      8  C   UNL     1       5.195   5.771  18.725  0.00  0.00    +0.000 C 
ENDROOT
BRANCH   2   9
ATOM      9  C   UNL     1       6.047   4.909  15.116  0.00  0.00    +0.000 A 
ATOM     10  C   UNL     1       5.015   4.449  14.262  0.00  0.00    +0.000 A 
ATOM     11  N   UNL     1       5.468   3.718  13.241  0.00  0.00    +0.000 NA
ATOM     12  N   UNL     1       6.799   3.751  13.401  0.00  0.00    +0.000 N 
ATOM     13  C   UNL     1       7.197   4.516  14.455  0.00  0.00    +0.000 A 
ATOM     14  H   UNL     1       7.377   3.227  12.749  0.00  0.00    +0.000 HD
ENDBRANCH   2   9
BRANCH   7  15
ATOM     15  N   UNL     1       2.842   6.420  18.304  0.00  0.00    +0.000 N 
ATOM     16  H   UNL     1       3.295   6.535  17.396  0.00  0.00    +0.000 HD
BRANCH  15  17
ATOM     17  C   UNL     1       2.151   7.580  18.662  0.00  0.00    +0.000 A 
ATOM     18  C   UNL     1       1.913   8.643  17.782  0.00  0.00    +0.000 A 
ATOM     19  C   UNL     1       1.339   9.842  18.226  0.00  0.00    +0.000 A 
ATOM     20  C   UNL     1       1.005  10.006  19.566  0.00  0.00    +0.000 A 
ATOM     21  C   UNL     1       1.240   8.965  20.455  0.00  0.00    +0.000 A 
ATOM     22 BR   UNL     1       0.783   9.170  22.279  0.00  0.00    +0.000 Br
ATOM     23  C   UNL     1       1.822   7.772  20.014  0.00  0.00    +0.000 A 
ENDBRANCH  15  17
ENDBRANCH   7  15
TORSDOF 3
ENDMDL
MODEL 9
REMARK VINA RESULT:      -6.5      2.922      6.598
REMARK  Name = 
REMARK  3 active torsions:
REMARK  status: ('A' for Active; 'I' for Inactive)
REMARK    1  A    between atoms: C_2  and  C_3
REMARK    2  A    between atoms: C_12  and  N_13
REMARK    3  A    between atoms: N_13  and  C_14
REMARK                            x       y       z     vdW  Elec       q    Type
REMARK                         _______ _______ _______ _____ _____    ______ ____
ROOT
ATOM      1  O   UNL     1       5.274   5.790  18.994  0.00  0.00    +0.000 OA
ATOM      2  C   UNL     1       5.269   4.823  18.229  0.00  0.00    +0.000 C 
ATOM      3  N   UNL     1       4.547   3.662  18.522  0.00  0.00    +0.000 N 
ATOM      4  C   UNL     1       4.363   2.506  17.640  0.00  0.00    +0.000 C 
ATOM      5  C   UNL     1       2.895   2.179  17.422  0.00  0.00    +0.000 C 
ATOM      6  C   UNL     1       2.164   2.032  18.752  0.00  0.00    +0.000 C 
ATOM      7  C   UNL     1       2.342   3.282  19.637  0.00  0.00    +0.000 C 
ATOM      8  C   UNL     1       3.851   3.567  19.819  0.00  0.00    +0.000 C 
ENDROOT
BRANCH   2   9
ATOM      9  C   UNL     1       5.979   4.914  16.964  0.00  0.00    +0.000 A 
ATOM     10  C   UNL     1       5.489   5.503  15.772  0.00  0.00    +0.000 A 
ATOM     11  N   UNL     1       6.327   5.373  14.741  0.00  0.00    +0.000 NA
ATOM     12  N   UNL     1       7.386   4.750  15.279  0.00  0.00    +0.000 N 
ATOM     13  C   UNL     1       7.262   4.529  16.617  0.00  0.00    +0.000 A 
ATOM     14  H   UNL     1       8.163   4.505  14.669  0.00  0.00    +0.000 HD
ENDBRANCH   2   9
BRANCH   7  15
ATOM     15  N   UNL     1       1.685   4.421  18.972  0.00  0.00    +0.000 N 
ATOM     16  H   UNL     1       1.890   4.418  17.972  0.00  0.00    +0.000 HD
BRANCH  15  17
ATOM     17  C   UNL     1       1.755   5.717  19.489  0.00  0.00    +0.000 A 
ATOM     18  C   UNL     1       1.467   6.037  20.821  0.00  0.00    +0.000 A 
ATOM     19  C   UNL     1       1.415   7.368  21.256  0.00  0.00    +0.000 A 
ATOM     20  C   UNL     1       1.638   8.408  20.359  0.00  0.00    +0.000 A 
ATOM     21  C   UNL     1       1.918   8.110  19.031  0.00  0.00    +0.000 A 
ATOM     22 BR   UNL     1       2.231   9.514  17.803  0.00  0.00    +0.000 Br
ATOM     23  C   UNL     1       1.960   6.782  18.596  0.00  0.00    +0.000 A 
ENDBRANCH  15  17
ENDBRANCH   7  15
TORSDOF 3
ENDMDL
