MODEL 1
REMARK VINA RESULT:      -6.8      0.000      0.000
REMARK  Name = 
REMARK  16 active torsions:
REMARK  status: ('A' for Active; 'I' for Inactive)
REMARK    1  A    between atoms: S_2  and  C_4
REMARK    2  A    between atoms: S_2  and  C_21
REMARK    3  A    between atoms: C_4  and  C_5
REMARK    4  A    between atoms: C_5  and  C_6
REMARK    5  A    between atoms: C_6  and  N_7
REMARK    6  A    between atoms: N_7  and  C_8
REMARK    7  A    between atoms: C_8  and  C_9
REMARK    8  A    between atoms: C_9  and  C_10
REMARK    9  A    between atoms: C_13  and  O_14
REMARK   10  A    between atoms: C_17  and  O_18
REMARK   11  A    between atoms: C_21  and  C_22
REMARK   12  A    between atoms: C_22  and  N_23
REMARK   13  A    between atoms: N_23  and  C_24
REMARK   14  A    between atoms: C_24  and  C_25
REMARK   15  A    between atoms: C_25  and  O_26
REMARK   16  A    between atoms: O_26  and  C_27
REMARK                            x       y       z     vdW  Elec       q    Type
REMARK                         _______ _______ _______ _____ _____    ______ ____
ROOT
ATOM      1  C   UNL     1       7.935   8.211  17.573  0.00  0.00    +0.000 C 
ENDROOT
BRANCH   1   2
ATOM      2  C   UNL     1       8.341   9.578  18.098  0.00  0.00    +0.000 C 
BRANCH   2   3
ATOM      3  N   UNL     1       9.176   9.440  19.289  0.00  0.00    +0.000 NA
ATOM      4  H   UNL     1      10.150   9.318  19.006  0.00  0.00    +0.000 HD
BRANCH   3   5
ATOM      5  C   UNL     1       9.082  10.616  20.163  0.00  0.00    +0.000 C 
BRANCH   5   6
ATOM      6  C   UNL     1      10.414  11.371  20.276  0.00  0.00    +0.000 C 
BRANCH   6   7
ATOM      7  C   UNL     1      10.603  12.381  19.176  0.00  0.00    +0.000 A 
ATOM      8  C   UNL     1      11.467  12.091  18.107  0.00  0.00    +0.000 A 
ATOM      9  C   UNL     1      11.697  13.010  17.089  0.00  0.00    +0.000 A 
ATOM     10  C   UNL     1      11.061  14.254  17.111  0.00  0.00    +0.000 A 
ATOM     11  C   UNL     1      10.174  14.589  18.161  0.00  0.00    +0.000 A 
ATOM     12  N   UNL     1       9.480  15.786  18.315  0.00  0.00    +0.000 NA
ATOM     13  C   UNL     1       8.769  15.728  19.407  0.00  0.00    +0.000 A 
ATOM     14  S   UNL     1       8.843  14.307  20.318  0.00  0.00    +0.000 S 
ATOM     15  C   UNL     1       9.961  13.643  19.172  0.00  0.00    +0.000 A 
BRANCH  10  16
ATOM     16  O   UNL     1      11.304  15.156  16.101  0.00  0.00    +0.000 OA
ATOM     17  H   UNL     1      11.557  16.007  16.490  0.00  0.00    +0.000 HD
ENDBRANCH  10  16
BRANCH  13  18
ATOM     18  O   UNL     1       8.032  16.766  19.750  0.00  0.00    +0.000 OA
ATOM     19  H   UNL     1       8.348  17.426  19.106  0.00  0.00    +0.000 HD
ENDBRANCH  13  18
ENDBRANCH   6   7
ENDBRANCH   5   6
ENDBRANCH   3   5
ENDBRANCH   2   3
ENDBRANCH   1   2
BRANCH   1  20
ATOM     20  C   UNL     1       8.198   7.159  18.643  0.00  0.00    +0.000 C 
BRANCH  20  22
ATOM     21  O   UNL     1       7.825   4.772  17.656  0.00  0.00    +0.000 OA
ATOM     22  S   UNL     1       7.120   5.765  18.441  0.00  0.00    +0.000 S 
ATOM     23  O   UNL     1       6.565   5.434  19.743  0.00  0.00    +0.000 OA
BRANCH  22  24
ATOM     24  C   UNL     1       5.810   6.421  17.427  0.00  0.00    +0.000 C 
BRANCH  24  25
ATOM     25  C   UNL     1       4.754   5.348  17.235  0.00  0.00    +0.000 C 
BRANCH  25  26
ATOM     26  N   UNL     1       3.909   5.205  18.429  0.00  0.00    +0.000 NA
ATOM     27  H   UNL     1       4.426   5.515  19.252  0.00  0.00    +0.000 HD
BRANCH  26  28
ATOM     28  C   UNL     1       2.679   6.017  18.335  0.00  0.00    +0.000 C 
BRANCH  28  29
ATOM     29  C   UNL     1       2.630   7.147  19.368  0.00  0.00    +0.000 C 
BRANCH  29  30
ATOM     30  O   UNL     1       1.847   8.245  18.896  0.00  0.00    +0.000 OA
BRANCH  30  31
ATOM     31  C   UNL     1       1.231   8.956  19.895  0.00  0.00    +0.000 A 
ATOM     32  C   UNL     1       0.974   8.245  21.068  0.00  0.00    +0.000 A 
ATOM     33  C   UNL     1       0.337   8.867  22.141  0.00  0.00    +0.000 A 
ATOM     34  C   UNL     1      -0.033  10.208  22.049  0.00  0.00    +0.000 A 
ATOM     35  C   UNL     1       0.240  10.929  20.891  0.00  0.00    +0.000 A 
ATOM     36  C   UNL     1       0.873  10.305  19.817  0.00  0.00    +0.000 A 
ENDBRANCH  30  31
ENDBRANCH  29  30
ENDBRANCH  28  29
ENDBRANCH  26  28
ENDBRANCH  25  26
ENDBRANCH  24  25
ENDBRANCH  22  24
ENDBRANCH  20  22
ENDBRANCH   1  20
TORSDOF 16
ENDMDL
MODEL 2
REMARK VINA RESULT:      -6.7      5.597      9.064
REMARK  Name = 
REMARK  16 active torsions:
REMARK  status: ('A' for Active; 'I' for Inactive)
REMARK    1  A    between atoms: S_2  and  C_4
REMARK    2  A    between atoms: S_2  and  C_21
REMARK    3  A    between atoms: C_4  and  C_5
REMARK    4  A    between atoms: C_5  and  C_6
REMARK    5  A    between atoms: C_6  and  N_7
REMARK    6  A    between atoms: N_7  and  C_8
REMARK    7  A    between atoms: C_8  and  C_9
REMARK    8  A    between atoms: C_9  and  C_10
REMARK    9  A    between atoms: C_13  and  O_14
REMARK   10  A    between atoms: C_17  and  O_18
REMARK   11  A    between atoms: C_21  and  C_22
REMARK   12  A    between atoms: C_22  and  N_23
REMARK   13  A    between atoms: N_23  and  C_24
REMARK   14  A    between atoms: C_24  and  C_25
REMARK   15  A    between atoms: C_25  and  O_26
REMARK   16  A    between atoms: O_26  and  C_27
REMARK                            x       y       z     vdW  Elec       q    Type
REMARK                         _______ _______ _______ _____ _____    ______ ____
ROOT
ATOM      1  C   UNL     1       2.536   5.464  20.243  0.00  0.00    +0.000 C 
ENDROOT
BRANCH   1   2
ATOM      2  C   UNL     1       2.403   6.084  18.862  0.00  0.00    +0.000 C 
BRANCH   2   3
ATOM      3  N   UNL     1       2.645   7.524  18.925  0.00  0.00    +0.000 NA
ATOM      4  H   UNL     1       2.401   7.946  18.026  0.00  0.00    +0.000 HD
BRANCH   3   5
ATOM      5  C   UNL     1       1.851   8.167  19.979  0.00  0.00    +0.000 C 
BRANCH   5   6
ATOM      6  C   UNL     1       1.136   9.433  19.486  0.00  0.00    +0.000 C 
BRANCH   6   7
ATOM      7  C   UNL     1       0.328  10.101  20.567  0.00  0.00    +0.000 A 
ATOM      8  C   UNL     1       0.061   9.412  21.761  0.00  0.00    +0.000 A 
ATOM      9  C   UNL     1      -0.711   9.978  22.770  0.00  0.00    +0.000 A 
ATOM     10  C   UNL     1      -1.238  11.262  22.612  0.00  0.00    +0.000 A 
ATOM     11  C   UNL     1      -0.989  12.000  21.430  0.00  0.00    +0.000 A 
ATOM     12  N   UNL     1      -1.453  13.279  21.134  0.00  0.00    +0.000 NA
ATOM     13  C   UNL     1      -1.025  13.623  19.951  0.00  0.00    +0.000 A 
ATOM     14  S   UNL     1      -0.064  12.516  19.111  0.00  0.00    +0.000 S 
ATOM     15  C   UNL     1      -0.208  11.404  20.432  0.00  0.00    +0.000 A 
BRANCH  10  16
ATOM     16  O   UNL     1      -2.006  11.806  23.615  0.00  0.00    +0.000 OA
ATOM     17  H   UNL     1      -1.901  12.770  23.607  0.00  0.00    +0.000 HD
ENDBRANCH  10  16
BRANCH  13  18
ATOM     18  O   UNL     1      -1.354  14.804  19.467  0.00  0.00    +0.000 OA
ATOM     19  H   UNL     1      -2.276  14.870  19.775  0.00  0.00    +0.000 HD
ENDBRANCH  13  18
ENDBRANCH   6   7
ENDBRANCH   5   6
ENDBRANCH   3   5
ENDBRANCH   2   3
ENDBRANCH   1   2
BRANCH   1  20
ATOM     20  C   UNL     1       1.287   4.650  20.555  0.00  0.00    +0.000 C 
BRANCH  20  22
ATOM     21  O   UNL     1       1.822   2.591  22.067  0.00  0.00    +0.000 OA
ATOM     22  S   UNL     1       1.667   2.921  20.665  0.00  0.00    +0.000 S 
ATOM     23  O   UNL     1       0.724   2.199  19.826  0.00  0.00    +0.000 OA
BRANCH  22  24
ATOM     24  C   UNL     1       3.277   2.820  19.908  0.00  0.00    +0.000 C 
BRANCH  24  25
ATOM     25  C   UNL     1       3.225   1.807  18.778  0.00  0.00    +0.000 C 
BRANCH  25  26
ATOM     26  N   UNL     1       4.194   2.130  17.721  0.00  0.00    +0.000 NA
ATOM     27  H   UNL     1       3.809   1.868  16.813  0.00  0.00    +0.000 HD
BRANCH  26  28
ATOM     28  C   UNL     1       4.507   3.572  17.681  0.00  0.00    +0.000 C 
BRANCH  28  29
ATOM     29  C   UNL     1       5.075   4.022  16.332  0.00  0.00    +0.000 C 
BRANCH  29  30
ATOM     30  O   UNL     1       6.503   4.044  16.354  0.00  0.00    +0.000 OA
BRANCH  30  31
ATOM     31  C   UNL     1       7.030   5.053  17.119  0.00  0.00    +0.000 A 
ATOM     32  C   UNL     1       6.933   6.334  16.574  0.00  0.00    +0.000 A 
ATOM     33  C   UNL     1       7.451   7.430  17.262  0.00  0.00    +0.000 A 
ATOM     34  C   UNL     1       8.058   7.251  18.504  0.00  0.00    +0.000 A 
ATOM     35  C   UNL     1       8.139   5.979  19.062  0.00  0.00    +0.000 A 
ATOM     36  C   UNL     1       7.624   4.883  18.373  0.00  0.00    +0.000 A 
ENDBRANCH  30  31
ENDBRANCH  29  30
ENDBRANCH  28  29
ENDBRANCH  26  28
ENDBRANCH  25  26
ENDBRANCH  24  25
ENDBRANCH  22  24
ENDBRANCH  20  22
ENDBRANCH   1  20
TORSDOF 16
ENDMDL
MODEL 3
REMARK VINA RESULT:      -6.7      3.430      9.439
REMARK  Name = 
REMARK  16 active torsions:
REMARK  status: ('A' for Active; 'I' for Inactive)
REMARK    1  A    between atoms: S_2  and  C_4
REMARK    2  A    between atoms: S_2  and  C_21
REMARK    3  A    between atoms: C_4  and  C_5
REMARK    4  A    between atoms: C_5  and  C_6
REMARK    5  A    between atoms: C_6  and  N_7
REMARK    6  A    between atoms: N_7  and  C_8
REMARK    7  A    between atoms: C_8  and  C_9
REMARK    8  A    between atoms: C_9  and  C_10
REMARK    9  A    between atoms: C_13  and  O_14
REMARK   10  A    between atoms: C_17  and  O_18
REMARK   11  A    between atoms: C_21  and  C_22
REMARK   12  A    between atoms: C_22  and  N_23
REMARK   13  A    between atoms: N_23  and  C_24
REMARK   14  A    between atoms: C_24  and  C_25
REMARK   15  A    between atoms: C_25  and  O_26
REMARK   16  A    between atoms: O_26  and  C_27
REMARK                            x       y       z     vdW  Elec       q    Type
REMARK                         _______ _______ _______ _____ _____    ______ ____
ROOT
ATOM      1  C   UNL     1       2.702   5.739  18.956  0.00  0.00    +0.000 C 
ENDROOT
BRANCH   1   2
ATOM      2  C   UNL     1       2.100   6.395  20.187  0.00  0.00    +0.000 C 
BRANCH   2   3
ATOM      3  N   UNL     1       1.900   7.824  19.958  0.00  0.00    +0.000 NA
ATOM      4  H   UNL     1       1.154   7.954  19.272  0.00  0.00    +0.000 HD
BRANCH   3   5
ATOM      5  C   UNL     1       1.535   8.532  21.191  0.00  0.00    +0.000 C 
BRANCH   5   6
ATOM      6  C   UNL     1       0.018   8.565  21.422  0.00  0.00    +0.000 C 
BRANCH   6   7
ATOM      7  C   UNL     1      -0.513   9.965  21.587  0.00  0.00    +0.000 A 
ATOM      8  C   UNL     1      -0.790  10.456  22.873  0.00  0.00    +0.000 A 
ATOM      9  C   UNL     1      -1.314  11.729  23.068  0.00  0.00    +0.000 A 
ATOM     10  C   UNL     1      -1.574  12.554  21.971  0.00  0.00    +0.000 A 
ATOM     11  C   UNL     1      -1.303  12.108  20.656  0.00  0.00    +0.000 A 
ATOM     12  N   UNL     1      -1.517  12.815  19.475  0.00  0.00    +0.000 NA
ATOM     13  C   UNL     1      -1.153  12.076  18.465  0.00  0.00    +0.000 A 
ATOM     14  S   UNL     1      -0.541  10.537  18.798  0.00  0.00    +0.000 S 
ATOM     15  C   UNL     1      -0.774  10.822  20.491  0.00  0.00    +0.000 A 
BRANCH  10  16
ATOM     16  O   UNL     1      -2.101  13.809  22.178  0.00  0.00    +0.000 OA
ATOM     17  H   UNL     1      -3.036  13.806  21.924  0.00  0.00    +0.000 HD
ENDBRANCH  10  16
BRANCH  13  18
ATOM     18  O   UNL     1      -1.277  12.553  17.242  0.00  0.00    +0.000 OA
ATOM     19  H   UNL     1      -0.520  12.121  16.807  0.00  0.00    +0.000 HD
ENDBRANCH  13  18
ENDBRANCH   6   7
ENDBRANCH   5   6
ENDBRANCH   3   5
ENDBRANCH   2   3
ENDBRANCH   1   2
BRANCH   1  20
ATOM     20  C   UNL     1       3.647   4.626  19.388  0.00  0.00    +0.000 C 
BRANCH  20  22
ATOM     21  O   UNL     1       6.204   4.221  19.054  0.00  0.00    +0.000 OA
ATOM     22  S   UNL     1       5.016   4.486  18.268  0.00  0.00    +0.000 S 
ATOM     23  O   UNL     1       4.623   3.599  17.186  0.00  0.00    +0.000 OA
BRANCH  22  24
ATOM     24  C   UNL     1       5.161   6.137  17.613  0.00  0.00    +0.000 C 
BRANCH  24  25
ATOM     25  C   UNL     1       6.575   6.335  17.094  0.00  0.00    +0.000 C 
BRANCH  25  26
ATOM     26  N   UNL     1       7.396   7.092  18.050  0.00  0.00    +0.000 NA
ATOM     27  H   UNL     1       8.164   6.506  18.379  0.00  0.00    +0.000 HD
BRANCH  26  28
ATOM     28  C   UNL     1       7.981   8.302  17.438  0.00  0.00    +0.000 C 
BRANCH  28  29
ATOM     29  C   UNL     1       8.524   9.291  18.474  0.00  0.00    +0.000 C 
BRANCH  29  30
ATOM     30  O   UNL     1       8.676  10.596  17.913  0.00  0.00    +0.000 OA
BRANCH  30  31
ATOM     31  C   UNL     1       9.685  11.330  18.483  0.00  0.00    +0.000 A 
ATOM     32  C   UNL     1       9.904  11.098  19.841  0.00  0.00    +0.000 A 
ATOM     33  C   UNL     1      10.894  11.803  20.523  0.00  0.00    +0.000 A 
ATOM     34  C   UNL     1      11.679  12.734  19.846  0.00  0.00    +0.000 A 
ATOM     35  C   UNL     1      11.480  12.956  18.487  0.00  0.00    +0.000 A 
ATOM     36  C   UNL     1      10.488  12.253  17.806  0.00  0.00    +0.000 A 
ENDBRANCH  30  31
ENDBRANCH  29  30
ENDBRANCH  28  29
ENDBRANCH  26  28
ENDBRANCH  25  26
ENDBRANCH  24  25
ENDBRANCH  22  24
ENDBRANCH  20  22
ENDBRANCH   1  20
TORSDOF 16
ENDMDL
MODEL 4
REMARK VINA RESULT:      -6.7      6.659      9.790
REMARK  Name = 
REMARK  16 active torsions:
REMARK  status: ('A' for Active; 'I' for Inactive)
REMARK    1  A    between atoms: S_2  and  C_4
REMARK    2  A    between atoms: S_2  and  C_21
REMARK    3  A    between atoms: C_4  and  C_5
REMARK    4  A    between atoms: C_5  and  C_6
REMARK    5  A    between atoms: C_6  and  N_7
REMARK    6  A    between atoms: N_7  and  C_8
REMARK    7  A    between atoms: C_8  and  C_9
REMARK    8  A    between atoms: C_9  and  C_10
REMARK    9  A    between atoms: C_13  and  O_14
REMARK   10  A    between atoms: C_17  and  O_18
REMARK   11  A    between atoms: C_21  and  C_22
REMARK   12  A    between atoms: C_22  and  N_23
REMARK   13  A    between atoms: N_23  and  C_24
REMARK   14  A    between atoms: C_24  and  C_25
REMARK   15  A    between atoms: C_25  and  O_26
REMARK   16  A    between atoms: O_26  and  C_27
REMARK                            x       y       z     vdW  Elec       q    Type
REMARK                         _______ _______ _______ _____ _____    ______ ____
ROOT
ATOM      1  C   UNL     1       1.779   5.069  20.830  0.00  0.00    +0.000 C 
ENDROOT
BRANCH   1   2
ATOM      2  C   UNL     1       1.295   6.509  20.826  0.00  0.00    +0.000 C 
BRANCH   2   3
ATOM      3  N   UNL     1       2.295   7.382  20.217  0.00  0.00    +0.000 NA
ATOM      4  H   UNL     1       2.909   6.826  19.618  0.00  0.00    +0.000 HD
BRANCH   3   5
ATOM      5  C   UNL     1       1.679   8.440  19.407  0.00  0.00    +0.000 C 
BRANCH   5   6
ATOM      6  C   UNL     1       0.963   9.494  20.263  0.00  0.00    +0.000 C 
BRANCH   6   7
ATOM      7  C   UNL     1      -0.183  10.149  19.539  0.00  0.00    +0.000 A 
ATOM      8  C   UNL     1      -0.469   9.782  18.214  0.00  0.00    +0.000 A 
ATOM      9  C   UNL     1      -1.496  10.387  17.498  0.00  0.00    +0.000 A 
ATOM     10  C   UNL     1      -2.274  11.382  18.095  0.00  0.00    +0.000 A 
ATOM     11  C   UNL     1      -2.031  11.780  19.430  0.00  0.00    +0.000 A 
ATOM     12  N   UNL     1      -2.718  12.757  20.147  0.00  0.00    +0.000 NA
ATOM     13  C   UNL     1      -2.203  12.848  21.342  0.00  0.00    +0.000 A 
ATOM     14  S   UNL     1      -0.915  11.824  21.723  0.00  0.00    +0.000 S 
ATOM     15  C   UNL     1      -0.991  11.152  20.127  0.00  0.00    +0.000 A 
BRANCH  10  16
ATOM     16  O   UNL     1      -3.282  11.977  17.371  0.00  0.00    +0.000 OA
ATOM     17  H   UNL     1      -2.977  12.121  16.462  0.00  0.00    +0.000 HD
ENDBRANCH  10  16
BRANCH  13  18
ATOM     18  O   UNL     1      -2.704  13.723  22.191  0.00  0.00    +0.000 OA
ATOM     19  H   UNL     1      -3.406  13.187  22.603  0.00  0.00    +0.000 HD
ENDBRANCH  13  18
ENDBRANCH   6   7
ENDBRANCH   5   6
ENDBRANCH   3   5
ENDBRANCH   2   3
ENDBRANCH   1   2
BRANCH   1  20
ATOM     20  C   UNL     1       0.956   4.255  19.841  0.00  0.00    +0.000 C 
BRANCH  20  22
ATOM     21  O   UNL     1       1.861   1.857  19.346  0.00  0.00    +0.000 OA
ATOM     22  S   UNL     1       1.999   3.213  18.853  0.00  0.00    +0.000 S 
ATOM     23  O   UNL     1       1.757   3.529  17.456  0.00  0.00    +0.000 OA
BRANCH  22  24
ATOM     24  C   UNL     1       3.636   3.775  19.278  0.00  0.00    +0.000 C 
BRANCH  24  25
ATOM     25  C   UNL     1       4.620   3.235  18.255  0.00  0.00    +0.000 C 
BRANCH  25  26
ATOM     26  N   UNL     1       5.980   3.735  18.503  0.00  0.00    +0.000 NA
ATOM     27  H   UNL     1       6.661   3.061  18.149  0.00  0.00    +0.000 HD
BRANCH  26  28
ATOM     28  C   UNL     1       6.227   5.024  17.827  0.00  0.00    +0.000 C 
BRANCH  28  29
ATOM     29  C   UNL     1       7.168   4.898  16.626  0.00  0.00    +0.000 C 
BRANCH  29  30
ATOM     30  O   UNL     1       6.710   5.685  15.525  0.00  0.00    +0.000 OA
BRANCH  30  31
ATOM     31  C   UNL     1       6.648   4.996  14.340  0.00  0.00    +0.000 A 
ATOM     32  C   UNL     1       5.545   4.156  14.190  0.00  0.00    +0.000 A 
ATOM     33  C   UNL     1       5.393   3.397  13.031  0.00  0.00    +0.000 A 
ATOM     34  C   UNL     1       6.337   3.487  12.010  0.00  0.00    +0.000 A 
ATOM     35  C   UNL     1       7.428   4.340  12.143  0.00  0.00    +0.000 A 
ATOM     36  C   UNL     1       7.582   5.095  13.304  0.00  0.00    +0.000 A 
ENDBRANCH  30  31
ENDBRANCH  29  30
ENDBRANCH  28  29
ENDBRANCH  26  28
ENDBRANCH  25  26
ENDBRANCH  24  25
ENDBRANCH  22  24
ENDBRANCH  20  22
ENDBRANCH   1  20
TORSDOF 16
ENDMDL
MODEL 5
REMARK VINA RESULT:      -6.6      5.816      7.597
REMARK  Name = 
REMARK  16 active torsions:
REMARK  status: ('A' for Active; 'I' for Inactive)
REMARK    1  A    between atoms: S_2  and  C_4
REMARK    2  A    between atoms: S_2  and  C_21
REMARK    3  A    between atoms: C_4  and  C_5
REMARK    4  A    between atoms: C_5  and  C_6
REMARK    5  A    between atoms: C_6  and  N_7
REMARK    6  A    between atoms: N_7  and  C_8
REMARK    7  A    between atoms: C_8  and  C_9
REMARK    8  A    between atoms: C_9  and  C_10
REMARK    9  A    between atoms: C_13  and  O_14
REMARK   10  A    between atoms: C_17  and  O_18
REMARK   11  A    between atoms: C_21  and  C_22
REMARK   12  A    between atoms: C_22  and  N_23
REMARK   13  A    between atoms: N_23  and  C_24
REMARK   14  A    between atoms: C_24  and  C_25
REMARK   15  A    between atoms: C_25  and  O_26
REMARK   16  A    between atoms: O_26  and  C_27
REMARK                            x       y       z     vdW  Elec       q    Type
REMARK                         _______ _______ _______ _____ _____    ______ ____
ROOT
ATOM      1  C   UNL     1       5.342   6.787  16.283  0.00  0.00    +0.000 C 
ENDROOT
BRANCH   1   2
ATOM      2  C   UNL     1       4.026   6.662  17.032  0.00  0.00    +0.000 C 
BRANCH   2   3
ATOM      3  N   UNL     1       3.419   7.978  17.221  0.00  0.00    +0.000 NA
ATOM      4  H   UNL     1       2.979   8.275  16.347  0.00  0.00    +0.000 HD
BRANCH   3   5
ATOM      5  C   UNL     1       2.403   7.966  18.280  0.00  0.00    +0.000 C 
BRANCH   5   6
ATOM      6  C   UNL     1       1.555   9.245  18.295  0.00  0.00    +0.000 C 
BRANCH   6   7
ATOM      7  C   UNL     1       1.070   9.603  19.675  0.00  0.00    +0.000 A 
ATOM      8  C   UNL     1       0.712   8.584  20.572  0.00  0.00    +0.000 A 
ATOM      9  C   UNL     1       0.226   8.871  21.843  0.00  0.00    +0.000 A 
ATOM     10  C   UNL     1       0.086  10.198  22.255  0.00  0.00    +0.000 A 
ATOM     11  C   UNL     1       0.441  11.260  21.391  0.00  0.00    +0.000 A 
ATOM     12  N   UNL     1       0.349  12.623  21.664  0.00  0.00    +0.000 NA
ATOM     13  C   UNL     1       0.760  13.293  20.624  0.00  0.00    +0.000 A 
ATOM     14  S   UNL     1       1.283  12.415  19.278  0.00  0.00    +0.000 S 
ATOM     15  C   UNL     1       0.929  10.940  20.118  0.00  0.00    +0.000 A 
BRANCH  10  16
ATOM     16  O   UNL     1      -0.404  10.468  23.513  0.00  0.00    +0.000 OA
ATOM     17  H   UNL     1      -1.113  11.125  23.442  0.00  0.00    +0.000 HD
ENDBRANCH  10  16
BRANCH  13  18
ATOM     18  O   UNL     1       0.752  14.611  20.664  0.00  0.00    +0.000 OA
ATOM     19  H   UNL     1       1.047  14.761  21.581  0.00  0.00    +0.000 HD
ENDBRANCH  13  18
ENDBRANCH   6   7
ENDBRANCH   5   6
ENDBRANCH   3   5
ENDBRANCH   2   3
ENDBRANCH   1   2
BRANCH   1  20
ATOM     20  C   UNL     1       6.149   5.508  16.460  0.00  0.00    +0.000 C 
BRANCH  20  22
ATOM     21  O   UNL     1       7.845   4.330  18.056  0.00  0.00    +0.000 OA
ATOM     22  S   UNL     1       6.986   5.496  18.024  0.00  0.00    +0.000 S 
ATOM     23  O   UNL     1       7.522   6.827  18.257  0.00  0.00    +0.000 OA
BRANCH  22  24
ATOM     24  C   UNL     1       5.659   5.219  19.181  0.00  0.00    +0.000 C 
BRANCH  24  25
ATOM     25  C   UNL     1       5.285   3.748  19.154  0.00  0.00    +0.000 C 
BRANCH  25  26
ATOM     26  N   UNL     1       5.017   3.286  17.784  0.00  0.00    +0.000 NA
ATOM     27  H   UNL     1       5.780   2.684  17.471  0.00  0.00    +0.000 HD
BRANCH  26  28
ATOM     28  C   UNL     1       3.764   2.510  17.698  0.00  0.00    +0.000 C 
BRANCH  28  29
ATOM     29  C   UNL     1       2.634   3.276  17.004  0.00  0.00    +0.000 C 
BRANCH  29  30
ATOM     30  O   UNL     1       1.422   3.203  17.756  0.00  0.00    +0.000 OA
BRANCH  30  31
ATOM     31  C   UNL     1       1.598   3.364  19.107  0.00  0.00    +0.000 A 
ATOM     32  C   UNL     1       1.856   4.670  19.529  0.00  0.00    +0.000 A 
ATOM     33  C   UNL     1       2.067   4.942  20.879  0.00  0.00    +0.000 A 
ATOM     34  C   UNL     1       2.006   3.913  21.816  0.00  0.00    +0.000 A 
ATOM     35  C   UNL     1       1.727   2.613  21.406  0.00  0.00    +0.000 A 
ATOM     36  C   UNL     1       1.521   2.339  20.056  0.00  0.00    +0.000 A 
ENDBRANCH  30  31
ENDBRANCH  29  30
ENDBRANCH  28  29
ENDBRANCH  26  28
ENDBRANCH  25  26
ENDBRANCH  24  25
ENDBRANCH  22  24
ENDBRANCH  20  22
ENDBRANCH   1  20
TORSDOF 16
ENDMDL
MODEL 6
REMARK VINA RESULT:      -6.6      1.341      1.765
REMARK  Name = 
REMARK  16 active torsions:
REMARK  status: ('A' for Active; 'I' for Inactive)
REMARK    1  A    between atoms: S_2  and  C_4
REMARK    2  A    between atoms: S_2  and  C_21
REMARK    3  A    between atoms: C_4  and  C_5
REMARK    4  A    between atoms: C_5  and  C_6
REMARK    5  A    between atoms: C_6  and  N_7
REMARK    6  A    between atoms: N_7  and  C_8
REMARK    7  A    between atoms: C_8  and  C_9
REMARK    8  A    between atoms: C_9  and  C_10
REMARK    9  A    between atoms: C_13  and  O_14
REMARK   10  A    between atoms: C_17  and  O_18
REMARK   11  A    between atoms: C_21  and  C_22
REMARK   12  A    between atoms: C_22  and  N_23
REMARK   13  A    between atoms: N_23  and  C_24
REMARK   14  A    between atoms: C_24  and  C_25
REMARK   15  A    between atoms: C_25  and  O_26
REMARK   16  A    between atoms: O_26  and  C_27
REMARK                            x       y       z     vdW  Elec       q    Type
REMARK                         _______ _______ _______ _____ _____    ______ ____
ROOT
ATOM      1  C   UNL     1       7.833   7.168  18.126  0.00  0.00    +0.000 C 
ENDROOT
BRANCH   1   2
ATOM      2  C   UNL     1       8.057   8.645  17.847  0.00  0.00    +0.000 C 
BRANCH   2   3
ATOM      3  N   UNL     1       8.914   9.234  18.873  0.00  0.00    +0.000 NA
ATOM      4  H   UNL     1       9.812   8.745  18.884  0.00  0.00    +0.000 HD
BRANCH   3   5
ATOM      5  C   UNL     1       9.157  10.661  18.631  0.00  0.00    +0.000 C 
BRANCH   5   6
ATOM      6  C   UNL     1      10.536  11.116  19.131  0.00  0.00    +0.000 C 
BRANCH   6   7
ATOM      7  C   UNL     1      10.973  12.420  18.521  0.00  0.00    +0.000 A 
ATOM      8  C   UNL     1      11.498  12.437  17.218  0.00  0.00    +0.000 A 
ATOM      9  C   UNL     1      11.946  13.615  16.630  0.00  0.00    +0.000 A 
ATOM     10  C   UNL     1      11.878  14.819  17.334  0.00  0.00    +0.000 A 
ATOM     11  C   UNL     1      11.349  14.856  18.646  0.00  0.00    +0.000 A 
ATOM     12  N   UNL     1      11.227  15.976  19.464  0.00  0.00    +0.000 NA
ATOM     13  C   UNL     1      10.703  15.615  20.603  0.00  0.00    +0.000 A 
ATOM     14  S   UNL     1      10.312  13.984  20.807  0.00  0.00    +0.000 S 
ATOM     15  C   UNL     1      10.905  13.654  19.212  0.00  0.00    +0.000 A 
BRANCH  10  16
ATOM     16  O   UNL     1      12.333  15.975  16.743  0.00  0.00    +0.000 OA
ATOM     17  H   UNL     1      11.575  16.480  16.408  0.00  0.00    +0.000 HD
ENDBRANCH  10  16
BRANCH  13  18
ATOM     18  O   UNL     1      10.503  16.527  21.534  0.00  0.00    +0.000 OA
ATOM     19  H   UNL     1       9.707  16.966  21.183  0.00  0.00    +0.000 HD
ENDBRANCH  13  18
ENDBRANCH   6   7
ENDBRANCH   5   6
ENDBRANCH   3   5
ENDBRANCH   2   3
ENDBRANCH   1   2
BRANCH   1  20
ATOM     20  C   UNL     1       6.918   6.585  17.058  0.00  0.00    +0.000 C 
BRANCH  20  22
ATOM     21  O   UNL     1       7.461   4.459  15.644  0.00  0.00    +0.000 OA
ATOM     22  S   UNL     1       7.066   4.818  16.991  0.00  0.00    +0.000 S 
ATOM     23  O   UNL     1       7.847   4.389  18.140  0.00  0.00    +0.000 OA
BRANCH  22  24
ATOM     24  C   UNL     1       5.386   4.272  17.223  0.00  0.00    +0.000 C 
BRANCH  24  25
ATOM     25  C   UNL     1       5.171   3.958  18.693  0.00  0.00    +0.000 C 
BRANCH  25  26
ATOM     26  N   UNL     1       4.463   5.051  19.377  0.00  0.00    +0.000 NA
ATOM     27  H   UNL     1       5.127   5.787  19.621  0.00  0.00    +0.000 HD
BRANCH  26  28
ATOM     28  C   UNL     1       3.416   5.649  18.526  0.00  0.00    +0.000 C 
BRANCH  28  29
ATOM     29  C   UNL     1       2.531   6.646  19.280  0.00  0.00    +0.000 C 
BRANCH  29  30
ATOM     30  O   UNL     1       2.126   7.722  18.433  0.00  0.00    +0.000 OA
BRANCH  30  31
ATOM     31  C   UNL     1       1.595   8.790  19.111  0.00  0.00    +0.000 A 
ATOM     32  C   UNL     1       1.553   9.991  18.402  0.00  0.00    +0.000 A 
ATOM     33  C   UNL     1       1.048  11.144  19.002  0.00  0.00    +0.000 A 
ATOM     34  C   UNL     1       0.569  11.096  20.310  0.00  0.00    +0.000 A 
ATOM     35  C   UNL     1       0.587   9.897  21.015  0.00  0.00    +0.000 A 
ATOM     36  C   UNL     1       1.096   8.746  20.416  0.00  0.00    +0.000 A 
ENDBRANCH  30  31
ENDBRANCH  29  30
ENDBRANCH  28  29
ENDBRANCH  26  28
ENDBRANCH  25  26
ENDBRANCH  24  25
ENDBRANCH  22  24
ENDBRANCH  20  22
ENDBRANCH   1  20
TORSDOF 16
ENDMDL
MODEL 7
REMARK VINA RESULT:      -6.6      3.282      9.085
REMARK  Name = 
REMARK  16 active torsions:
REMARK  status: ('A' for Active; 'I' for Inactive)
REMARK    1  A    between atoms: S_2  and  C_4
REMARK    2  A    between atoms: S_2  and  C_21
REMARK    3  A    between atoms: C_4  and  C_5
REMARK    4  A    between atoms: C_5  and  C_6
REMARK    5  A    between atoms: C_6  and  N_7
REMARK    6  A    between atoms: N_7  and  C_8
REMARK    7  A    between atoms: C_8  and  C_9
REMARK    8  A    between atoms: C_9  and  C_10
REMARK    9  A    between atoms: C_13  and  O_14
REMARK   10  A    between atoms: C_17  and  O_18
REMARK   11  A    between atoms: C_21  and  C_22
REMARK   12  A    between atoms: C_22  and  N_23
REMARK   13  A    between atoms: N_23  and  C_24
REMARK   14  A    between atoms: C_24  and  C_25
REMARK   15  A    between atoms: C_25  and  O_26
REMARK   16  A    between atoms: O_26  and  C_27
REMARK                            x       y       z     vdW  Elec       q    Type
REMARK                         _______ _______ _______ _____ _____    ______ ____
ROOT
ATOM      1  C   UNL     1       3.652   4.593  17.520  0.00  0.00    +0.000 C 
ENDROOT
BRANCH   1   2
ATOM      2  C   UNL     1       3.331   4.565  19.004  0.00  0.00    +0.000 C 
BRANCH   2   3
ATOM      3  N   UNL     1       2.014   5.149  19.253  0.00  0.00    +0.000 NA
ATOM      4  H   UNL     1       1.378   4.419  19.580  0.00  0.00    +0.000 HD
BRANCH   3   5
ATOM      5  C   UNL     1       2.069   6.214  20.261  0.00  0.00    +0.000 C 
BRANCH   5   6
ATOM      6  C   UNL     1       2.075   7.616  19.636  0.00  0.00    +0.000 C 
BRANCH   6   7
ATOM      7  C   UNL     1       1.291   8.615  20.444  0.00  0.00    +0.000 A 
ATOM      8  C   UNL     1       1.247   8.496  21.842  0.00  0.00    +0.000 A 
ATOM      9  C   UNL     1       0.507   9.377  22.624  0.00  0.00    +0.000 A 
ATOM     10  C   UNL     1      -0.214  10.411  22.022  0.00  0.00    +0.000 A 
ATOM     11  C   UNL     1      -0.194  10.577  20.617  0.00  0.00    +0.000 A 
ATOM     12  N   UNL     1      -0.865  11.553  19.883  0.00  0.00    +0.000 NA
ATOM     13  C   UNL     1      -0.611  11.381  18.616  0.00  0.00    +0.000 A 
ATOM     14  S   UNL     1       0.411  10.107  18.184  0.00  0.00    +0.000 S 
ATOM     15  C   UNL     1       0.562   9.676  19.856  0.00  0.00    +0.000 A 
BRANCH  10  16
ATOM     16  O   UNL     1      -0.949  11.270  22.807  0.00  0.00    +0.000 OA
ATOM     17  H   UNL     1      -0.426  12.068  22.980  0.00  0.00    +0.000 HD
ENDBRANCH  10  16
BRANCH  13  18
ATOM     18  O   UNL     1      -1.155  12.199  17.736  0.00  0.00    +0.000 OA
ATOM     19  H   UNL     1      -0.836  13.056  18.071  0.00  0.00    +0.000 HD
ENDBRANCH  13  18
ENDBRANCH   6   7
ENDBRANCH   5   6
ENDBRANCH   3   5
ENDBRANCH   2   3
ENDBRANCH   1   2
BRANCH   1  20
ATOM     20  C   UNL     1       4.655   5.705  17.241  0.00  0.00    +0.000 C 
BRANCH  20  22
ATOM     21  O   UNL     1       5.784   3.699  16.010  0.00  0.00    +0.000 OA
ATOM     22  S   UNL     1       6.028   5.098  16.294  0.00  0.00    +0.000 S 
ATOM     23  O   UNL     1       6.287   6.045  15.222  0.00  0.00    +0.000 OA
BRANCH  22  24
ATOM     24  C   UNL     1       7.378   5.185  17.455  0.00  0.00    +0.000 C 
BRANCH  24  25
ATOM     25  C   UNL     1       7.384   6.561  18.097  0.00  0.00    +0.000 C 
BRANCH  25  26
ATOM     26  N   UNL     1       7.698   7.611  17.116  0.00  0.00    +0.000 NA
ATOM     27  H   UNL     1       6.995   7.607  16.376  0.00  0.00    +0.000 HD
BRANCH  26  28
ATOM     28  C   UNL     1       7.705   8.954  17.728  0.00  0.00    +0.000 C 
BRANCH  28  29
ATOM     29  C   UNL     1       8.946   9.212  18.587  0.00  0.00    +0.000 C 
BRANCH  29  30
ATOM     30  O   UNL     1       8.802  10.406  19.357  0.00  0.00    +0.000 OA
BRANCH  30  31
ATOM     31  C   UNL     1       9.492  11.479  18.851  0.00  0.00    +0.000 A 
ATOM     32  C   UNL     1       9.209  12.710  19.444  0.00  0.00    +0.000 A 
ATOM     33  C   UNL     1       9.841  13.868  18.994  0.00  0.00    +0.000 A 
ATOM     34  C   UNL     1      10.771  13.797  17.958  0.00  0.00    +0.000 A 
ATOM     35  C   UNL     1      11.074  12.569  17.377  0.00  0.00    +0.000 A 
ATOM     36  C   UNL     1      10.439  11.413  17.824  0.00  0.00    +0.000 A 
ENDBRANCH  30  31
ENDBRANCH  29  30
ENDBRANCH  28  29
ENDBRANCH  26  28
ENDBRANCH  25  26
ENDBRANCH  24  25
ENDBRANCH  22  24
ENDBRANCH  20  22
ENDBRANCH   1  20
TORSDOF 16
ENDMDL
MODEL 8
REMARK VINA RESULT:      -6.6      5.267      8.304
REMARK  Name = 
REMARK  16 active torsions:
REMARK  status: ('A' for Active; 'I' for Inactive)
REMARK    1  A    between atoms: S_2  and  C_4
REMARK    2  A    between atoms: S_2  and  C_21
REMARK    3  A    between atoms: C_4  and  C_5
REMARK    4  A    between atoms: C_5  and  C_6
REMARK    5  A    between atoms: C_6  and  N_7
REMARK    6  A    between atoms: N_7  and  C_8
REMARK    7  A    between atoms: C_8  and  C_9
REMARK    8  A    between atoms: C_9  and  C_10
REMARK    9  A    between atoms: C_13  and  O_14
REMARK   10  A    between atoms: C_17  and  O_18
REMARK   11  A    between atoms: C_21  and  C_22
REMARK   12  A    between atoms: C_22  and  N_23
REMARK   13  A    between atoms: N_23  and  C_24
REMARK   14  A    between atoms: C_24  and  C_25
REMARK   15  A    between atoms: C_25  and  O_26
REMARK   16  A    between atoms: O_26  and  C_27
REMARK                            x       y       z     vdW  Elec       q    Type
REMARK                         _______ _______ _______ _____ _____    ______ ____
ROOT
ATOM      1  C   UNL     1       2.309   6.873  19.799  0.00  0.00    +0.000 C 
ENDROOT
BRANCH   1   2
ATOM      2  C   UNL     1       2.588   5.423  19.441  0.00  0.00    +0.000 C 
BRANCH   2   3
ATOM      3  N   UNL     1       2.207   5.156  18.055  0.00  0.00    +0.000 NA
ATOM      4  H   UNL     1       2.642   5.852  17.446  0.00  0.00    +0.000 HD
BRANCH   3   5
ATOM      5  C   UNL     1       2.627   3.819  17.619  0.00  0.00    +0.000 C 
BRANCH   5   6
ATOM      6  C   UNL     1       4.095   3.525  17.956  0.00  0.00    +0.000 C 
BRANCH   6   7
ATOM      7  C   UNL     1       5.049   4.105  16.946  0.00  0.00    +0.000 A 
ATOM      8  C   UNL     1       4.986   3.682  15.608  0.00  0.00    +0.000 A 
ATOM      9  C   UNL     1       5.871   4.166  14.650  0.00  0.00    +0.000 A 
ATOM     10  C   UNL     1       6.850   5.096  15.008  0.00  0.00    +0.000 A 
ATOM     11  C   UNL     1       6.949   5.559  16.341  0.00  0.00    +0.000 A 
ATOM     12  N   UNL     1       7.873   6.473  16.841  0.00  0.00    +0.000 NA
ATOM     13  C   UNL     1       7.656   6.645  18.115  0.00  0.00    +0.000 A 
ATOM     14  S   UNL     1       6.385   5.784  18.819  0.00  0.00    +0.000 S 
ATOM     15  C   UNL     1       6.043   5.055  17.284  0.00  0.00    +0.000 A 
BRANCH  10  16
ATOM     16  O   UNL     1       7.725   5.559  14.052  0.00  0.00    +0.000 OA
ATOM     17  H   UNL     1       7.361   5.373  13.173  0.00  0.00    +0.000 HD
ENDBRANCH  10  16
BRANCH  13  18
ATOM     18  O   UNL     1       8.427   7.473  18.791  0.00  0.00    +0.000 OA
ATOM     19  H   UNL     1       7.877   8.277  18.779  0.00  0.00    +0.000 HD
ENDBRANCH  13  18
ENDBRANCH   6   7
ENDBRANCH   5   6
ENDBRANCH   3   5
ENDBRANCH   2   3
ENDBRANCH   1   2
BRANCH   1  20
ATOM     20  C   UNL     1       1.316   6.927  20.952  0.00  0.00    +0.000 C 
BRANCH  20  22
ATOM     21  O   UNL     1      -0.610   8.604  21.489  0.00  0.00    +0.000 OA
ATOM     22  S   UNL     1       0.825   8.598  21.288  0.00  0.00    +0.000 S 
ATOM     23  O   UNL     1       1.723   9.137  22.296  0.00  0.00    +0.000 OA
BRANCH  22  24
ATOM     24  C   UNL     1       1.155   9.426  19.745  0.00  0.00    +0.000 C 
BRANCH  24  25
ATOM     25  C   UNL     1       0.380  10.731  19.714  0.00  0.00    +0.000 C 
BRANCH  25  26
ATOM     26  N   UNL     1       1.185  11.847  20.233  0.00  0.00    +0.000 NA
ATOM     27  H   UNL     1       2.069  11.895  19.725  0.00  0.00    +0.000 HD
BRANCH  26  28
ATOM     28  C   UNL     1       0.499  13.144  20.073  0.00  0.00    +0.000 C 
BRANCH  28  29
ATOM     29  C   UNL     1       0.116  13.786  21.410  0.00  0.00    +0.000 C 
BRANCH  29  30
ATOM     30  O   UNL     1      -0.168  12.793  22.397  0.00  0.00    +0.000 OA
BRANCH  30  31
ATOM     31  C   UNL     1      -1.345  13.002  23.070  0.00  0.00    +0.000 A 
ATOM     32  C   UNL     1      -1.443  14.218  23.748  0.00  0.00    +0.000 A 
ATOM     33  C   UNL     1      -2.590  14.524  24.478  0.00  0.00    +0.000 A 
ATOM     34  C   UNL     1      -3.650  13.621  24.522  0.00  0.00    +0.000 A 
ATOM     35  C   UNL     1      -3.568  12.416  23.831  0.00  0.00    +0.000 A 
ATOM     36  C   UNL     1      -2.420  12.108  23.105  0.00  0.00    +0.000 A 
ENDBRANCH  30  31
ENDBRANCH  29  30
ENDBRANCH  28  29
ENDBRANCH  26  28
ENDBRANCH  25  26
ENDBRANCH  24  25
ENDBRANCH  22  24
ENDBRANCH  20  22
ENDBRANCH   1  20
TORSDOF 16
ENDMDL
MODEL 9
REMARK VINA RESULT:      -6.6      6.251      9.431
REMARK  Name = 
REMARK  16 active torsions:
REMARK  status: ('A' for Active; 'I' for Inactive)
REMARK    1  A    between atoms: S_2  and  C_4
REMARK    2  A    between atoms: S_2  and  C_21
REMARK    3  A    between atoms: C_4  and  C_5
REMARK    4  A    between atoms: C_5  and  C_6
REMARK    5  A    between atoms: C_6  and  N_7
REMARK    6  A    between atoms: N_7  and  C_8
REMARK    7  A    between atoms: C_8  and  C_9
REMARK    8  A    between atoms: C_9  and  C_10
REMARK    9  A    between atoms: C_13  and  O_14
REMARK   10  A    between atoms: C_17  and  O_18
REMARK   11  A    between atoms: C_21  and  C_22
REMARK   12  A    between atoms: C_22  and  N_23
REMARK   13  A    between atoms: N_23  and  C_24
REMARK   14  A    between atoms: C_24  and  C_25
REMARK   15  A    between atoms: C_25  and  O_26
REMARK   16  A    between atoms: O_26  and  C_27
REMARK                            x       y       z     vdW  Elec       q    Type
REMARK                         _______ _______ _______ _____ _____    ______ ____
ROOT
ATOM      1  C   UNL     1       1.580   3.116  18.321  0.00  0.00    +0.000 C 
ENDROOT
BRANCH   1   2
ATOM      2  C   UNL     1       1.830   4.380  17.516  0.00  0.00    +0.000 C 
BRANCH   2   3
ATOM      3  N   UNL     1       1.611   5.564  18.344  0.00  0.00    +0.000 NA
ATOM      4  H   UNL     1       1.882   5.356  19.308  0.00  0.00    +0.000 HD
BRANCH   3   5
ATOM      5  C   UNL     1       2.391   6.714  17.872  0.00  0.00    +0.000 C 
BRANCH   5   6
ATOM      6  C   UNL     1       2.606   7.768  18.968  0.00  0.00    +0.000 C 
BRANCH   6   7
ATOM      7  C   UNL     1       1.458   8.735  19.076  0.00  0.00    +0.000 A 
ATOM      8  C   UNL     1       0.907   9.293  17.912  0.00  0.00    +0.000 A 
ATOM      9  C   UNL     1      -0.130  10.218  17.968  0.00  0.00    +0.000 A 
ATOM     10  C   UNL     1      -0.652  10.610  19.204  0.00  0.00    +0.000 A 
ATOM     11  C   UNL     1      -0.136  10.069  20.405  0.00  0.00    +0.000 A 
ATOM     12  N   UNL     1      -0.551  10.371  21.701  0.00  0.00    +0.000 NA
ATOM     13  C   UNL     1       0.163   9.682  22.547  0.00  0.00    +0.000 A 
ATOM     14  S   UNL     1       1.341   8.645  21.920  0.00  0.00    +0.000 S 
ATOM     15  C   UNL     1       0.908   9.140  20.316  0.00  0.00    +0.000 A 
BRANCH  10  16
ATOM     16  O   UNL     1      -1.672  11.531  19.246  0.00  0.00    +0.000 OA
ATOM     17  H   UNL     1      -1.300  12.409  19.421  0.00  0.00    +0.000 HD
ENDBRANCH  10  16
BRANCH  13  18
ATOM     18  O   UNL     1      -0.062   9.820  23.838  0.00  0.00    +0.000 OA
ATOM     19  H   UNL     1      -0.326  10.757  23.872  0.00  0.00    +0.000 HD
ENDBRANCH  13  18
ENDBRANCH   6   7
ENDBRANCH   5   6
ENDBRANCH   3   5
ENDBRANCH   2   3
ENDBRANCH   1   2
BRANCH   1  20
ATOM     20  C   UNL     1       2.912   2.538  18.782  0.00  0.00    +0.000 C 
BRANCH  20  22
ATOM     21  O   UNL     1       2.201   3.775  20.968  0.00  0.00    +0.000 OA
ATOM     22  S   UNL     1       3.386   3.212  20.353  0.00  0.00    +0.000 S 
ATOM     23  O   UNL     1       4.186   2.216  21.046  0.00  0.00    +0.000 OA
BRANCH  22  24
ATOM     24  C   UNL     1       4.451   4.566  19.898  0.00  0.00    +0.000 C 
BRANCH  24  25
ATOM     25  C   UNL     1       5.443   4.080  18.856  0.00  0.00    +0.000 C 
BRANCH  25  26
ATOM     26  N   UNL     1       6.775   4.663  19.069  0.00  0.00    +0.000 NA
ATOM     27  H   UNL     1       7.457   3.916  19.204  0.00  0.00    +0.000 HD
BRANCH  26  28
ATOM     28  C   UNL     1       7.214   5.474  17.916  0.00  0.00    +0.000 C 
BRANCH  28  29
ATOM     29  C   UNL     1       6.549   5.053  16.602  0.00  0.00    +0.000 C 
BRANCH  29  30
ATOM     30  O   UNL     1       7.287   5.525  15.474  0.00  0.00    +0.000 OA
BRANCH  30  31
ATOM     31  C   UNL     1       6.968   4.893  14.299  0.00  0.00    +0.000 A 
ATOM     32  C   UNL     1       7.789   5.195  13.212  0.00  0.00    +0.000 A 
ATOM     33  C   UNL     1       7.543   4.620  11.966  0.00  0.00    +0.000 A 
ATOM     34  C   UNL     1       6.483   3.730  11.805  0.00  0.00    +0.000 A 
ATOM     35  C   UNL     1       5.673   3.408  12.890  0.00  0.00    +0.000 A 
ATOM     36  C   UNL     1       5.917   3.985  14.135  0.00  0.00    +0.000 A 
ENDBRANCH  30  31
ENDBRANCH  29  30
ENDBRANCH  28  29
ENDBRANCH  26  28
ENDBRANCH  25  26
ENDBRANCH  24  25
ENDBRANCH  22  24
ENDBRANCH  20  22
ENDBRANCH   1  20
TORSDOF 16
ENDMDL
