MODEL 1
REMARK VINA RESULT:      -7.9      0.000      0.000
REMARK  Name = 
REMARK  8 active torsions:
REMARK  status: ('A' for Active; 'I' for Inactive)
REMARK    1  A    between atoms: C_1  and  O_2
REMARK    2  A    between atoms: O_2  and  C_3
REMARK    3  A    between atoms: C_3  and  C_4
REMARK    4  A    between atoms: C_9  and  C_11
REMARK    5  A    between atoms: C_14  and  O_15
REMARK    6  A    between atoms: O_15  and  C_16
REMARK    7  A    between atoms: N_19  and  C_20
REMARK    8  A    between atoms: C_20  and  C_21
REMARK                            x       y       z     vdW  Elec       q    Type
REMARK                         _______ _______ _______ _____ _____    ______ ____
ROOT
ATOM      1  C   UNL     1       2.529   6.856  19.468  0.00  0.00    +0.000 A 
ATOM      2  C   UNL     1       1.827   7.561  20.450  0.00  0.00    +0.000 A 
ATOM      3  C   UNL     1       1.173   8.761  20.117  0.00  0.00    +0.000 A 
ATOM      4  C   UNL     1       1.262   9.304  18.830  0.00  0.00    +0.000 A 
ATOM      5  C   UNL     1       1.965   8.593  17.857  0.00  0.00    +0.000 A 
ATOM      6  C   UNL     1       2.592   7.387  18.174  0.00  0.00    +0.000 A 
ENDROOT
BRANCH   1  12
ATOM      7  C   UNL     1       2.997   2.262  18.961  0.00  0.00    +0.000 C 
ATOM      8  C   UNL     1       1.517   1.961  19.254  0.00  0.00    +0.000 C 
ATOM      9  C   UNL     1       0.693   3.234  19.458  0.00  0.00    +0.000 C 
ATOM     10  C   UNL     1       1.341   4.178  20.468  0.00  0.00    +0.000 C 
ATOM     11  N   UNL     1       2.743   4.426  20.141  0.00  0.00    +0.000 N 
ATOM     12  C   UNL     1       3.324   5.622  19.712  0.00  0.00    +0.000 C 
ATOM     13  O   UNL     1       4.522   5.710  19.438  0.00  0.00    +0.000 OA
ATOM     14  C   UNL     1       3.558   3.209  20.039  0.00  0.00    +0.000 C 
BRANCH   7  15
ATOM     15  C   UNL     1       3.169   2.825  17.540  0.00  0.00    +0.000 C 
BRANCH  15  17
ATOM     16  C   UNL     1       4.685   4.203  16.377  0.00  0.00    +0.000 C 
ATOM     17  O   UNL     1       4.539   3.134  17.303  0.00  0.00    +0.000 OA
ENDBRANCH  15  17
ENDBRANCH   7  15
ENDBRANCH   1  12
BRANCH   4  18
ATOM     18  O   UNL     1       0.638  10.514  18.640  0.00  0.00    +0.000 OA
BRANCH  18  19
ATOM     19  C   UNL     1       1.260  11.687  19.200  0.00  0.00    +0.000 C 
ATOM     20  C   UNL     1       1.052  11.773  20.710  0.00  0.00    +0.000 C 
ATOM     21  C   UNL     1      -0.405  12.045  21.083  0.00  0.00    +0.000 C 
ATOM     22  N   UNL     1      -1.027  13.166  20.369  0.00  0.00    +0.000 NA
ATOM     23  C   UNL     1      -0.762  13.212  18.934  0.00  0.00    +0.000 C 
ATOM     24  C   UNL     1       0.690  12.950  18.552  0.00  0.00    +0.000 C 
BRANCH  22  25
ATOM     25  C   UNL     1      -2.484  13.254  20.665  0.00  0.00    +0.000 C 
BRANCH  25  26
ATOM     26  C   UNL     1      -2.895  13.397  22.130  0.00  0.00    +0.000 A 
ATOM     27  C   UNL     1      -2.482  14.492  22.891  0.00  0.00    +0.000 A 
ATOM     28  C   UNL     1      -2.907  14.599  24.215  0.00  0.00    +0.000 A 
ATOM     29  C   UNL     1      -3.731  13.617  24.750  0.00  0.00    +0.000 A 
ATOM     30  C   UNL     1      -4.095  12.561  23.934  0.00  0.00    +0.000 A 
ATOM     31  N   UNL     1      -3.691  12.425  22.652  0.00  0.00    +0.000 NA
ENDBRANCH  25  26
ENDBRANCH  22  25
ENDBRANCH  18  19
ENDBRANCH   4  18
TORSDOF 7
ENDMDL
MODEL 2
REMARK VINA RESULT:      -7.8      2.629      9.813
REMARK  Name = 
REMARK  8 active torsions:
REMARK  status: ('A' for Active; 'I' for Inactive)
REMARK    1  A    between atoms: C_1  and  O_2
REMARK    2  A    between atoms: O_2  and  C_3
REMARK    3  A    between atoms: C_3  and  C_4
REMARK    4  A    between atoms: C_9  and  C_11
REMARK    5  A    between atoms: C_14  and  O_15
REMARK    6  A    between atoms: O_15  and  C_16
REMARK    7  A    between atoms: N_19  and  C_20
REMARK    8  A    between atoms: C_20  and  C_21
REMARK                            x       y       z     vdW  Elec       q    Type
REMARK                         _______ _______ _______ _____ _____    ______ ____
ROOT
ATOM      1  C   UNL     1       0.879   9.871  19.277  0.00  0.00    +0.000 A 
ATOM      2  C   UNL     1       0.657   9.182  20.473  0.00  0.00    +0.000 A 
ATOM      3  C   UNL     1       1.335   7.974  20.720  0.00  0.00    +0.000 A 
ATOM      4  C   UNL     1       2.185   7.409  19.761  0.00  0.00    +0.000 A 
ATOM      5  C   UNL     1       2.400   8.104  18.572  0.00  0.00    +0.000 A 
ATOM      6  C   UNL     1       1.752   9.318  18.332  0.00  0.00    +0.000 A 
ENDROOT
BRANCH   1  12
ATOM      7  C   UNL     1      -3.133  12.101  18.560  0.00  0.00    +0.000 C 
ATOM      8  C   UNL     1      -3.819  10.897  17.894  0.00  0.00    +0.000 C 
ATOM      9  C   UNL     1      -2.931   9.650  17.888  0.00  0.00    +0.000 C 
ATOM     10  C   UNL     1      -1.536   9.945  17.342  0.00  0.00    +0.000 C 
ATOM     11  N   UNL     1      -0.936  11.097  18.009  0.00  0.00    +0.000 N 
ATOM     12  C   UNL     1       0.167  11.111  18.867  0.00  0.00    +0.000 C 
ATOM     13  O   UNL     1       0.574  12.147  19.397  0.00  0.00    +0.000 OA
ATOM     14  C   UNL     1      -1.743  12.321  17.933  0.00  0.00    +0.000 C 
BRANCH   7  15
ATOM     15  C   UNL     1      -3.063  11.916  20.086  0.00  0.00    +0.000 C 
BRANCH  15  17
ATOM     16  C   UNL     1      -3.049  13.395  21.920  0.00  0.00    +0.000 C 
ATOM     17  O   UNL     1      -2.438  13.047  20.684  0.00  0.00    +0.000 OA
ENDBRANCH  15  17
ENDBRANCH   7  15
ENDBRANCH   1  12
BRANCH   4  18
ATOM     18  O   UNL     1       2.740   6.193  20.087  0.00  0.00    +0.000 OA
BRANCH  18  19
ATOM     19  C   UNL     1       2.087   5.004  19.600  0.00  0.00    +0.000 C 
ATOM     20  C   UNL     1       2.841   3.739  20.002  0.00  0.00    +0.000 C 
ATOM     21  C   UNL     1       4.186   3.611  19.288  0.00  0.00    +0.000 C 
ATOM     22  N   UNL     1       4.134   3.792  17.833  0.00  0.00    +0.000 NA
ATOM     23  C   UNL     1       3.324   4.917  17.375  0.00  0.00    +0.000 C 
ATOM     24  C   UNL     1       1.977   5.048  18.075  0.00  0.00    +0.000 C 
BRANCH  22  25
ATOM     25  C   UNL     1       5.501   3.819  17.242  0.00  0.00    +0.000 C 
BRANCH  25  26
ATOM     26  C   UNL     1       6.419   4.973  17.648  0.00  0.00    +0.000 A 
ATOM     27  C   UNL     1       6.477   6.146  16.895  0.00  0.00    +0.000 A 
ATOM     28  C   UNL     1       7.304   7.186  17.319  0.00  0.00    +0.000 A 
ATOM     29  C   UNL     1       8.050   7.035  18.480  0.00  0.00    +0.000 A 
ATOM     30  C   UNL     1       7.941   5.842  19.171  0.00  0.00    +0.000 A 
ATOM     31  N   UNL     1       7.158   4.813  18.779  0.00  0.00    +0.000 NA
ENDBRANCH  25  26
ENDBRANCH  22  25
ENDBRANCH  18  19
ENDBRANCH   4  18
TORSDOF 7
ENDMDL
MODEL 3
REMARK VINA RESULT:      -7.7      0.810      1.102
REMARK  Name = 
REMARK  8 active torsions:
REMARK  status: ('A' for Active; 'I' for Inactive)
REMARK    1  A    between atoms: C_1  and  O_2
REMARK    2  A    between atoms: O_2  and  C_3
REMARK    3  A    between atoms: C_3  and  C_4
REMARK    4  A    between atoms: C_9  and  C_11
REMARK    5  A    between atoms: C_14  and  O_15
REMARK    6  A    between atoms: O_15  and  C_16
REMARK    7  A    between atoms: N_19  and  C_20
REMARK    8  A    between atoms: C_20  and  C_21
REMARK                            x       y       z     vdW  Elec       q    Type
REMARK                         _______ _______ _______ _____ _____    ______ ____
ROOT
ATOM      1  C   UNL     1       2.681   6.913  19.335  0.00  0.00    +0.000 A 
ATOM      2  C   UNL     1       1.933   7.504  20.358  0.00  0.00    +0.000 A 
ATOM      3  C   UNL     1       1.223   8.692  20.107  0.00  0.00    +0.000 A 
ATOM      4  C   UNL     1       1.298   9.336  18.866  0.00  0.00    +0.000 A 
ATOM      5  C   UNL     1       2.047   8.738  17.853  0.00  0.00    +0.000 A 
ATOM      6  C   UNL     1       2.732   7.543  18.087  0.00  0.00    +0.000 A 
ENDROOT
BRANCH   1  12
ATOM      7  C   UNL     1       3.737   2.584  18.020  0.00  0.00    +0.000 C 
ATOM      8  C   UNL     1       2.270   2.137  17.899  0.00  0.00    +0.000 C 
ATOM      9  C   UNL     1       1.288   3.281  18.165  0.00  0.00    +0.000 C 
ATOM     10  C   UNL     1       1.605   4.013  19.468  0.00  0.00    +0.000 C 
ATOM     11  N   UNL     1       3.009   4.411  19.527  0.00  0.00    +0.000 N 
ATOM     12  C   UNL     1       3.535   5.705  19.496  0.00  0.00    +0.000 C 
ATOM     13  O   UNL     1       4.748   5.923  19.527  0.00  0.00    +0.000 OA
ATOM     14  C   UNL     1       3.954   3.298  19.367  0.00  0.00    +0.000 C 
BRANCH   7  15
ATOM     15  C   UNL     1       4.142   3.459  16.821  0.00  0.00    +0.000 C 
BRANCH  15  17
ATOM     16  C   UNL     1       5.973   4.547  15.814  0.00  0.00    +0.000 C 
ATOM     17  O   UNL     1       5.473   3.934  16.996  0.00  0.00    +0.000 OA
ENDBRANCH  15  17
ENDBRANCH   7  15
ENDBRANCH   1  12
BRANCH   4  18
ATOM     18  O   UNL     1       0.616  10.525  18.759  0.00  0.00    +0.000 OA
BRANCH  18  19
ATOM     19  C   UNL     1       1.268  11.720  19.232  0.00  0.00    +0.000 C 
ATOM     20  C   UNL     1       1.066  11.921  20.732  0.00  0.00    +0.000 C 
ATOM     21  C   UNL     1      -0.384  12.256  21.084  0.00  0.00    +0.000 C 
ATOM     22  N   UNL     1      -0.979  13.336  20.290  0.00  0.00    +0.000 NA
ATOM     23  C   UNL     1      -0.716  13.271  18.855  0.00  0.00    +0.000 C 
ATOM     24  C   UNL     1       0.728  12.945  18.494  0.00  0.00    +0.000 C 
BRANCH  22  25
ATOM     25  C   UNL     1      -2.433  13.483  20.579  0.00  0.00    +0.000 C 
BRANCH  25  26
ATOM     26  C   UNL     1      -2.846  13.630  22.044  0.00  0.00    +0.000 A 
ATOM     27  C   UNL     1      -3.599  12.643  22.682  0.00  0.00    +0.000 A 
ATOM     28  C   UNL     1      -3.927  12.803  24.029  0.00  0.00    +0.000 A 
ATOM     29  C   UNL     1      -3.498  13.937  24.706  0.00  0.00    +0.000 A 
ATOM     30  C   UNL     1      -2.759  14.871  24.004  0.00  0.00    +0.000 A 
ATOM     31  N   UNL     1      -2.435  14.749  22.698  0.00  0.00    +0.000 NA
ENDBRANCH  25  26
ENDBRANCH  22  25
ENDBRANCH  18  19
ENDBRANCH   4  18
TORSDOF 7
ENDMDL
MODEL 4
REMARK VINA RESULT:      -7.7      2.186      2.677
REMARK  Name = 
REMARK  8 active torsions:
REMARK  status: ('A' for Active; 'I' for Inactive)
REMARK    1  A    between atoms: C_1  and  O_2
REMARK    2  A    between atoms: O_2  and  C_3
REMARK    3  A    between atoms: C_3  and  C_4
REMARK    4  A    between atoms: C_9  and  C_11
REMARK    5  A    between atoms: C_14  and  O_15
REMARK    6  A    between atoms: O_15  and  C_16
REMARK    7  A    between atoms: N_19  and  C_20
REMARK    8  A    between atoms: C_20  and  C_21
REMARK                            x       y       z     vdW  Elec       q    Type
REMARK                         _______ _______ _______ _____ _____    ______ ____
ROOT
ATOM      1  C   UNL     1       2.619   6.749  19.682  0.00  0.00    +0.000 A 
ATOM      2  C   UNL     1       1.923   7.185  20.815  0.00  0.00    +0.000 A 
ATOM      3  C   UNL     1       1.162   8.367  20.756  0.00  0.00    +0.000 A 
ATOM      4  C   UNL     1       1.136   9.158  19.601  0.00  0.00    +0.000 A 
ATOM      5  C   UNL     1       1.833   8.714  18.478  0.00  0.00    +0.000 A 
ATOM      6  C   UNL     1       2.567   7.527  18.520  0.00  0.00    +0.000 A 
ENDROOT
BRANCH   1  12
ATOM      7  C   UNL     1       3.633   2.589  17.880  0.00  0.00    +0.000 C 
ATOM      8  C   UNL     1       2.174   2.102  17.883  0.00  0.00    +0.000 C 
ATOM      9  C   UNL     1       1.199   3.183  18.356  0.00  0.00    +0.000 C 
ATOM     10  C   UNL     1       1.641   3.812  19.676  0.00  0.00    +0.000 C 
ATOM     11  N   UNL     1       3.032   4.254  19.615  0.00  0.00    +0.000 N 
ATOM     12  C   UNL     1       3.517   5.564  19.641  0.00  0.00    +0.000 C 
ATOM     13  O   UNL     1       4.719   5.822  19.557  0.00  0.00    +0.000 OA
ATOM     14  C   UNL     1       3.982   3.194  19.254  0.00  0.00    +0.000 C 
BRANCH   7  15
ATOM     15  C   UNL     1       3.877   3.577  16.727  0.00  0.00    +0.000 C 
BRANCH  15  17
ATOM     16  C   UNL     1       5.565   5.139  16.215  0.00  0.00    +0.000 C 
ATOM     17  O   UNL     1       5.275   3.790  16.558  0.00  0.00    +0.000 OA
ENDBRANCH  15  17
ENDBRANCH   7  15
ENDBRANCH   1  12
BRANCH   4  18
ATOM     18  O   UNL     1       0.413  10.324  19.683  0.00  0.00    +0.000 OA
BRANCH  18  19
ATOM     19  C   UNL     1       0.036  10.970  18.451  0.00  0.00    +0.000 C 
ATOM     20  C   UNL     1       0.017  12.490  18.590  0.00  0.00    +0.000 C 
ATOM     21  C   UNL     1      -1.111  12.978  19.498  0.00  0.00    +0.000 C 
ATOM     22  N   UNL     1      -2.436  12.429  19.188  0.00  0.00    +0.000 NA
ATOM     23  C   UNL     1      -2.467  10.994  18.921  0.00  0.00    +0.000 C 
ATOM     24  C   UNL     1      -1.351  10.499  18.010  0.00  0.00    +0.000 C 
BRANCH  22  25
ATOM     25  C   UNL     1      -3.439  12.822  20.217  0.00  0.00    +0.000 C 
BRANCH  25  26
ATOM     26  C   UNL     1      -4.905  12.505  19.925  0.00  0.00    +0.000 A 
ATOM     27  C   UNL     1      -5.794  12.193  20.955  0.00  0.00    +0.000 A 
ATOM     28  C   UNL     1      -7.131  11.942  20.646  0.00  0.00    +0.000 A 
ATOM     29  C   UNL     1      -7.551  12.007  19.325  0.00  0.00    +0.000 A 
ATOM     30  C   UNL     1      -6.610  12.320  18.360  0.00  0.00    +0.000 A 
ATOM     31  N   UNL     1      -5.308  12.557  18.627  0.00  0.00    +0.000 NA
ENDBRANCH  25  26
ENDBRANCH  22  25
ENDBRANCH  18  19
ENDBRANCH   4  18
TORSDOF 7
ENDMDL
MODEL 5
REMARK VINA RESULT:      -7.7      2.045      3.657
REMARK  Name = 
REMARK  8 active torsions:
REMARK  status: ('A' for Active; 'I' for Inactive)
REMARK    1  A    between atoms: C_1  and  O_2
REMARK    2  A    between atoms: O_2  and  C_3
REMARK    3  A    between atoms: C_3  and  C_4
REMARK    4  A    between atoms: C_9  and  C_11
REMARK    5  A    between atoms: C_14  and  O_15
REMARK    6  A    between atoms: O_15  and  C_16
REMARK    7  A    between atoms: N_19  and  C_20
REMARK    8  A    between atoms: C_20  and  C_21
REMARK                            x       y       z     vdW  Elec       q    Type
REMARK                         _______ _______ _______ _____ _____    ______ ____
ROOT
ATOM      1  C   UNL     1       2.487   6.814  19.545  0.00  0.00    +0.000 A 
ATOM      2  C   UNL     1       1.888   7.573  20.555  0.00  0.00    +0.000 A 
ATOM      3  C   UNL     1       1.298   8.812  20.243  0.00  0.00    +0.000 A 
ATOM      4  C   UNL     1       1.353   9.336  18.946  0.00  0.00    +0.000 A 
ATOM      5  C   UNL     1       1.952   8.572  17.946  0.00  0.00    +0.000 A 
ATOM      6  C   UNL     1       2.515   7.328  18.243  0.00  0.00    +0.000 A 
ENDROOT
BRANCH   1  12
ATOM      7  C   UNL     1       2.801   2.246  18.764  0.00  0.00    +0.000 C 
ATOM      8  C   UNL     1       1.292   1.995  18.930  0.00  0.00    +0.000 C 
ATOM      9  C   UNL     1       0.508   3.289  19.160  0.00  0.00    +0.000 C 
ATOM     10  C   UNL     1       1.119   4.135  20.275  0.00  0.00    +0.000 C 
ATOM     11  N   UNL     1       2.550   4.339  20.066  0.00  0.00    +0.000 N 
ATOM     12  C   UNL     1       3.210   5.532  19.761  0.00  0.00    +0.000 C 
ATOM     13  O   UNL     1       4.428   5.582  19.580  0.00  0.00    +0.000 OA
ATOM     14  C   UNL     1       3.319   3.095  19.940  0.00  0.00    +0.000 C 
BRANCH   7  15
ATOM     15  C   UNL     1       3.101   2.890  17.400  0.00  0.00    +0.000 C 
BRANCH  15  17
ATOM     16  C   UNL     1       4.757   4.198  16.351  0.00  0.00    +0.000 C 
ATOM     17  O   UNL     1       4.495   3.159  17.286  0.00  0.00    +0.000 OA
ENDBRANCH  15  17
ENDBRANCH   7  15
ENDBRANCH   1  12
BRANCH   4  18
ATOM     18  O   UNL     1       0.802  10.584  18.775  0.00  0.00    +0.000 OA
BRANCH  18  19
ATOM     19  C   UNL     1      -0.597  10.749  19.081  0.00  0.00    +0.000 C 
ATOM     20  C   UNL     1      -1.244  11.828  18.216  0.00  0.00    +0.000 C 
ATOM     21  C   UNL     1      -0.734  13.229  18.554  0.00  0.00    +0.000 C 
ATOM     22  N   UNL     1      -0.759  13.568  19.980  0.00  0.00    +0.000 NA
ATOM     23  C   UNL     1      -0.267  12.525  20.876  0.00  0.00    +0.000 C 
ATOM     24  C   UNL     1      -0.775  11.126  20.553  0.00  0.00    +0.000 C 
BRANCH  22  25
ATOM     25  C   UNL     1      -0.093  14.876  20.237  0.00  0.00    +0.000 C 
BRANCH  25  26
ATOM     26  C   UNL     1       1.217  15.154  19.499  0.00  0.00    +0.000 A 
ATOM     27  C   UNL     1       1.316  16.194  18.574  0.00  0.00    +0.000 A 
ATOM     28  C   UNL     1       2.540  16.432  17.947  0.00  0.00    +0.000 A 
ATOM     29  C   UNL     1       3.632  15.633  18.256  0.00  0.00    +0.000 A 
ATOM     30  C   UNL     1       3.454  14.620  19.180  0.00  0.00    +0.000 A 
ATOM     31  N   UNL     1       2.280  14.358  19.795  0.00  0.00    +0.000 NA
ENDBRANCH  25  26
ENDBRANCH  22  25
ENDBRANCH  18  19
ENDBRANCH   4  18
TORSDOF 7
ENDMDL
MODEL 6
REMARK VINA RESULT:      -7.7      2.079      9.926
REMARK  Name = 
REMARK  8 active torsions:
REMARK  status: ('A' for Active; 'I' for Inactive)
REMARK    1  A    between atoms: C_1  and  O_2
REMARK    2  A    between atoms: O_2  and  C_3
REMARK    3  A    between atoms: C_3  and  C_4
REMARK    4  A    between atoms: C_9  and  C_11
REMARK    5  A    between atoms: C_14  and  O_15
REMARK    6  A    between atoms: O_15  and  C_16
REMARK    7  A    between atoms: N_19  and  C_20
REMARK    8  A    between atoms: C_20  and  C_21
REMARK                            x       y       z     vdW  Elec       q    Type
REMARK                         _______ _______ _______ _____ _____    ______ ____
ROOT
ATOM      1  C   UNL     1       1.002   9.441  19.518  0.00  0.00    +0.000 A 
ATOM      2  C   UNL     1       1.886   8.677  18.749  0.00  0.00    +0.000 A 
ATOM      3  C   UNL     1       2.309   7.418  19.215  0.00  0.00    +0.000 A 
ATOM      4  C   UNL     1       1.913   6.937  20.469  0.00  0.00    +0.000 A 
ATOM      5  C   UNL     1       1.032   7.707  21.227  0.00  0.00    +0.000 A 
ATOM      6  C   UNL     1       0.585   8.944  20.758  0.00  0.00    +0.000 A 
ENDROOT
BRANCH   1  12
ATOM      7  C   UNL     1      -2.501  12.422  18.867  0.00  0.00    +0.000 C 
ATOM      8  C   UNL     1      -3.379  11.408  18.115  0.00  0.00    +0.000 C 
ATOM      9  C   UNL     1      -2.740  10.019  18.049  0.00  0.00    +0.000 C 
ATOM     10  C   UNL     1      -1.298  10.078  17.547  0.00  0.00    +0.000 C 
ATOM     11  N   UNL     1      -0.514  11.057  18.295  0.00  0.00    +0.000 N 
ATOM     12  C   UNL     1       0.546  10.815  19.172  0.00  0.00    +0.000 C 
ATOM     13  O   UNL     1       1.123  11.723  19.773  0.00  0.00    +0.000 OA
ATOM     14  C   UNL     1      -1.077  12.413  18.280  0.00  0.00    +0.000 C 
BRANCH   7  15
ATOM     15  C   UNL     1      -2.512  12.140  20.379  0.00  0.00    +0.000 C 
BRANCH  15  17
ATOM     16  C   UNL     1      -2.702  13.846  21.993  0.00  0.00    +0.000 C 
ATOM     17  O   UNL     1      -1.841  13.186  21.073  0.00  0.00    +0.000 OA
ENDBRANCH  15  17
ENDBRANCH   7  15
ENDBRANCH   1  12
BRANCH   4  18
ATOM     18  O   UNL     1       2.442   5.725  20.846  0.00  0.00    +0.000 OA
BRANCH  18  19
ATOM     19  C   UNL     1       1.566   4.581  20.851  0.00  0.00    +0.000 C 
ATOM     20  C   UNL     1       2.288   3.316  21.309  0.00  0.00    +0.000 C 
ATOM     21  C   UNL     1       3.332   2.843  20.297  0.00  0.00    +0.000 C 
ATOM     22  N   UNL     1       2.852   2.743  18.914  0.00  0.00    +0.000 NA
ATOM     23  C   UNL     1       2.045   3.870  18.453  0.00  0.00    +0.000 C 
ATOM     24  C   UNL     1       0.997   4.344  19.452  0.00  0.00    +0.000 C 
BRANCH  22  25
ATOM     25  C   UNL     1       3.967   2.441  17.975  0.00  0.00    +0.000 C 
BRANCH  25  26
ATOM     26  C   UNL     1       4.855   3.607  17.541  0.00  0.00    +0.000 A 
ATOM     27  C   UNL     1       4.744   4.162  16.265  0.00  0.00    +0.000 A 
ATOM     28  C   UNL     1       5.551   5.247  15.922  0.00  0.00    +0.000 A 
ATOM     29  C   UNL     1       6.448   5.752  16.854  0.00  0.00    +0.000 A 
ATOM     30  C   UNL     1       6.502   5.147  18.096  0.00  0.00    +0.000 A 
ATOM     31  N   UNL     1       5.741   4.089  18.454  0.00  0.00    +0.000 NA
ENDBRANCH  25  26
ENDBRANCH  22  25
ENDBRANCH  18  19
ENDBRANCH   4  18
TORSDOF 7
ENDMDL
MODEL 7
REMARK VINA RESULT:      -7.7      2.265      3.147
REMARK  Name = 
REMARK  8 active torsions:
REMARK  status: ('A' for Active; 'I' for Inactive)
REMARK    1  A    between atoms: C_1  and  O_2
REMARK    2  A    between atoms: O_2  and  C_3
REMARK    3  A    between atoms: C_3  and  C_4
REMARK    4  A    between atoms: C_9  and  C_11
REMARK    5  A    between atoms: C_14  and  O_15
REMARK    6  A    between atoms: O_15  and  C_16
REMARK    7  A    between atoms: N_19  and  C_20
REMARK    8  A    between atoms: C_20  and  C_21
REMARK                            x       y       z     vdW  Elec       q    Type
REMARK                         _______ _______ _______ _____ _____    ______ ____
ROOT
ATOM      1  C   UNL     1       2.563   6.752  19.550  0.00  0.00    +0.000 A 
ATOM      2  C   UNL     1       1.886   7.483  20.531  0.00  0.00    +0.000 A 
ATOM      3  C   UNL     1       1.275   8.705  20.195  0.00  0.00    +0.000 A 
ATOM      4  C   UNL     1       1.385   9.242  18.907  0.00  0.00    +0.000 A 
ATOM      5  C   UNL     1       2.063   8.506  17.936  0.00  0.00    +0.000 A 
ATOM      6  C   UNL     1       2.647   7.278  18.255  0.00  0.00    +0.000 A 
ENDROOT
BRANCH   1  12
ATOM      7  C   UNL     1       3.018   2.187  18.817  0.00  0.00    +0.000 C 
ATOM      8  C   UNL     1       1.512   1.898  18.945  0.00  0.00    +0.000 C 
ATOM      9  C   UNL     1       0.689   3.172  19.143  0.00  0.00    +0.000 C 
ATOM     10  C   UNL     1       1.246   4.044  20.266  0.00  0.00    +0.000 C 
ATOM     11  N   UNL     1       2.677   4.283  20.094  0.00  0.00    +0.000 N 
ATOM     12  C   UNL     1       3.313   5.491  19.796  0.00  0.00    +0.000 C 
ATOM     13  O   UNL     1       4.534   5.572  19.647  0.00  0.00    +0.000 OA
ATOM     14  C   UNL     1       3.482   3.059  19.999  0.00  0.00    +0.000 C 
BRANCH   7  15
ATOM     15  C   UNL     1       3.338   2.828  17.456  0.00  0.00    +0.000 C 
BRANCH  15  17
ATOM     16  C   UNL     1       5.053   3.818  16.179  0.00  0.00    +0.000 C 
ATOM     17  O   UNL     1       4.665   3.344  17.463  0.00  0.00    +0.000 OA
ENDBRANCH  15  17
ENDBRANCH   7  15
ENDBRANCH   1  12
BRANCH   4  18
ATOM     18  O   UNL     1       0.805  10.474  18.714  0.00  0.00    +0.000 OA
BRANCH  18  19
ATOM     19  C   UNL     1      -0.288  10.845  19.577  0.00  0.00    +0.000 C 
ATOM     20  C   UNL     1      -1.397  11.562  18.812  0.00  0.00    +0.000 C 
ATOM     21  C   UNL     1      -0.967  12.946  18.324  0.00  0.00    +0.000 C 
ATOM     22  N   UNL     1      -0.353  13.798  19.347  0.00  0.00    +0.000 NA
ATOM     23  C   UNL     1       0.631  13.136  20.199  0.00  0.00    +0.000 C 
ATOM     24  C   UNL     1       0.209  11.760  20.697  0.00  0.00    +0.000 C 
BRANCH  22  25
ATOM     25  C   UNL     1       0.186  15.054  18.753  0.00  0.00    +0.000 C 
BRANCH  25  26
ATOM     26  C   UNL     1      -0.680  16.308  18.858  0.00  0.00    +0.000 A 
ATOM     27  C   UNL     1      -1.540  16.502  19.940  0.00  0.00    +0.000 A 
ATOM     28  C   UNL     1      -2.289  17.677  20.012  0.00  0.00    +0.000 A 
ATOM     29  C   UNL     1      -2.165  18.628  19.008  0.00  0.00    +0.000 A 
ATOM     30  C   UNL     1      -1.295  18.362  17.966  0.00  0.00    +0.000 A 
ATOM     31  N   UNL     1      -0.565  17.231  17.864  0.00  0.00    +0.000 NA
ENDBRANCH  25  26
ENDBRANCH  22  25
ENDBRANCH  18  19
ENDBRANCH   4  18
TORSDOF 7
ENDMDL
MODEL 8
REMARK VINA RESULT:      -7.6      2.270      3.150
REMARK  Name = 
REMARK  8 active torsions:
REMARK  status: ('A' for Active; 'I' for Inactive)
REMARK    1  A    between atoms: C_1  and  O_2
REMARK    2  A    between atoms: O_2  and  C_3
REMARK    3  A    between atoms: C_3  and  C_4
REMARK    4  A    between atoms: C_9  and  C_11
REMARK    5  A    between atoms: C_14  and  O_15
REMARK    6  A    between atoms: O_15  and  C_16
REMARK    7  A    between atoms: N_19  and  C_20
REMARK    8  A    between atoms: C_20  and  C_21
REMARK                            x       y       z     vdW  Elec       q    Type
REMARK                         _______ _______ _______ _____ _____    ______ ____
ROOT
ATOM      1  C   UNL     1       2.821   6.753  19.323  0.00  0.00    +0.000 A 
ATOM      2  C   UNL     1       2.772   7.332  18.051  0.00  0.00    +0.000 A 
ATOM      3  C   UNL     1       2.074   8.538  17.858  0.00  0.00    +0.000 A 
ATOM      4  C   UNL     1       1.367   9.144  18.903  0.00  0.00    +0.000 A 
ATOM      5  C   UNL     1       1.421   8.558  20.168  0.00  0.00    +0.000 A 
ATOM      6  C   UNL     1       2.137   7.377  20.373  0.00  0.00    +0.000 A 
ENDROOT
BRANCH   1  12
ATOM      7  C   UNL     1       2.857   2.132  18.852  0.00  0.00    +0.000 C 
ATOM      8  C   UNL     1       1.333   1.986  19.006  0.00  0.00    +0.000 C 
ATOM      9  C   UNL     1       0.629   3.339  19.135  0.00  0.00    +0.000 C 
ATOM     10  C   UNL     1       1.275   4.219  20.203  0.00  0.00    +0.000 C 
ATOM     11  N   UNL     1       2.719   4.319  20.008  0.00  0.00    +0.000 N 
ATOM     12  C   UNL     1       3.457   5.446  19.637  0.00  0.00    +0.000 C 
ATOM     13  O   UNL     1       4.679   5.408  19.476  0.00  0.00    +0.000 OA
ATOM     14  C   UNL     1       3.411   3.024  19.979  0.00  0.00    +0.000 C 
BRANCH   7  15
ATOM     15  C   UNL     1       3.217   2.663  17.454  0.00  0.00    +0.000 C 
BRANCH  15  17
ATOM     16  C   UNL     1       4.851   4.007  16.418  0.00  0.00    +0.000 C 
ATOM     17  O   UNL     1       4.594   3.025  17.413  0.00  0.00    +0.000 OA
ENDBRANCH  15  17
ENDBRANCH   7  15
ENDBRANCH   1  12
BRANCH   4  18
ATOM     18  O   UNL     1       0.667  10.282  18.580  0.00  0.00    +0.000 OA
BRANCH  18  19
ATOM     19  C   UNL     1      -0.528  10.573  19.332  0.00  0.00    +0.000 C 
ATOM     20  C   UNL     1      -1.455  11.524  18.578  0.00  0.00    +0.000 C 
ATOM     21  C   UNL     1      -0.871  12.932  18.457  0.00  0.00    +0.000 C 
ATOM     22  N   UNL     1      -0.381  13.508  19.714  0.00  0.00    +0.000 NA
ATOM     23  C   UNL     1       0.412  12.606  20.544  0.00  0.00    +0.000 C 
ATOM     24  C   UNL     1      -0.166  11.202  20.678  0.00  0.00    +0.000 C 
BRANCH  22  25
ATOM     25  C   UNL     1       0.320  14.802  19.479  0.00  0.00    +0.000 C 
BRANCH  25  26
ATOM     26  C   UNL     1      -0.548  16.035  19.228  0.00  0.00    +0.000 A 
ATOM     27  C   UNL     1      -0.310  16.873  18.138  0.00  0.00    +0.000 A 
ATOM     28  C   UNL     1      -1.147  17.970  17.928  0.00  0.00    +0.000 A 
ATOM     29  C   UNL     1      -2.197  18.205  18.804  0.00  0.00    +0.000 A 
ATOM     30  C   UNL     1      -2.367  17.331  19.863  0.00  0.00    +0.000 A 
ATOM     31  N   UNL     1      -1.567  16.268  20.098  0.00  0.00    +0.000 NA
ENDBRANCH  25  26
ENDBRANCH  22  25
ENDBRANCH  18  19
ENDBRANCH   4  18
TORSDOF 7
ENDMDL
MODEL 9
REMARK VINA RESULT:      -7.6      2.481     10.018
REMARK  Name = 
REMARK  8 active torsions:
REMARK  status: ('A' for Active; 'I' for Inactive)
REMARK    1  A    between atoms: C_1  and  O_2
REMARK    2  A    between atoms: O_2  and  C_3
REMARK    3  A    between atoms: C_3  and  C_4
REMARK    4  A    between atoms: C_9  and  C_11
REMARK    5  A    between atoms: C_14  and  O_15
REMARK    6  A    between atoms: O_15  and  C_16
REMARK    7  A    between atoms: N_19  and  C_20
REMARK    8  A    between atoms: C_20  and  C_21
REMARK                            x       y       z     vdW  Elec       q    Type
REMARK                         _______ _______ _______ _____ _____    ______ ____
ROOT
ATOM      1  C   UNL     1       0.136   9.901  19.769  0.00  0.00    +0.000 A 
ATOM      2  C   UNL     1       0.193   9.057  20.882  0.00  0.00    +0.000 A 
ATOM      3  C   UNL     1       1.111   7.991  20.905  0.00  0.00    +0.000 A 
ATOM      4  C   UNL     1       1.931   7.715  19.804  0.00  0.00    +0.000 A 
ATOM      5  C   UNL     1       1.867   8.563  18.700  0.00  0.00    +0.000 A 
ATOM      6  C   UNL     1       0.978   9.640  18.682  0.00  0.00    +0.000 A 
ENDROOT
BRANCH   1  12
ATOM      7  C   UNL     1      -0.761  14.459  19.824  0.00  0.00    +0.000 C 
ATOM      8  C   UNL     1       0.060  14.724  21.098  0.00  0.00    +0.000 C 
ATOM      9  C   UNL     1       0.770  13.467  21.606  0.00  0.00    +0.000 C 
ATOM     10  C   UNL     1      -0.184  12.280  21.723  0.00  0.00    +0.000 C 
ATOM     11  N   UNL     1      -0.936  12.078  20.488  0.00  0.00    +0.000 N 
ATOM     12  C   UNL     1      -0.841  11.009  19.593  0.00  0.00    +0.000 C 
ATOM     13  O   UNL     1      -1.512  10.954  18.560  0.00  0.00    +0.000 OA
ATOM     14  C   UNL     1      -1.696  13.255  20.049  0.00  0.00    +0.000 C 
BRANCH   7  15
ATOM     15  C   UNL     1       0.162  14.264  18.610  0.00  0.00    +0.000 C 
BRANCH  15  17
ATOM     16  C   UNL     1       2.473  14.656  18.365  0.00  0.00    +0.000 C 
ATOM     17  O   UNL     1       1.202  15.237  18.629  0.00  0.00    +0.000 OA
ENDBRANCH  15  17
ENDBRANCH   7  15
ENDBRANCH   1  12
BRANCH   4  18
ATOM     18  O   UNL     1       2.740   6.609  19.916  0.00  0.00    +0.000 OA
BRANCH  18  19
ATOM     19  C   UNL     1       2.155   5.319  19.650  0.00  0.00    +0.000 C 
ATOM     20  C   UNL     1       3.004   4.183  20.216  0.00  0.00    +0.000 C 
ATOM     21  C   UNL     1       4.333   4.026  19.478  0.00  0.00    +0.000 C 
ATOM     22  N   UNL     1       4.226   3.967  18.016  0.00  0.00    +0.000 NA
ATOM     23  C   UNL     1       3.328   4.952  17.419  0.00  0.00    +0.000 C 
ATOM     24  C   UNL     1       1.997   5.110  18.143  0.00  0.00    +0.000 C 
BRANCH  22  25
ATOM     25  C   UNL     1       5.570   3.984  17.374  0.00  0.00    +0.000 C 
BRANCH  25  26
ATOM     26  C   UNL     1       6.508   5.134  17.739  0.00  0.00    +0.000 A 
ATOM     27  C   UNL     1       6.505   6.325  17.011  0.00  0.00    +0.000 A 
ATOM     28  C   UNL     1       7.355   7.361  17.398  0.00  0.00    +0.000 A 
ATOM     29  C   UNL     1       8.185   7.189  18.498  0.00  0.00    +0.000 A 
ATOM     30  C   UNL     1       8.133   5.979  19.166  0.00  0.00    +0.000 A 
ATOM     31  N   UNL     1       7.329   4.954  18.809  0.00  0.00    +0.000 NA
ENDBRANCH  25  26
ENDBRANCH  22  25
ENDBRANCH  18  19
ENDBRANCH   4  18
TORSDOF 7
ENDMDL
