MODEL 1
REMARK VINA RESULT:      -6.3      0.000      0.000
REMARK  Name = 
REMARK  7 active torsions:
REMARK  status: ('A' for Active; 'I' for Inactive)
REMARK    1  A    between atoms: C_1  and  N_2
REMARK    2  A    between atoms: C_3  and  C_5
REMARK    3  A    between atoms: C_5  and  C_6
REMARK    4  A    between atoms: C_5  and  N_9
REMARK    5  A    between atoms: C_6  and  S_7
REMARK    6  A    between atoms: S_7  and  C_8
REMARK    7  A    between atoms: C_10  and  C_12
REMARK                            x       y       z     vdW  Elec       q    Type
REMARK                         _______ _______ _______ _____ _____    ______ ____
ROOT
ATOM      1  N   UNL     1       4.999   4.914  16.647  0.00  0.00    +0.000 N 
ATOM      2  C   UNL     1       3.930   5.373  17.387  0.00  0.00    +0.000 C 
ATOM      3  O   UNL     1       3.759   6.557  17.646  0.00  0.00    +0.000 OA
ATOM      4  H   UNL     1       5.043   3.944  16.366  0.00  0.00    +0.000 HD
ENDROOT
BRANCH   2   5
ATOM      5  C   UNL     1       2.974   4.346  17.896  0.00  0.00    +0.000 A 
ATOM      6  C   UNL     1       3.130   3.025  17.452  0.00  0.00    +0.000 A 
ATOM      7  C   UNL     1       2.266   2.025  17.900  0.00  0.00    +0.000 A 
ATOM      8  C   UNL     1       1.248   2.336  18.803  0.00  0.00    +0.000 A 
ATOM      9  C   UNL     1       1.099   3.645  19.262  0.00  0.00    +0.000 A 
ATOM     10  C   UNL     1       1.961   4.652  18.813  0.00  0.00    +0.000 A 
ENDBRANCH   2   5
BRANCH   1  11
ATOM     11  C   UNL     1       5.910   5.857  15.985  0.00  0.00    +0.000 C 
BRANCH  11  14
ATOM     12  C   UNL     1       5.894   3.493  12.988  0.00  0.00    +0.000 C 
ATOM     13  N   UNL     1       5.553   4.264  14.154  0.00  0.00    +0.000 N 
ATOM     14  C   UNL     1       6.440   5.154  14.720  0.00  0.00    +0.000 C 
ATOM     15  O   UNL     1       7.594   5.305  14.317  0.00  0.00    +0.000 OA
ATOM     16  H   UNL     1       4.679   4.072  14.635  0.00  0.00    +0.000 HD
ENDBRANCH  11  14
BRANCH  11  17
ATOM     17  C   UNL     1       7.071   6.239  16.910  0.00  0.00    +0.000 C 
BRANCH  17  18
ATOM     18  S   UNL     1       7.608   4.832  17.950  0.00  0.00    +0.000 S 
ATOM     19  C   UNL     1       7.403   5.596  19.575  0.00  0.00    +0.000 C 
ENDBRANCH  17  18
ENDBRANCH  11  17
ENDBRANCH   1  11
TORSDOF 5
ENDMDL
MODEL 2
REMARK VINA RESULT:      -6.3      2.324      3.581
REMARK  Name = 
REMARK  7 active torsions:
REMARK  status: ('A' for Active; 'I' for Inactive)
REMARK    1  A    between atoms: C_1  and  N_2
REMARK    2  A    between atoms: C_3  and  C_5
REMARK    3  A    between atoms: C_5  and  C_6
REMARK    4  A    between atoms: C_5  and  N_9
REMARK    5  A    between atoms: C_6  and  S_7
REMARK    6  A    between atoms: S_7  and  C_8
REMARK    7  A    between atoms: C_10  and  C_12
REMARK                            x       y       z     vdW  Elec       q    Type
REMARK                         _______ _______ _______ _____ _____    ______ ____
ROOT
ATOM      1  N   UNL     1       4.698   4.004  17.588  0.00  0.00    +0.000 N 
ATOM      2  C   UNL     1       3.943   2.899  17.918  0.00  0.00    +0.000 C 
ATOM      3  O   UNL     1       4.020   1.836  17.318  0.00  0.00    +0.000 OA
ATOM      4  H   UNL     1       4.681   4.826  18.176  0.00  0.00    +0.000 HD
ENDROOT
BRANCH   2   5
ATOM      5  C   UNL     1       2.983   3.055  19.051  0.00  0.00    +0.000 A 
ATOM      6  C   UNL     1       3.390   2.626  20.322  0.00  0.00    +0.000 A 
ATOM      7  C   UNL     1       2.533   2.752  21.415  0.00  0.00    +0.000 A 
ATOM      8  C   UNL     1       1.267   3.317  21.249  0.00  0.00    +0.000 A 
ATOM      9  C   UNL     1       0.863   3.762  19.990  0.00  0.00    +0.000 A 
ATOM     10  C   UNL     1       1.718   3.634  18.889  0.00  0.00    +0.000 A 
ENDBRANCH   2   5
BRANCH   1  11
ATOM     11  C   UNL     1       5.767   3.906  16.586  0.00  0.00    +0.000 C 
BRANCH  11  14
ATOM     12  C   UNL     1       7.669   6.970  17.836  0.00  0.00    +0.000 C 
ATOM     13  N   UNL     1       6.668   6.050  17.365  0.00  0.00    +0.000 N 
ATOM     14  C   UNL     1       6.958   4.724  17.120  0.00  0.00    +0.000 C 
ATOM     15  O   UNL     1       8.091   4.253  17.220  0.00  0.00    +0.000 OA
ATOM     16  H   UNL     1       5.753   6.406  17.107  0.00  0.00    +0.000 HD
ENDBRANCH  11  14
BRANCH  11  17
ATOM     17  C   UNL     1       5.304   4.460  15.233  0.00  0.00    +0.000 C 
BRANCH  17  18
ATOM     18  S   UNL     1       6.633   4.394  13.976  0.00  0.00    +0.000 S 
ATOM     19  C   UNL     1       5.754   3.474  12.693  0.00  0.00    +0.000 C 
ENDBRANCH  17  18
ENDBRANCH  11  17
ENDBRANCH   1  11
TORSDOF 5
ENDMDL
MODEL 3
REMARK VINA RESULT:      -6.3      2.176      3.448
REMARK  Name = 
REMARK  7 active torsions:
REMARK  status: ('A' for Active; 'I' for Inactive)
REMARK    1  A    between atoms: C_1  and  N_2
REMARK    2  A    between atoms: C_3  and  C_5
REMARK    3  A    between atoms: C_5  and  C_6
REMARK    4  A    between atoms: C_5  and  N_9
REMARK    5  A    between atoms: C_6  and  S_7
REMARK    6  A    between atoms: S_7  and  C_8
REMARK    7  A    between atoms: C_10  and  C_12
REMARK                            x       y       z     vdW  Elec       q    Type
REMARK                         _______ _______ _______ _____ _____    ______ ____
ROOT
ATOM      1  N   UNL     1       4.808   4.222  17.314  0.00  0.00    +0.000 N 
ATOM      2  C   UNL     1       4.905   4.108  18.685  0.00  0.00    +0.000 C 
ATOM      3  O   UNL     1       5.975   4.090  19.278  0.00  0.00    +0.000 OA
ATOM      4  H   UNL     1       3.905   4.340  16.877  0.00  0.00    +0.000 HD
ENDROOT
BRANCH   2   5
ATOM      5  C   UNL     1       3.624   3.978  19.441  0.00  0.00    +0.000 A 
ATOM      6  C   UNL     1       3.100   2.692  19.630  0.00  0.00    +0.000 A 
ATOM      7  C   UNL     1       1.907   2.514  20.333  0.00  0.00    +0.000 A 
ATOM      8  C   UNL     1       1.236   3.619  20.860  0.00  0.00    +0.000 A 
ATOM      9  C   UNL     1       1.762   4.900  20.690  0.00  0.00    +0.000 A 
ATOM     10  C   UNL     1       2.956   5.083  19.983  0.00  0.00    +0.000 A 
ENDBRANCH   2   5
BRANCH   1  11
ATOM     11  C   UNL     1       6.000   4.497  16.502  0.00  0.00    +0.000 C 
BRANCH  11  14
ATOM     12  C   UNL     1       7.664   7.787  17.488  0.00  0.00    +0.000 C 
ATOM     13  N   UNL     1       7.318   6.403  17.306  0.00  0.00    +0.000 N 
ATOM     14  C   UNL     1       6.232   6.019  16.548  0.00  0.00    +0.000 C 
ATOM     15  O   UNL     1       5.452   6.821  16.034  0.00  0.00    +0.000 OA
ATOM     16  H   UNL     1       7.821   5.695  17.832  0.00  0.00    +0.000 HD
ENDBRANCH  11  14
BRANCH  11  17
ATOM     17  C   UNL     1       5.797   4.032  15.055  0.00  0.00    +0.000 C 
BRANCH  17  18
ATOM     18  S   UNL     1       7.126   4.634  13.950  0.00  0.00    +0.000 S 
ATOM     19  C   UNL     1       6.605   3.820  12.423  0.00  0.00    +0.000 C 
ENDBRANCH  17  18
ENDBRANCH  11  17
ENDBRANCH   1  11
TORSDOF 5
ENDMDL
MODEL 4
REMARK VINA RESULT:      -6.2      1.437      1.914
REMARK  Name = 
REMARK  7 active torsions:
REMARK  status: ('A' for Active; 'I' for Inactive)
REMARK    1  A    between atoms: C_1  and  N_2
REMARK    2  A    between atoms: C_3  and  C_5
REMARK    3  A    between atoms: C_5  and  C_6
REMARK    4  A    between atoms: C_5  and  N_9
REMARK    5  A    between atoms: C_6  and  S_7
REMARK    6  A    between atoms: S_7  and  C_8
REMARK    7  A    between atoms: C_10  and  C_12
REMARK                            x       y       z     vdW  Elec       q    Type
REMARK                         _______ _______ _______ _____ _____    ______ ____
ROOT
ATOM      1  N   UNL     1       5.123   4.400  17.681  0.00  0.00    +0.000 N 
ATOM      2  C   UNL     1       4.077   5.147  18.179  0.00  0.00    +0.000 C 
ATOM      3  O   UNL     1       4.093   6.370  18.222  0.00  0.00    +0.000 OA
ATOM      4  H   UNL     1       5.023   3.400  17.566  0.00  0.00    +0.000 HD
ENDROOT
BRANCH   2   5
ATOM      5  C   UNL     1       2.899   4.393  18.701  0.00  0.00    +0.000 A 
ATOM      6  C   UNL     1       2.422   4.721  19.978  0.00  0.00    +0.000 A 
ATOM      7  C   UNL     1       1.322   4.049  20.513  0.00  0.00    +0.000 A 
ATOM      8  C   UNL     1       0.685   3.053  19.772  0.00  0.00    +0.000 A 
ATOM      9  C   UNL     1       1.144   2.734  18.494  0.00  0.00    +0.000 A 
ATOM     10  C   UNL     1       2.249   3.403  17.954  0.00  0.00    +0.000 A 
ENDBRANCH   2   5
BRANCH   1  11
ATOM     11  C   UNL     1       6.258   5.052  17.017  0.00  0.00    +0.000 C 
BRANCH  11  14
ATOM     12  C   UNL     1       7.212   4.772  13.332  0.00  0.00    +0.000 C 
ATOM     13  N   UNL     1       7.028   5.201  14.693  0.00  0.00    +0.000 N 
ATOM     14  C   UNL     1       6.393   4.407  15.625  0.00  0.00    +0.000 C 
ATOM     15  O   UNL     1       5.886   3.320  15.349  0.00  0.00    +0.000 OA
ATOM     16  H   UNL     1       7.278   6.151  14.950  0.00  0.00    +0.000 HD
ENDBRANCH  11  14
BRANCH  11  17
ATOM     17  C   UNL     1       7.549   4.860  17.821  0.00  0.00    +0.000 C 
BRANCH  17  18
ATOM     18  S   UNL     1       7.927   6.315  18.865  0.00  0.00    +0.000 S 
ATOM     19  C   UNL     1       7.660   7.613  17.637  0.00  0.00    +0.000 C 
ENDBRANCH  17  18
ENDBRANCH  11  17
ENDBRANCH   1  11
TORSDOF 5
ENDMDL
MODEL 5
REMARK VINA RESULT:      -6.2      2.097      3.469
REMARK  Name = 
REMARK  7 active torsions:
REMARK  status: ('A' for Active; 'I' for Inactive)
REMARK    1  A    between atoms: C_1  and  N_2
REMARK    2  A    between atoms: C_3  and  C_5
REMARK    3  A    between atoms: C_5  and  C_6
REMARK    4  A    between atoms: C_5  and  N_9
REMARK    5  A    between atoms: C_6  and  S_7
REMARK    6  A    between atoms: S_7  and  C_8
REMARK    7  A    between atoms: C_10  and  C_12
REMARK                            x       y       z     vdW  Elec       q    Type
REMARK                         _______ _______ _______ _____ _____    ______ ____
ROOT
ATOM      1  N   UNL     1       5.250   4.356  17.397  0.00  0.00    +0.000 N 
ATOM      2  C   UNL     1       4.938   3.977  18.685  0.00  0.00    +0.000 C 
ATOM      3  O   UNL     1       5.766   3.931  19.585  0.00  0.00    +0.000 OA
ATOM      4  H   UNL     1       4.517   4.483  16.713  0.00  0.00    +0.000 HD
ENDROOT
BRANCH   2   5
ATOM      5  C   UNL     1       3.521   3.589  18.947  0.00  0.00    +0.000 A 
ATOM      6  C   UNL     1       2.556   3.941  17.994  0.00  0.00    +0.000 A 
ATOM      7  C   UNL     1       1.217   3.599  18.188  0.00  0.00    +0.000 A 
ATOM      8  C   UNL     1       0.835   2.893  19.330  0.00  0.00    +0.000 A 
ATOM      9  C   UNL     1       1.794   2.525  20.274  0.00  0.00    +0.000 A 
ATOM     10  C   UNL     1       3.137   2.869  20.086  0.00  0.00    +0.000 A 
ENDBRANCH   2   5
BRANCH   1  11
ATOM     11  C   UNL     1       6.580   4.891  17.077  0.00  0.00    +0.000 C 
BRANCH  11  14
ATOM     12  C   UNL     1       7.774   8.459  17.715  0.00  0.00    +0.000 C 
ATOM     13  N   UNL     1       7.681   7.036  17.525  0.00  0.00    +0.000 N 
ATOM     14  C   UNL     1       6.489   6.424  17.201  0.00  0.00    +0.000 C 
ATOM     15  O   UNL     1       5.421   7.030  17.118  0.00  0.00    +0.000 OA
ATOM     16  H   UNL     1       8.487   6.456  17.735  0.00  0.00    +0.000 HD
ENDBRANCH  11  14
BRANCH  11  17
ATOM     17  C   UNL     1       7.003   4.495  15.657  0.00  0.00    +0.000 C 
BRANCH  17  18
ATOM     18  S   UNL     1       5.572   4.398  14.520  0.00  0.00    +0.000 S 
ATOM     19  C   UNL     1       6.418   3.730  13.069  0.00  0.00    +0.000 C 
ENDBRANCH  17  18
ENDBRANCH  11  17
ENDBRANCH   1  11
TORSDOF 5
ENDMDL
MODEL 6
REMARK VINA RESULT:      -6.2      2.299      3.646
REMARK  Name = 
REMARK  7 active torsions:
REMARK  status: ('A' for Active; 'I' for Inactive)
REMARK    1  A    between atoms: C_1  and  N_2
REMARK    2  A    between atoms: C_3  and  C_5
REMARK    3  A    between atoms: C_5  and  C_6
REMARK    4  A    between atoms: C_5  and  N_9
REMARK    5  A    between atoms: C_6  and  S_7
REMARK    6  A    between atoms: S_7  and  C_8
REMARK    7  A    between atoms: C_10  and  C_12
REMARK                            x       y       z     vdW  Elec       q    Type
REMARK                         _______ _______ _______ _____ _____    ______ ____
ROOT
ATOM      1  N   UNL     1       4.707   4.102  17.445  0.00  0.00    +0.000 N 
ATOM      2  C   UNL     1       4.888   4.014  18.808  0.00  0.00    +0.000 C 
ATOM      3  O   UNL     1       5.989   4.076  19.340  0.00  0.00    +0.000 OA
ATOM      4  H   UNL     1       3.774   4.154  17.058  0.00  0.00    +0.000 HD
ENDROOT
BRANCH   2   5
ATOM      5  C   UNL     1       3.664   3.811  19.638  0.00  0.00    +0.000 A 
ATOM      6  C   UNL     1       2.649   4.775  19.559  0.00  0.00    +0.000 A 
ATOM      7  C   UNL     1       1.482   4.631  20.311  0.00  0.00    +0.000 A 
ATOM      8  C   UNL     1       1.316   3.518  21.137  0.00  0.00    +0.000 A 
ATOM      9  C   UNL     1       2.315   2.546  21.206  0.00  0.00    +0.000 A 
ATOM     10  C   UNL     1       3.489   2.688  20.456  0.00  0.00    +0.000 A 
ENDBRANCH   2   5
BRANCH   1  11
ATOM     11  C   UNL     1       5.830   4.444  16.562  0.00  0.00    +0.000 C 
BRANCH  11  14
ATOM     12  C   UNL     1       7.586   7.685  17.553  0.00  0.00    +0.000 C 
ATOM     13  N   UNL     1       7.230   6.311  17.318  0.00  0.00    +0.000 N 
ATOM     14  C   UNL     1       6.053   5.964  16.690  0.00  0.00    +0.000 C 
ATOM     15  O   UNL     1       5.202   6.786  16.350  0.00  0.00    +0.000 OA
ATOM     16  H   UNL     1       7.808   5.576  17.715  0.00  0.00    +0.000 HD
ENDBRANCH  11  14
BRANCH  11  17
ATOM     17  C   UNL     1       5.519   4.072  15.108  0.00  0.00    +0.000 C 
BRANCH  17  18
ATOM     18  S   UNL     1       6.863   4.570  13.971  0.00  0.00    +0.000 S 
ATOM     19  C   UNL     1       6.373   3.605  12.524  0.00  0.00    +0.000 C 
ENDBRANCH  17  18
ENDBRANCH  11  17
ENDBRANCH   1  11
TORSDOF 5
ENDMDL
MODEL 7
REMARK VINA RESULT:      -6.2      2.097      3.516
REMARK  Name = 
REMARK  7 active torsions:
REMARK  status: ('A' for Active; 'I' for Inactive)
REMARK    1  A    between atoms: C_1  and  N_2
REMARK    2  A    between atoms: C_3  and  C_5
REMARK    3  A    between atoms: C_5  and  C_6
REMARK    4  A    between atoms: C_5  and  N_9
REMARK    5  A    between atoms: C_6  and  S_7
REMARK    6  A    between atoms: S_7  and  C_8
REMARK    7  A    between atoms: C_10  and  C_12
REMARK                            x       y       z     vdW  Elec       q    Type
REMARK                         _______ _______ _______ _____ _____    ______ ____
ROOT
ATOM      1  N   UNL     1       5.174   4.386  17.446  0.00  0.00    +0.000 N 
ATOM      2  C   UNL     1       4.864   3.958  18.719  0.00  0.00    +0.000 C 
ATOM      3  O   UNL     1       5.700   3.842  19.605  0.00  0.00    +0.000 OA
ATOM      4  H   UNL     1       4.438   4.570  16.778  0.00  0.00    +0.000 HD
ENDROOT
BRANCH   2   5
ATOM      5  C   UNL     1       3.437   3.605  18.981  0.00  0.00    +0.000 A 
ATOM      6  C   UNL     1       3.068   3.296  20.297  0.00  0.00    +0.000 A 
ATOM      7  C   UNL     1       1.746   2.964  20.598  0.00  0.00    +0.000 A 
ATOM      8  C   UNL     1       0.783   2.948  19.588  0.00  0.00    +0.000 A 
ATOM      9  C   UNL     1       1.141   3.272  18.279  0.00  0.00    +0.000 A 
ATOM     10  C   UNL     1       2.466   3.602  17.972  0.00  0.00    +0.000 A 
ENDBRANCH   2   5
BRANCH   1  11
ATOM     11  C   UNL     1       6.518   4.890  17.133  0.00  0.00    +0.000 C 
BRANCH  11  14
ATOM     12  C   UNL     1       7.785   8.449  17.677  0.00  0.00    +0.000 C 
ATOM     13  N   UNL     1       7.664   7.024  17.516  0.00  0.00    +0.000 N 
ATOM     14  C   UNL     1       6.455   6.426  17.232  0.00  0.00    +0.000 C 
ATOM     15  O   UNL     1       5.395   7.048  17.163  0.00  0.00    +0.000 OA
ATOM     16  H   UNL     1       8.466   6.434  17.718  0.00  0.00    +0.000 HD
ENDBRANCH  11  14
BRANCH  11  17
ATOM     17  C   UNL     1       6.950   4.463  15.726  0.00  0.00    +0.000 C 
BRANCH  17  18
ATOM     18  S   UNL     1       5.554   4.494  14.543  0.00  0.00    +0.000 S 
ATOM     19  C   UNL     1       6.381   3.748  13.120  0.00  0.00    +0.000 C 
ENDBRANCH  17  18
ENDBRANCH  11  17
ENDBRANCH   1  11
TORSDOF 5
ENDMDL
MODEL 8
REMARK VINA RESULT:      -6.2      2.343      3.633
REMARK  Name = 
REMARK  7 active torsions:
REMARK  status: ('A' for Active; 'I' for Inactive)
REMARK    1  A    between atoms: C_1  and  N_2
REMARK    2  A    between atoms: C_3  and  C_5
REMARK    3  A    between atoms: C_5  and  C_6
REMARK    4  A    between atoms: C_5  and  N_9
REMARK    5  A    between atoms: C_6  and  S_7
REMARK    6  A    between atoms: S_7  and  C_8
REMARK    7  A    between atoms: C_10  and  C_12
REMARK                            x       y       z     vdW  Elec       q    Type
REMARK                         _______ _______ _______ _____ _____    ______ ____
ROOT
ATOM      1  N   UNL     1       4.744   4.053  17.692  0.00  0.00    +0.000 N 
ATOM      2  C   UNL     1       3.950   2.963  17.979  0.00  0.00    +0.000 C 
ATOM      3  O   UNL     1       3.963   1.936  17.312  0.00  0.00    +0.000 OA
ATOM      4  H   UNL     1       4.780   4.837  18.329  0.00  0.00    +0.000 HD
ENDROOT
BRANCH   2   5
ATOM      5  C   UNL     1       3.031   3.089  19.148  0.00  0.00    +0.000 A 
ATOM      6  C   UNL     1       1.770   3.665  18.934  0.00  0.00    +0.000 A 
ATOM      7  C   UNL     1       0.871   3.804  19.991  0.00  0.00    +0.000 A 
ATOM      8  C   UNL     1       1.220   3.358  21.267  0.00  0.00    +0.000 A 
ATOM      9  C   UNL     1       2.466   2.769  21.483  0.00  0.00    +0.000 A 
ATOM     10  C   UNL     1       3.373   2.631  20.426  0.00  0.00    +0.000 A 
ENDBRANCH   2   5
BRANCH   1  11
ATOM     11  C   UNL     1       5.779   3.972  16.653  0.00  0.00    +0.000 C 
BRANCH  11  14
ATOM     12  C   UNL     1       7.614   7.154  17.689  0.00  0.00    +0.000 C 
ATOM     13  N   UNL     1       6.632   6.182  17.289  0.00  0.00    +0.000 N 
ATOM     14  C   UNL     1       6.954   4.851  17.122  0.00  0.00    +0.000 C 
ATOM     15  O   UNL     1       8.099   4.416  17.236  0.00  0.00    +0.000 OA
ATOM     16  H   UNL     1       5.705   6.498  17.021  0.00  0.00    +0.000 HD
ENDBRANCH  11  14
BRANCH  11  17
ATOM     17  C   UNL     1       5.244   4.470  15.306  0.00  0.00    +0.000 C 
BRANCH  17  18
ATOM     18  S   UNL     1       6.487   4.304  13.972  0.00  0.00    +0.000 S 
ATOM     19  C   UNL     1       5.448   3.515  12.723  0.00  0.00    +0.000 C 
ENDBRANCH  17  18
ENDBRANCH  11  17
ENDBRANCH   1  11
TORSDOF 5
ENDMDL
MODEL 9
REMARK VINA RESULT:      -6.1      0.945      1.070
REMARK  Name = 
REMARK  7 active torsions:
REMARK  status: ('A' for Active; 'I' for Inactive)
REMARK    1  A    between atoms: C_1  and  N_2
REMARK    2  A    between atoms: C_3  and  C_5
REMARK    3  A    between atoms: C_5  and  C_6
REMARK    4  A    between atoms: C_5  and  N_9
REMARK    5  A    between atoms: C_6  and  S_7
REMARK    6  A    between atoms: S_7  and  C_8
REMARK    7  A    between atoms: C_10  and  C_12
REMARK                            x       y       z     vdW  Elec       q    Type
REMARK                         _______ _______ _______ _____ _____    ______ ____
ROOT
ATOM      1  N   UNL     1       5.348   4.449  16.991  0.00  0.00    +0.000 N 
ATOM      2  C   UNL     1       4.292   4.960  17.715  0.00  0.00    +0.000 C 
ATOM      3  O   UNL     1       4.258   6.114  18.121  0.00  0.00    +0.000 OA
ATOM      4  H   UNL     1       5.286   3.526  16.585  0.00  0.00    +0.000 HD
ENDROOT
BRANCH   2   5
ATOM      5  C   UNL     1       3.169   4.024  18.018  0.00  0.00    +0.000 A 
ATOM      6  C   UNL     1       3.473   2.666  18.189  0.00  0.00    +0.000 A 
ATOM      7  C   UNL     1       2.462   1.749  18.477  0.00  0.00    +0.000 A 
ATOM      8  C   UNL     1       1.142   2.183  18.607  0.00  0.00    +0.000 A 
ATOM      9  C   UNL     1       0.835   3.536  18.454  0.00  0.00    +0.000 A 
ATOM     10  C   UNL     1       1.846   4.459  18.162  0.00  0.00    +0.000 A 
ENDBRANCH   2   5
BRANCH   1  11
ATOM     11  C   UNL     1       6.428   5.328  16.524  0.00  0.00    +0.000 C 
BRANCH  11  14
ATOM     12  C   UNL     1       5.910   3.594  13.164  0.00  0.00    +0.000 C 
ATOM     13  N   UNL     1       5.791   4.075  14.514  0.00  0.00    +0.000 N 
ATOM     14  C   UNL     1       6.701   4.958  15.053  0.00  0.00    +0.000 C 
ATOM     15  O   UNL     1       7.705   5.342  14.453  0.00  0.00    +0.000 OA
ATOM     16  H   UNL     1       5.079   3.676  15.119  0.00  0.00    +0.000 HD
ENDBRANCH  11  14
BRANCH  11  17
ATOM     17  C   UNL     1       7.694   5.137  17.366  0.00  0.00    +0.000 C 
BRANCH  17  18
ATOM     18  S   UNL     1       7.840   6.404  18.680  0.00  0.00    +0.000 S 
ATOM     19  C   UNL     1       7.732   7.884  17.649  0.00  0.00    +0.000 C 
ENDBRANCH  17  18
ENDBRANCH  11  17
ENDBRANCH   1  11
TORSDOF 5
ENDMDL
