MODEL 1
REMARK VINA RESULT:      -7.8      0.000      0.000
REMARK  Name = 
REMARK  5 active torsions:
REMARK  status: ('A' for Active; 'I' for Inactive)
REMARK    1  A    between atoms: C_1  and  N_2
REMARK    2  A    between atoms: C_4  and  N_5
REMARK    3  A    between atoms: C_6  and  C_8
REMARK    4  A    between atoms: N_15  and  C_16
REMARK    5  A    between atoms: C_21  and  N_22
REMARK                            x       y       z     vdW  Elec       q    Type
REMARK                         _______ _______ _______ _____ _____    ______ ____
ROOT
ATOM      1  C   UNL     1       1.829   5.654  20.075  0.00  0.00    +0.000 A 
ATOM      2  C   UNL     1       0.888   4.913  20.832  0.00  0.00    +0.000 A 
ATOM      3  N   UNL     1       1.070   3.596  20.771  0.00  0.00    +0.000 NA
ATOM      4  N   UNL     1       2.193   3.459  20.037  0.00  0.00    +0.000 N 
ATOM      5  C   UNL     1       2.915   2.293  19.851  0.00  0.00    +0.000 A 
ATOM      6  C   UNL     1       4.053   2.318  19.152  0.00  0.00    +0.000 A 
ATOM      7  C   UNL     1       4.401   3.618  18.474  0.00  0.00    +0.000 A 
ATOM      8  N   UNL     1       5.477   3.558  17.616  0.00  0.00    +0.000 N 
ATOM      9  N   UNL     1       3.722   4.736  18.655  0.00  0.00    +0.000 NA
ATOM     10  C   UNL     1       2.643   4.681  19.509  0.00  0.00    +0.000 A 
ATOM     11  H   UNL     1       6.367   3.457  18.094  0.00  0.00    +0.000 HD
ENDROOT
BRANCH   8  12
ATOM     12  C   UNL     1       5.592   4.360  16.391  0.00  0.00    +0.000 C 
ATOM     13  C   UNL     1       5.314   3.425  15.198  0.00  0.00    +0.000 C 
ATOM     14  C   UNL     1       5.687   4.017  13.843  0.00  0.00    +0.000 C 
ATOM     15  C   UNL     1       7.124   4.512  13.842  0.00  0.00    +0.000 C 
ATOM     16  C   UNL     1       7.294   5.582  14.910  0.00  0.00    +0.000 C 
ATOM     17  C   UNL     1       6.968   5.072  16.322  0.00  0.00    +0.000 C 
BRANCH  17  18
ATOM     18  N   UNL     1       8.096   4.270  16.824  0.00  0.00    +0.000 NA
ATOM     19  H   UNL     1       8.637   3.877  16.060  0.00  0.00    +0.000 HD
ATOM     20  H   UNL     1       7.729   3.507  17.393  0.00  0.00    +0.000 HD
ENDBRANCH  17  18
ENDBRANCH   8  12
BRANCH   1  22
ATOM     21  N   UNL     1       1.003   7.778  20.863  0.00  0.00    +0.000 N 
ATOM     22  C   UNL     1       1.853   7.112  19.996  0.00  0.00    +0.000 C 
ATOM     23  O   UNL     1       2.587   7.659  19.177  0.00  0.00    +0.000 OA
ATOM     24  H   UNL     1       0.445   7.210  21.495  0.00  0.00    +0.000 HD
BRANCH  21  28
ATOM     25  C   UNL     1       0.909  12.614  19.859  0.00  0.00    +0.000 C 
ATOM     26  N   UNL     1       0.804  11.323  20.491  0.00  0.00    +0.000 N 
ATOM     27  C   UNL     1       1.037  10.097  19.936  0.00  0.00    +0.000 A 
ATOM     28  C   UNL     1       0.858   9.165  20.935  0.00  0.00    +0.000 A 
ATOM     29  C   UNL     1       0.483   9.963  22.050  0.00  0.00    +0.000 A 
ATOM     30 CL   UNL     1       0.086   9.463  23.606  0.00  0.00    +0.000 Cl
ATOM     31  N   UNL     1       0.459  11.268  21.782  0.00  0.00    +0.000 NA
ENDBRANCH  21  28
ENDBRANCH   1  22
TORSDOF 4
ENDMDL
MODEL 2
REMARK VINA RESULT:      -7.7      0.955      1.537
REMARK  Name = 
REMARK  5 active torsions:
REMARK  status: ('A' for Active; 'I' for Inactive)
REMARK    1  A    between atoms: C_1  and  N_2
REMARK    2  A    between atoms: C_4  and  N_5
REMARK    3  A    between atoms: C_6  and  C_8
REMARK    4  A    between atoms: N_15  and  C_16
REMARK    5  A    between atoms: C_21  and  N_22
REMARK                            x       y       z     vdW  Elec       q    Type
REMARK                         _______ _______ _______ _____ _____    ______ ____
ROOT
ATOM      1  C   UNL     1       1.966   5.686  20.117  0.00  0.00    +0.000 A 
ATOM      2  C   UNL     1       0.934   4.872  20.646  0.00  0.00    +0.000 A 
ATOM      3  N   UNL     1       1.242   3.578  20.687  0.00  0.00    +0.000 NA
ATOM      4  N   UNL     1       2.521   3.536  20.262  0.00  0.00    +0.000 N 
ATOM      5  C   UNL     1       3.367   2.441  20.310  0.00  0.00    +0.000 A 
ATOM      6  C   UNL     1       4.638   2.564  19.916  0.00  0.00    +0.000 A 
ATOM      7  C   UNL     1       5.029   3.879  19.293  0.00  0.00    +0.000 A 
ATOM      8  N   UNL     1       6.287   3.907  18.733  0.00  0.00    +0.000 N 
ATOM      9  N   UNL     1       4.230   4.929  19.253  0.00  0.00    +0.000 NA
ATOM     10  C   UNL     1       2.980   4.786  19.813  0.00  0.00    +0.000 A 
ATOM     11  H   UNL     1       7.033   3.901  19.422  0.00  0.00    +0.000 HD
ENDROOT
BRANCH   8  12
ATOM     12  C   UNL     1       6.636   4.694  17.544  0.00  0.00    +0.000 C 
ATOM     13  C   UNL     1       6.128   6.131  17.775  0.00  0.00    +0.000 C 
ATOM     14  C   UNL     1       6.135   7.002  16.524  0.00  0.00    +0.000 C 
ATOM     15  C   UNL     1       5.393   6.325  15.383  0.00  0.00    +0.000 C 
ATOM     16  C   UNL     1       6.062   4.996  15.061  0.00  0.00    +0.000 C 
ATOM     17  C   UNL     1       6.079   4.032  16.257  0.00  0.00    +0.000 C 
BRANCH  17  18
ATOM     18  N   UNL     1       4.747   3.423  16.411  0.00  0.00    +0.000 NA
ATOM     19  H   UNL     1       4.014   4.060  16.117  0.00  0.00    +0.000 HD
ATOM     20  H   UNL     1       4.604   3.190  17.395  0.00  0.00    +0.000 HD
ENDBRANCH  17  18
ENDBRANCH   8  12
BRANCH   1  22
ATOM     21  N   UNL     1       1.102   7.784  20.931  0.00  0.00    +0.000 N 
ATOM     22  C   UNL     1       1.881   7.138  19.986  0.00  0.00    +0.000 C 
ATOM     23  O   UNL     1       2.468   7.696  19.062  0.00  0.00    +0.000 OA
ATOM     24  H   UNL     1       0.667   7.209  21.648  0.00  0.00    +0.000 HD
BRANCH  21  28
ATOM     25  C   UNL     1       0.733  12.587  19.833  0.00  0.00    +0.000 C 
ATOM     26  N   UNL     1       0.695  11.303  20.488  0.00  0.00    +0.000 N 
ATOM     27  C   UNL     1       1.011  10.084  19.960  0.00  0.00    +0.000 A 
ATOM     28  C   UNL     1       0.872   9.161  20.975  0.00  0.00    +0.000 A 
ATOM     29  C   UNL     1       0.432   9.955  22.068  0.00  0.00    +0.000 A 
ATOM     30 CL   UNL     1       0.040   9.460  23.627  0.00  0.00    +0.000 Cl
ATOM     31  N   UNL     1       0.333  11.251  21.774  0.00  0.00    +0.000 NA
ENDBRANCH  21  28
ENDBRANCH   1  22
TORSDOF 4
ENDMDL
MODEL 3
REMARK VINA RESULT:      -7.5      2.645      8.483
REMARK  Name = 
REMARK  5 active torsions:
REMARK  status: ('A' for Active; 'I' for Inactive)
REMARK    1  A    between atoms: C_1  and  N_2
REMARK    2  A    between atoms: C_4  and  N_5
REMARK    3  A    between atoms: C_6  and  C_8
REMARK    4  A    between atoms: N_15  and  C_16
REMARK    5  A    between atoms: C_21  and  N_22
REMARK                            x       y       z     vdW  Elec       q    Type
REMARK                         _______ _______ _______ _____ _____    ______ ____
ROOT
ATOM      1  C   UNL     1       2.624   6.999  19.168  0.00  0.00    +0.000 A 
ATOM      2  C   UNL     1       2.381   5.894  20.021  0.00  0.00    +0.000 A 
ATOM      3  N   UNL     1       1.536   6.160  21.013  0.00  0.00    +0.000 NA
ATOM      4  N   UNL     1       1.145   7.428  20.775  0.00  0.00    +0.000 N 
ATOM      5  C   UNL     1       0.117   8.104  21.409  0.00  0.00    +0.000 A 
ATOM      6  C   UNL     1      -0.208   9.340  21.020  0.00  0.00    +0.000 A 
ATOM      7  C   UNL     1       0.686   9.981  19.991  0.00  0.00    +0.000 A 
ATOM      8  N   UNL     1       0.434  11.314  19.749  0.00  0.00    +0.000 N 
ATOM      9  N   UNL     1       1.661   9.339  19.375  0.00  0.00    +0.000 NA
ATOM     10  C   UNL     1       1.851   8.018  19.712  0.00  0.00    +0.000 A 
ATOM     11  H   UNL     1      -0.430  11.473  19.239  0.00  0.00    +0.000 HD
ENDROOT
BRANCH   8  12
ATOM     12  C   UNL     1       1.472  12.293  19.403  0.00  0.00    +0.000 C 
ATOM     13  C   UNL     1       1.983  12.910  20.719  0.00  0.00    +0.000 C 
ATOM     14  C   UNL     1       2.842  14.155  20.530  0.00  0.00    +0.000 C 
ATOM     15  C   UNL     1       2.127  15.186  19.672  0.00  0.00    +0.000 C 
ATOM     16  C   UNL     1       1.822  14.587  18.307  0.00  0.00    +0.000 C 
ATOM     17  C   UNL     1       0.934  13.337  18.390  0.00  0.00    +0.000 C 
BRANCH  17  18
ATOM     18  N   UNL     1      -0.463  13.746  18.618  0.00  0.00    +0.000 NA
ATOM     19  H   UNL     1      -0.587  14.739  18.454  0.00  0.00    +0.000 HD
ATOM     20  H   UNL     1      -0.711  13.538  19.586  0.00  0.00    +0.000 HD
ENDBRANCH  17  18
ENDBRANCH   8  12
BRANCH   1  22
ATOM     21  N   UNL     1       4.420   5.926  17.970  0.00  0.00    +0.000 N 
ATOM     22  C   UNL     1       3.496   6.957  17.998  0.00  0.00    +0.000 C 
ATOM     23  O   UNL     1       3.386   7.822  17.132  0.00  0.00    +0.000 OA
ATOM     24  H   UNL     1       4.410   5.272  18.748  0.00  0.00    +0.000 HD
BRANCH  21  28
ATOM     25  C   UNL     1       6.754   4.448  13.874  0.00  0.00    +0.000 C 
ATOM     26  N   UNL     1       6.401   5.069  15.126  0.00  0.00    +0.000 N 
ATOM     27  C   UNL     1       5.203   5.014  15.780  0.00  0.00    +0.000 A 
ATOM     28  C   UNL     1       5.357   5.717  16.956  0.00  0.00    +0.000 A 
ATOM     29  C   UNL     1       6.699   6.178  16.876  0.00  0.00    +0.000 A 
ATOM     30 CL   UNL     1       7.543   7.130  17.976  0.00  0.00    +0.000 Cl
ATOM     31  N   UNL     1       7.331   5.779  15.773  0.00  0.00    +0.000 NA
ENDBRANCH  21  28
ENDBRANCH   1  22
TORSDOF 4
ENDMDL
MODEL 4
REMARK VINA RESULT:      -7.5      3.944      6.626
REMARK  Name = 
REMARK  5 active torsions:
REMARK  status: ('A' for Active; 'I' for Inactive)
REMARK    1  A    between atoms: C_1  and  N_2
REMARK    2  A    between atoms: C_4  and  N_5
REMARK    3  A    between atoms: C_6  and  C_8
REMARK    4  A    between atoms: N_15  and  C_16
REMARK    5  A    between atoms: C_21  and  N_22
REMARK                            x       y       z     vdW  Elec       q    Type
REMARK                         _______ _______ _______ _____ _____    ______ ____
ROOT
ATOM      1  C   UNL     1      -0.956  10.925  20.126  0.00  0.00    +0.000 A 
ATOM      2  C   UNL     1      -1.392  11.719  21.216  0.00  0.00    +0.000 A 
ATOM      3  N   UNL     1      -0.900  11.332  22.390  0.00  0.00    +0.000 NA
ATOM      4  N   UNL     1      -0.061  10.324  22.073  0.00  0.00    +0.000 N 
ATOM      5  C   UNL     1       0.847   9.714  22.921  0.00  0.00    +0.000 A 
ATOM      6  C   UNL     1       1.668   8.770  22.450  0.00  0.00    +0.000 A 
ATOM      7  C   UNL     1       1.439   8.322  21.030  0.00  0.00    +0.000 A 
ATOM      8  N   UNL     1       2.176   7.227  20.639  0.00  0.00    +0.000 N 
ATOM      9  N   UNL     1       0.581   8.906  20.214  0.00  0.00    +0.000 NA
ATOM     10  C   UNL     1      -0.130   9.975  20.714  0.00  0.00    +0.000 A 
ATOM     11  H   UNL     1       3.164   7.429  20.518  0.00  0.00    +0.000 HD
ENDROOT
BRANCH   8  12
ATOM     12  C   UNL     1       1.697   6.215  19.689  0.00  0.00    +0.000 C 
ATOM     13  C   UNL     1       1.289   4.972  20.503  0.00  0.00    +0.000 C 
ATOM     14  C   UNL     1       1.055   3.724  19.659  0.00  0.00    +0.000 C 
ATOM     15  C   UNL     1       2.251   3.438  18.765  0.00  0.00    +0.000 C 
ATOM     16  C   UNL     1       2.488   4.622  17.839  0.00  0.00    +0.000 C 
ATOM     17  C   UNL     1       2.762   5.928  18.599  0.00  0.00    +0.000 C 
BRANCH  17  18
ATOM     18  N   UNL     1       4.151   5.925  19.089  0.00  0.00    +0.000 NA
ATOM     19  H   UNL     1       4.778   6.364  18.423  0.00  0.00    +0.000 HD
ATOM     20  H   UNL     1       4.446   4.958  19.231  0.00  0.00    +0.000 HD
ENDBRANCH  17  18
ENDBRANCH   8  12
BRANCH   1  22
ATOM     21  N   UNL     1      -2.317  10.317  18.231  0.00  0.00    +0.000 N 
ATOM     22  C   UNL     1      -1.339  11.157  18.737  0.00  0.00    +0.000 C 
ATOM     23  O   UNL     1      -0.779  12.044  18.097  0.00  0.00    +0.000 OA
ATOM     24  H   UNL     1      -2.704   9.621  18.863  0.00  0.00    +0.000 HD
BRANCH  21  28
ATOM     25  C   UNL     1      -2.990   9.701  13.375  0.00  0.00    +0.000 C 
ATOM     26  N   UNL     1      -3.121  10.076  14.761  0.00  0.00    +0.000 N 
ATOM     27  C   UNL     1      -2.321   9.714  15.807  0.00  0.00    +0.000 A 
ATOM     28  C   UNL     1      -2.810  10.355  16.925  0.00  0.00    +0.000 A 
ATOM     29  C   UNL     1      -3.938  11.056  16.421  0.00  0.00    +0.000 A 
ATOM     30 CL   UNL     1      -5.023  12.031  17.260  0.00  0.00    +0.000 Cl
ATOM     31  N   UNL     1      -4.121  10.893  15.111  0.00  0.00    +0.000 NA
ENDBRANCH  21  28
ENDBRANCH   1  22
TORSDOF 4
ENDMDL
MODEL 5
REMARK VINA RESULT:      -7.2      1.553      2.114
REMARK  Name = 
REMARK  5 active torsions:
REMARK  status: ('A' for Active; 'I' for Inactive)
REMARK    1  A    between atoms: C_1  and  N_2
REMARK    2  A    between atoms: C_4  and  N_5
REMARK    3  A    between atoms: C_6  and  C_8
REMARK    4  A    between atoms: N_15  and  C_16
REMARK    5  A    between atoms: C_21  and  N_22
REMARK                            x       y       z     vdW  Elec       q    Type
REMARK                         _______ _______ _______ _____ _____    ______ ____
ROOT
ATOM      1  C   UNL     1       1.966   5.732  20.178  0.00  0.00    +0.000 A 
ATOM      2  C   UNL     1       0.946   4.941  20.762  0.00  0.00    +0.000 A 
ATOM      3  N   UNL     1       1.244   3.646  20.824  0.00  0.00    +0.000 NA
ATOM      4  N   UNL     1       2.507   3.581  20.356  0.00  0.00    +0.000 N 
ATOM      5  C   UNL     1       3.344   2.480  20.402  0.00  0.00    +0.000 A 
ATOM      6  C   UNL     1       4.602   2.580  19.961  0.00  0.00    +0.000 A 
ATOM      7  C   UNL     1       4.982   3.876  19.293  0.00  0.00    +0.000 A 
ATOM      8  N   UNL     1       6.221   3.878  18.690  0.00  0.00    +0.000 N 
ATOM      9  N   UNL     1       4.192   4.932  19.255  0.00  0.00    +0.000 NA
ATOM     10  C   UNL     1       2.961   4.815  19.861  0.00  0.00    +0.000 A 
ATOM     11  H   UNL     1       6.990   3.882  19.352  0.00  0.00    +0.000 HD
ENDROOT
BRANCH   8  12
ATOM     12  C   UNL     1       6.535   4.633  17.470  0.00  0.00    +0.000 C 
ATOM     13  C   UNL     1       6.272   6.122  17.767  0.00  0.00    +0.000 C 
ATOM     14  C   UNL     1       6.255   7.011  16.529  0.00  0.00    +0.000 C 
ATOM     15  C   UNL     1       5.292   6.472  15.484  0.00  0.00    +0.000 C 
ATOM     16  C   UNL     1       5.717   5.068  15.077  0.00  0.00    +0.000 C 
ATOM     17  C   UNL     1       5.737   4.086  16.258  0.00  0.00    +0.000 C 
BRANCH  17  18
ATOM     18  N   UNL     1       4.359   3.672  16.571  0.00  0.00    +0.000 NA
ATOM     19  H   UNL     1       4.240   3.509  17.565  0.00  0.00    +0.000 HD
ATOM     20  H   UNL     1       4.155   2.806  16.070  0.00  0.00    +0.000 HD
ENDBRANCH  17  18
ENDBRANCH   8  12
BRANCH   1  22
ATOM     21  N   UNL     1       0.873   7.814  20.710  0.00  0.00    +0.000 N 
ATOM     22  C   UNL     1       1.890   7.181  20.015  0.00  0.00    +0.000 C 
ATOM     23  O   UNL     1       2.691   7.749  19.276  0.00  0.00    +0.000 OA
ATOM     24  H   UNL     1       0.274   7.232  21.290  0.00  0.00    +0.000 HD
BRANCH  21  28
ATOM     25  C   UNL     1      -0.022  12.522  21.913  0.00  0.00    +0.000 C 
ATOM     26  N   UNL     1       0.221  11.289  21.206  0.00  0.00    +0.000 N 
ATOM     27  C   UNL     1       0.512  10.063  21.734  0.00  0.00    +0.000 A 
ATOM     28  C   UNL     1       0.611   9.186  20.677  0.00  0.00    +0.000 A 
ATOM     29  C   UNL     1       0.388  10.021  19.549  0.00  0.00    +0.000 A 
ATOM     30 CL   UNL     1       0.394   9.601  17.920  0.00  0.00    +0.000 Cl
ATOM     31  N   UNL     1       0.145  11.290  19.871  0.00  0.00    +0.000 NA
ENDBRANCH  21  28
ENDBRANCH   1  22
TORSDOF 4
ENDMDL
MODEL 6
REMARK VINA RESULT:      -7.2      1.343      1.492
REMARK  Name = 
REMARK  5 active torsions:
REMARK  status: ('A' for Active; 'I' for Inactive)
REMARK    1  A    between atoms: C_1  and  N_2
REMARK    2  A    between atoms: C_4  and  N_5
REMARK    3  A    between atoms: C_6  and  C_8
REMARK    4  A    between atoms: N_15  and  C_16
REMARK    5  A    between atoms: C_21  and  N_22
REMARK                            x       y       z     vdW  Elec       q    Type
REMARK                         _______ _______ _______ _____ _____    ______ ____
ROOT
ATOM      1  C   UNL     1       1.969   6.231  19.993  0.00  0.00    +0.000 A 
ATOM      2  C   UNL     1       1.114   5.564  20.905  0.00  0.00    +0.000 A 
ATOM      3  N   UNL     1       1.385   4.269  21.043  0.00  0.00    +0.000 NA
ATOM      4  N   UNL     1       2.484   4.085  20.283  0.00  0.00    +0.000 N 
ATOM      5  C   UNL     1       3.278   2.952  20.247  0.00  0.00    +0.000 A 
ATOM      6  C   UNL     1       4.382   2.936  19.494  0.00  0.00    +0.000 A 
ATOM      7  C   UNL     1       4.610   4.128  18.603  0.00  0.00    +0.000 A 
ATOM      8  N   UNL     1       5.652   3.998  17.711  0.00  0.00    +0.000 N 
ATOM      9  N   UNL     1       3.863   5.216  18.640  0.00  0.00    +0.000 NA
ATOM     10  C   UNL     1       2.826   5.232  19.547  0.00  0.00    +0.000 A 
ATOM     11  H   UNL     1       6.565   4.032  18.153  0.00  0.00    +0.000 HD
ENDROOT
BRANCH   8  12
ATOM     12  C   UNL     1       5.661   4.599  16.371  0.00  0.00    +0.000 C 
ATOM     13  C   UNL     1       5.120   3.543  15.388  0.00  0.00    +0.000 C 
ATOM     14  C   UNL     1       5.343   3.887  13.919  0.00  0.00    +0.000 C 
ATOM     15  C   UNL     1       6.805   4.204  13.650  0.00  0.00    +0.000 C 
ATOM     16  C   UNL     1       7.234   5.388  14.504  0.00  0.00    +0.000 C 
ATOM     17  C   UNL     1       7.073   5.126  16.009  0.00  0.00    +0.000 C 
BRANCH  17  18
ATOM     18  N   UNL     1       8.181   4.276  16.478  0.00  0.00    +0.000 NA
ATOM     19  H   UNL     1       8.879   4.821  16.973  0.00  0.00    +0.000 HD
ATOM     20  H   UNL     1       8.621   3.836  15.669  0.00  0.00    +0.000 HD
ENDBRANCH  17  18
ENDBRANCH   8  12
BRANCH   1  22
ATOM     21  N   UNL     1       1.007   8.392  20.457  0.00  0.00    +0.000 N 
ATOM     22  C   UNL     1       1.889   7.655  19.684  0.00  0.00    +0.000 C 
ATOM     23  O   UNL     1       2.569   8.114  18.769  0.00  0.00    +0.000 OA
ATOM     24  H   UNL     1       0.501   7.896  21.186  0.00  0.00    +0.000 HD
BRANCH  21  28
ATOM     25  C   UNL     1       0.696  13.273  21.158  0.00  0.00    +0.000 C 
ATOM     26  N   UNL     1       0.632  11.939  20.615  0.00  0.00    +0.000 N 
ATOM     27  C   UNL     1       1.097  10.783  21.174  0.00  0.00    +0.000 A 
ATOM     28  C   UNL     1       0.764   9.760  20.313  0.00  0.00    +0.000 A 
ATOM     29  C   UNL     1       0.122  10.441  19.244  0.00  0.00    +0.000 A 
ATOM     30 CL   UNL     1      -0.517   9.796  17.829  0.00  0.00    +0.000 Cl
ATOM     31  N   UNL     1       0.035  11.757  19.432  0.00  0.00    +0.000 NA
ENDBRANCH  21  28
ENDBRANCH   1  22
TORSDOF 4
ENDMDL
MODEL 7
REMARK VINA RESULT:      -7.2      2.619      4.890
REMARK  Name = 
REMARK  5 active torsions:
REMARK  status: ('A' for Active; 'I' for Inactive)
REMARK    1  A    between atoms: C_1  and  N_2
REMARK    2  A    between atoms: C_4  and  N_5
REMARK    3  A    between atoms: C_6  and  C_8
REMARK    4  A    between atoms: N_15  and  C_16
REMARK    5  A    between atoms: C_21  and  N_22
REMARK                            x       y       z     vdW  Elec       q    Type
REMARK                         _______ _______ _______ _____ _____    ______ ____
ROOT
ATOM      1  C   UNL     1       3.781   7.194  17.559  0.00  0.00    +0.000 A 
ATOM      2  C   UNL     1       4.900   7.763  16.902  0.00  0.00    +0.000 A 
ATOM      3  N   UNL     1       5.710   6.864  16.349  0.00  0.00    +0.000 NA
ATOM      4  N   UNL     1       5.084   5.689  16.564  0.00  0.00    +0.000 N 
ATOM      5  C   UNL     1       5.420   4.466  16.011  0.00  0.00    +0.000 A 
ATOM      6  C   UNL     1       4.665   3.391  16.259  0.00  0.00    +0.000 A 
ATOM      7  C   UNL     1       3.560   3.562  17.269  0.00  0.00    +0.000 A 
ATOM      8  N   UNL     1       2.923   2.397  17.636  0.00  0.00    +0.000 N 
ATOM      9  N   UNL     1       3.228   4.727  17.792  0.00  0.00    +0.000 NA
ATOM     10  C   UNL     1       3.948   5.826  17.381  0.00  0.00    +0.000 A 
ATOM     11  H   UNL     1       2.329   2.016  16.906  0.00  0.00    +0.000 HD
ENDROOT
BRANCH   8  12
ATOM     12  C   UNL     1       2.379   2.151  18.978  0.00  0.00    +0.000 C 
ATOM     13  C   UNL     1       1.334   3.247  19.262  0.00  0.00    +0.000 C 
ATOM     14  C   UNL     1       0.892   3.323  20.719  0.00  0.00    +0.000 C 
ATOM     15  C   UNL     1       2.090   3.441  21.647  0.00  0.00    +0.000 C 
ATOM     16  C   UNL     1       2.992   2.228  21.469  0.00  0.00    +0.000 C 
ATOM     17  C   UNL     1       3.515   2.080  20.032  0.00  0.00    +0.000 C 
BRANCH  17  18
ATOM     18  N   UNL     1       4.613   3.037  19.812  0.00  0.00    +0.000 NA
ATOM     19  H   UNL     1       5.511   2.565  19.777  0.00  0.00    +0.000 HD
ATOM     20  H   UNL     1       4.623   3.707  20.581  0.00  0.00    +0.000 HD
ENDBRANCH  17  18
ENDBRANCH   8  12
BRANCH   1  22
ATOM     21  N   UNL     1       2.327   9.117  17.568  0.00  0.00    +0.000 N 
ATOM     22  C   UNL     1       2.738   7.969  18.225  0.00  0.00    +0.000 C 
ATOM     23  O   UNL     1       2.303   7.589  19.309  0.00  0.00    +0.000 OA
ATOM     24  H   UNL     1       2.764   9.323  16.673  0.00  0.00    +0.000 HD
BRANCH  21  28
ATOM     25  C   UNL     1      -1.872  11.196  19.133  0.00  0.00    +0.000 C 
ATOM     26  N   UNL     1      -0.507  10.939  18.748  0.00  0.00    +0.000 N 
ATOM     27  C   UNL     1       0.043   9.753  18.354  0.00  0.00    +0.000 A 
ATOM     28  C   UNL     1       1.360  10.008  18.039  0.00  0.00    +0.000 A 
ATOM     29  C   UNL     1       1.490  11.395  18.319  0.00  0.00    +0.000 A 
ATOM     30 CL   UNL     1       2.858  12.364  18.181  0.00  0.00    +0.000 Cl
ATOM     31  N   UNL     1       0.359  11.958  18.740  0.00  0.00    +0.000 NA
ENDBRANCH  21  28
ENDBRANCH   1  22
TORSDOF 4
ENDMDL
MODEL 8
REMARK VINA RESULT:      -7.1      2.777      8.721
REMARK  Name = 
REMARK  5 active torsions:
REMARK  status: ('A' for Active; 'I' for Inactive)
REMARK    1  A    between atoms: C_1  and  N_2
REMARK    2  A    between atoms: C_4  and  N_5
REMARK    3  A    between atoms: C_6  and  C_8
REMARK    4  A    between atoms: N_15  and  C_16
REMARK    5  A    between atoms: C_21  and  N_22
REMARK                            x       y       z     vdW  Elec       q    Type
REMARK                         _______ _______ _______ _____ _____    ______ ____
ROOT
ATOM      1  C   UNL     1       0.738   9.097  21.127  0.00  0.00    +0.000 A 
ATOM      2  C   UNL     1      -0.084   8.641  22.187  0.00  0.00    +0.000 A 
ATOM      3  N   UNL     1      -0.641   9.622  22.893  0.00  0.00    +0.000 NA
ATOM      4  N   UNL     1      -0.257  10.742  22.248  0.00  0.00    +0.000 N 
ATOM      5  C   UNL     1      -0.735  12.022  22.470  0.00  0.00    +0.000 A 
ATOM      6  C   UNL     1      -0.313  13.033  21.705  0.00  0.00    +0.000 A 
ATOM      7  C   UNL     1       0.791  12.725  20.727  0.00  0.00    +0.000 A 
ATOM      8  N   UNL     1       1.326  13.822  20.089  0.00  0.00    +0.000 N 
ATOM      9  N   UNL     1       1.244  11.506  20.504  0.00  0.00    +0.000 NA
ATOM     10  C   UNL     1       0.663  10.482  21.218  0.00  0.00    +0.000 A 
ATOM     11  H   UNL     1       0.701  14.232  19.402  0.00  0.00    +0.000 HD
ENDROOT
BRANCH   8  12
ATOM     12  C   UNL     1       2.736  13.930  19.690  0.00  0.00    +0.000 C 
ATOM     13  C   UNL     1       3.519  14.471  20.902  0.00  0.00    +0.000 C 
ATOM     14  C   UNL     1       4.936  14.929  20.573  0.00  0.00    +0.000 C 
ATOM     15  C   UNL     1       4.935  15.920  19.421  0.00  0.00    +0.000 C 
ATOM     16  C   UNL     1       4.330  15.265  18.188  0.00  0.00    +0.000 C 
ATOM     17  C   UNL     1       2.886  14.793  18.411  0.00  0.00    +0.000 C 
BRANCH  17  18
ATOM     18  N   UNL     1       1.979  15.952  18.346  0.00  0.00    +0.000 NA
ATOM     19  H   UNL     1       1.442  15.951  17.485  0.00  0.00    +0.000 HD
ATOM     20  H   UNL     1       2.535  16.807  18.386  0.00  0.00    +0.000 HD
ENDBRANCH  17  18
ENDBRANCH   8  12
BRANCH   1  22
ATOM     21  N   UNL     1       1.776   6.967  20.686  0.00  0.00    +0.000 N 
ATOM     22  C   UNL     1       1.443   8.219  20.198  0.00  0.00    +0.000 C 
ATOM     23  O   UNL     1       1.715   8.627  19.071  0.00  0.00    +0.000 OA
ATOM     24  H   UNL     1       1.493   6.748  21.638  0.00  0.00    +0.000 HD
BRANCH  21  28
ATOM     25  C   UNL     1       5.049   4.509  17.919  0.00  0.00    +0.000 C 
ATOM     26  N   UNL     1       3.929   4.881  18.746  0.00  0.00    +0.000 N 
ATOM     27  C   UNL     1       3.675   6.096  19.316  0.00  0.00    +0.000 A 
ATOM     28  C   UNL     1       2.467   5.986  19.971  0.00  0.00    +0.000 A 
ATOM     29  C   UNL     1       2.106   4.630  19.745  0.00  0.00    +0.000 A 
ATOM     30 CL   UNL     1       0.745   3.807  20.292  0.00  0.00    +0.000 Cl
ATOM     31  N   UNL     1       2.987   3.966  18.998  0.00  0.00    +0.000 NA
ENDBRANCH  21  28
ENDBRANCH   1  22
TORSDOF 4
ENDMDL
MODEL 9
REMARK VINA RESULT:      -7.1      6.280     10.745
REMARK  Name = 
REMARK  5 active torsions:
REMARK  status: ('A' for Active; 'I' for Inactive)
REMARK    1  A    between atoms: C_1  and  N_2
REMARK    2  A    between atoms: C_4  and  N_5
REMARK    3  A    between atoms: C_6  and  C_8
REMARK    4  A    between atoms: N_15  and  C_16
REMARK    5  A    between atoms: C_21  and  N_22
REMARK                            x       y       z     vdW  Elec       q    Type
REMARK                         _______ _______ _______ _____ _____    ______ ____
ROOT
ATOM      1  C   UNL     1      -0.437  10.420  19.142  0.00  0.00    +0.000 A 
ATOM      2  C   UNL     1       0.724   9.622  18.998  0.00  0.00    +0.000 A 
ATOM      3  N   UNL     1       1.307   9.313  20.154  0.00  0.00    +0.000 NA
ATOM      4  N   UNL     1       0.483   9.838  21.083  0.00  0.00    +0.000 N 
ATOM      5  C   UNL     1       0.540   9.620  22.449  0.00  0.00    +0.000 A 
ATOM      6  C   UNL     1      -0.390  10.151  23.248  0.00  0.00    +0.000 A 
ATOM      7  C   UNL     1      -1.373  11.095  22.606  0.00  0.00    +0.000 A 
ATOM      8  N   UNL     1      -2.197  11.764  23.484  0.00  0.00    +0.000 N 
ATOM      9  N   UNL     1      -1.439  11.300  21.303  0.00  0.00    +0.000 NA
ATOM     10  C   UNL     1      -0.549  10.605  20.515  0.00  0.00    +0.000 A 
ATOM     11  H   UNL     1      -2.900  11.168  23.909  0.00  0.00    +0.000 HD
ENDROOT
BRANCH   8  12
ATOM     12  C   UNL     1      -2.687  13.131  23.265  0.00  0.00    +0.000 C 
ATOM     13  C   UNL     1      -1.671  14.095  23.907  0.00  0.00    +0.000 C 
ATOM     14  C   UNL     1      -2.171  15.530  24.039  0.00  0.00    +0.000 C 
ATOM     15  C   UNL     1      -3.512  15.576  24.754  0.00  0.00    +0.000 C 
ATOM     16  C   UNL     1      -4.534  14.768  23.968  0.00  0.00    +0.000 C 
ATOM     17  C   UNL     1      -4.132  13.295  23.804  0.00  0.00    +0.000 C 
BRANCH  17  18
ATOM     18  N   UNL     1      -4.401  12.574  25.060  0.00  0.00    +0.000 NA
ATOM     19  H   UNL     1      -4.789  13.193  25.764  0.00  0.00    +0.000 HD
ATOM     20  H   UNL     1      -3.523  12.187  25.411  0.00  0.00    +0.000 HD
ENDBRANCH  17  18
ENDBRANCH   8  12
BRANCH   1  22
ATOM     21  N   UNL     1      -1.911   9.879  17.312  0.00  0.00    +0.000 N 
ATOM     22  C   UNL     1      -1.266  10.874  18.028  0.00  0.00    +0.000 C 
ATOM     23  O   UNL     1      -1.332  12.074  17.775  0.00  0.00    +0.000 OA
ATOM     24  H   UNL     1      -1.776   8.920  17.623  0.00  0.00    +0.000 HD
BRANCH  21  28
ATOM     25  C   UNL     1      -3.891   9.886  12.786  0.00  0.00    +0.000 C 
ATOM     26  N   UNL     1      -3.624  10.093  14.188  0.00  0.00    +0.000 N 
ATOM     27  C   UNL     1      -2.600   9.579  14.931  0.00  0.00    +0.000 A 
ATOM     28  C   UNL     1      -2.730  10.094  16.202  0.00  0.00    +0.000 A 
ATOM     29  C   UNL     1      -3.904  10.888  16.104  0.00  0.00    +0.000 A 
ATOM     30 CL   UNL     1      -4.661  11.787  17.307  0.00  0.00    +0.000 Cl
ATOM     31  N   UNL     1      -4.440  10.892  14.884  0.00  0.00    +0.000 NA
ENDBRANCH  21  28
ENDBRANCH   1  22
TORSDOF 4
ENDMDL
