MODEL 1
REMARK VINA RESULT:      -6.9      0.000      0.000
REMARK  Name = 
REMARK  8 active torsions:
REMARK  status: ('A' for Active; 'I' for Inactive)
REMARK    1  A    between atoms: C_1  and  C_2
REMARK    2  A    between atoms: C_2  and  C_3
REMARK    3  A    between atoms: C_2  and  C_4
REMARK    4  A    between atoms: C_2  and  O_5
REMARK    5  A    between atoms: O_5  and  C_6
REMARK    6  A    between atoms: N_8  and  C_9
REMARK    7  A    between atoms: C_9  and  C_10
REMARK    8  A    between atoms: C_12  and  C_13
REMARK                            x       y       z     vdW  Elec       q    Type
REMARK                         _______ _______ _______ _____ _____    ______ ____
ROOT
ATOM      1  C   UNL     1       5.282   5.411  17.059  0.00  0.00    +0.000 C 
ENDROOT
BRANCH   1   2
ATOM      2  C   UNL     1       6.412   4.648  16.354  0.00  0.00    +0.000 C 
ATOM      3  C   UNL     1       5.999   3.804  15.166  0.00  0.00    +0.000 C 
ATOM      4  C   UNL     1       6.807   4.453  14.119  0.00  0.00    +0.000 C 
ATOM      5  N   UNL     1       7.561   5.440  14.482  0.00  0.00    +0.000 NA
ATOM      6  O   UNL     1       7.369   5.614  15.871  0.00  0.00    +0.000 OA
BRANCH   4   7
ATOM      7  C   UNL     1       6.749   3.950  12.696  0.00  0.00    +0.000 C 
ATOM      8  N   UNL     1       5.964   2.851  12.504  0.00  0.00    +0.000 N 
ATOM      9  O   UNL     1       7.363   4.517  11.806  0.00  0.00    +0.000 OA
ATOM     10  H   UNL     1       5.480   2.428  13.287  0.00  0.00    +0.000 HD
ATOM     11  H   UNL     1       5.884   2.450  11.580  0.00  0.00    +0.000 HD
ENDBRANCH   4   7
ENDBRANCH   1   2
BRANCH   1  14
ATOM     12  C   UNL     1       4.339   3.859  18.712  0.00  0.00    +0.000 C 
ATOM     13  O   UNL     1       5.329   3.913  19.422  0.00  0.00    +0.000 OA
ATOM     14  N   UNL     1       4.206   4.572  17.555  0.00  0.00    +0.000 N 
ATOM     15  H   UNL     1       3.357   4.433  17.024  0.00  0.00    +0.000 HD
BRANCH  12  16
ATOM     16  O   UNL     1       3.223   3.129  18.953  0.00  0.00    +0.000 OA
BRANCH  16  18
ATOM     17  C   UNL     1       2.441   5.037  20.284  0.00  0.00    +0.000 C 
ATOM     18  C   UNL     1       2.367   3.520  20.061  0.00  0.00    +0.000 C 
ATOM     19  C   UNL     1       2.684   2.729  21.340  0.00  0.00    +0.000 C 
ATOM     20  C   UNL     1       0.931   3.172  19.634  0.00  0.00    +0.000 C 
ENDBRANCH  16  18
ENDBRANCH  12  16
ENDBRANCH   1  14
TORSDOF 5
ENDMDL
MODEL 2
REMARK VINA RESULT:      -6.8      2.272      3.645
REMARK  Name = 
REMARK  8 active torsions:
REMARK  status: ('A' for Active; 'I' for Inactive)
REMARK    1  A    between atoms: C_1  and  C_2
REMARK    2  A    between atoms: C_2  and  C_3
REMARK    3  A    between atoms: C_2  and  C_4
REMARK    4  A    between atoms: C_2  and  O_5
REMARK    5  A    between atoms: O_5  and  C_6
REMARK    6  A    between atoms: N_8  and  C_9
REMARK    7  A    between atoms: C_9  and  C_10
REMARK    8  A    between atoms: C_12  and  C_13
REMARK                            x       y       z     vdW  Elec       q    Type
REMARK                         _______ _______ _______ _____ _____    ______ ____
ROOT
ATOM      1  C   UNL     1       4.677   3.735  16.245  0.00  0.00    +0.000 C 
ENDROOT
BRANCH   1   2
ATOM      2  C   UNL     1       5.767   4.810  16.125  0.00  0.00    +0.000 C 
ATOM      3  C   UNL     1       5.900   5.752  17.305  0.00  0.00    +0.000 C 
ATOM      4  C   UNL     1       7.291   5.458  17.689  0.00  0.00    +0.000 C 
ATOM      5  N   UNL     1       7.929   4.586  16.978  0.00  0.00    +0.000 NA
ATOM      6  O   UNL     1       7.037   4.141  15.976  0.00  0.00    +0.000 OA
BRANCH   4   7
ATOM      7  C   UNL     1       7.923   6.179  18.857  0.00  0.00    +0.000 C 
ATOM      8  N   UNL     1       7.995   5.456  20.011  0.00  0.00    +0.000 N 
ATOM      9  O   UNL     1       8.338   7.320  18.737  0.00  0.00    +0.000 OA
ATOM     10  H   UNL     1       7.630   4.511  20.043  0.00  0.00    +0.000 HD
ATOM     11  H   UNL     1       8.394   5.875  20.839  0.00  0.00    +0.000 HD
ENDBRANCH   4   7
ENDBRANCH   1   2
BRANCH   1  14
ATOM     12  C   UNL     1       3.161   2.868  17.971  0.00  0.00    +0.000 C 
ATOM     13  O   UNL     1       2.231   2.761  17.189  0.00  0.00    +0.000 OA
ATOM     14  N   UNL     1       4.401   3.306  17.604  0.00  0.00    +0.000 N 
ATOM     15  H   UNL     1       5.095   3.387  18.335  0.00  0.00    +0.000 HD
BRANCH  12  16
ATOM     16  O   UNL     1       3.136   2.555  19.289  0.00  0.00    +0.000 OA
BRANCH  16  18
ATOM     17  C   UNL     1       2.505   4.827  19.974  0.00  0.00    +0.000 C 
ATOM     18  C   UNL     1       2.265   3.322  20.165  0.00  0.00    +0.000 C 
ATOM     19  C   UNL     1       2.405   2.894  21.634  0.00  0.00    +0.000 C 
ATOM     20  C   UNL     1       0.827   3.010  19.717  0.00  0.00    +0.000 C 
ENDBRANCH  16  18
ENDBRANCH  12  16
ENDBRANCH   1  14
TORSDOF 5
ENDMDL
MODEL 3
REMARK VINA RESULT:      -6.8      2.401      3.761
REMARK  Name = 
REMARK  8 active torsions:
REMARK  status: ('A' for Active; 'I' for Inactive)
REMARK    1  A    between atoms: C_1  and  C_2
REMARK    2  A    between atoms: C_2  and  C_3
REMARK    3  A    between atoms: C_2  and  C_4
REMARK    4  A    between atoms: C_2  and  O_5
REMARK    5  A    between atoms: O_5  and  C_6
REMARK    6  A    between atoms: N_8  and  C_9
REMARK    7  A    between atoms: C_9  and  C_10
REMARK    8  A    between atoms: C_12  and  C_13
REMARK                            x       y       z     vdW  Elec       q    Type
REMARK                         _______ _______ _______ _____ _____    ______ ____
ROOT
ATOM      1  C   UNL     1       4.173   4.350  16.630  0.00  0.00    +0.000 C 
ENDROOT
BRANCH   1   2
ATOM      2  C   UNL     1       5.465   5.131  16.354  0.00  0.00    +0.000 C 
ATOM      3  C   UNL     1       5.869   6.137  17.413  0.00  0.00    +0.000 C 
ATOM      4  C   UNL     1       7.181   5.578  17.786  0.00  0.00    +0.000 C 
ATOM      5  N   UNL     1       7.569   4.514  17.160  0.00  0.00    +0.000 NA
ATOM      6  O   UNL     1       6.546   4.181  16.243  0.00  0.00    +0.000 OA
BRANCH   4   7
ATOM      7  C   UNL     1       8.020   6.255  18.843  0.00  0.00    +0.000 C 
ATOM      8  N   UNL     1       8.348   5.469  19.910  0.00  0.00    +0.000 N 
ATOM      9  O   UNL     1       8.372   7.416  18.714  0.00  0.00    +0.000 OA
ATOM     10  H   UNL     1       8.023   4.511  19.955  0.00  0.00    +0.000 HD
ATOM     11  H   UNL     1       8.899   5.856  20.663  0.00  0.00    +0.000 HD
ENDBRANCH   4   7
ENDBRANCH   1   2
BRANCH   1  14
ATOM     12  C   UNL     1       3.546   2.998  18.581  0.00  0.00    +0.000 C 
ATOM     13  O   UNL     1       3.592   1.954  17.951  0.00  0.00    +0.000 OA
ATOM     14  N   UNL     1       3.839   4.215  18.036  0.00  0.00    +0.000 N 
ATOM     15  H   UNL     1       3.742   5.022  18.637  0.00  0.00    +0.000 HD
BRANCH  12  16
ATOM     16  O   UNL     1       3.235   3.125  19.893  0.00  0.00    +0.000 OA
BRANCH  16  18
ATOM     17  C   UNL     1       0.906   2.841  19.170  0.00  0.00    +0.000 C 
ATOM     18  C   UNL     1       1.850   3.382  20.254  0.00  0.00    +0.000 C 
ATOM     19  C   UNL     1       1.601   4.869  20.552  0.00  0.00    +0.000 C 
ATOM     20  C   UNL     1       1.592   2.591  21.547  0.00  0.00    +0.000 C 
ENDBRANCH  16  18
ENDBRANCH  12  16
ENDBRANCH   1  14
TORSDOF 5
ENDMDL
MODEL 4
REMARK VINA RESULT:      -6.8      2.205      3.479
REMARK  Name = 
REMARK  8 active torsions:
REMARK  status: ('A' for Active; 'I' for Inactive)
REMARK    1  A    between atoms: C_1  and  C_2
REMARK    2  A    between atoms: C_2  and  C_3
REMARK    3  A    between atoms: C_2  and  C_4
REMARK    4  A    between atoms: C_2  and  O_5
REMARK    5  A    between atoms: O_5  and  C_6
REMARK    6  A    between atoms: N_8  and  C_9
REMARK    7  A    between atoms: C_9  and  C_10
REMARK    8  A    between atoms: C_12  and  C_13
REMARK                            x       y       z     vdW  Elec       q    Type
REMARK                         _______ _______ _______ _____ _____    ______ ____
ROOT
ATOM      1  C   UNL     1       4.276   3.898  16.449  0.00  0.00    +0.000 C 
ENDROOT
BRANCH   1   2
ATOM      2  C   UNL     1       5.421   4.753  15.888  0.00  0.00    +0.000 C 
ATOM      3  C   UNL     1       5.593   6.122  16.515  0.00  0.00    +0.000 C 
ATOM      4  C   UNL     1       6.965   5.976  17.033  0.00  0.00    +0.000 C 
ATOM      5  N   UNL     1       7.562   4.850  16.815  0.00  0.00    +0.000 NA
ATOM      6  O   UNL     1       6.656   4.036  16.097  0.00  0.00    +0.000 OA
BRANCH   4   7
ATOM      7  C   UNL     1       7.624   7.121  17.766  0.00  0.00    +0.000 C 
ATOM      8  N   UNL     1       8.227   6.783  18.942  0.00  0.00    +0.000 N 
ATOM      9  O   UNL     1       7.609   8.250  17.303  0.00  0.00    +0.000 OA
ATOM     10  H   UNL     1       8.202   5.825  19.270  0.00  0.00    +0.000 HD
ATOM     11  H   UNL     1       8.679   7.498  19.494  0.00  0.00    +0.000 HD
ENDBRANCH   4   7
ENDBRANCH   1   2
BRANCH   1  14
ATOM     12  C   UNL     1       3.714   3.005  18.666  0.00  0.00    +0.000 C 
ATOM     13  O   UNL     1       3.648   1.858  18.256  0.00  0.00    +0.000 OA
ATOM     14  N   UNL     1       4.040   4.066  17.871  0.00  0.00    +0.000 N 
ATOM     15  H   UNL     1       4.038   4.980  18.303  0.00  0.00    +0.000 HD
BRANCH  12  16
ATOM     16  O   UNL     1       3.510   3.409  19.943  0.00  0.00    +0.000 OA
BRANCH  16  18
ATOM     17  C   UNL     1       1.934   2.793  21.722  0.00  0.00    +0.000 C 
ATOM     18  C   UNL     1       2.141   3.562  20.409  0.00  0.00    +0.000 C 
ATOM     19  C   UNL     1       1.120   3.160  19.334  0.00  0.00    +0.000 C 
ATOM     20  C   UNL     1       1.955   5.060  20.702  0.00  0.00    +0.000 C 
ENDBRANCH  16  18
ENDBRANCH  12  16
ENDBRANCH   1  14
TORSDOF 5
ENDMDL
MODEL 5
REMARK VINA RESULT:      -6.8      1.032      1.582
REMARK  Name = 
REMARK  8 active torsions:
REMARK  status: ('A' for Active; 'I' for Inactive)
REMARK    1  A    between atoms: C_1  and  C_2
REMARK    2  A    between atoms: C_2  and  C_3
REMARK    3  A    between atoms: C_2  and  C_4
REMARK    4  A    between atoms: C_2  and  O_5
REMARK    5  A    between atoms: O_5  and  C_6
REMARK    6  A    between atoms: N_8  and  C_9
REMARK    7  A    between atoms: C_9  and  C_10
REMARK    8  A    between atoms: C_12  and  C_13
REMARK                            x       y       z     vdW  Elec       q    Type
REMARK                         _______ _______ _______ _____ _____    ______ ____
ROOT
ATOM      1  C   UNL     1       5.524   5.236  17.445  0.00  0.00    +0.000 C 
ENDROOT
BRANCH   1   2
ATOM      2  C   UNL     1       6.587   4.559  16.569  0.00  0.00    +0.000 C 
ATOM      3  C   UNL     1       6.062   3.717  15.424  0.00  0.00    +0.000 C 
ATOM      4  C   UNL     1       6.676   4.437  14.295  0.00  0.00    +0.000 C 
ATOM      5  N   UNL     1       7.415   5.461  14.579  0.00  0.00    +0.000 NA
ATOM      6  O   UNL     1       7.409   5.593  15.987  0.00  0.00    +0.000 OA
BRANCH   4   7
ATOM      7  C   UNL     1       6.449   3.962  12.879  0.00  0.00    +0.000 C 
ATOM      8  N   UNL     1       7.372   4.394  11.971  0.00  0.00    +0.000 N 
ATOM      9  O   UNL     1       5.507   3.236  12.606  0.00  0.00    +0.000 OA
ATOM     10  H   UNL     1       8.132   4.996  12.265  0.00  0.00    +0.000 HD
ATOM     11  H   UNL     1       7.280   4.126  11.001  0.00  0.00    +0.000 HD
ENDBRANCH   4   7
ENDBRANCH   1   2
BRANCH   1  14
ATOM     12  C   UNL     1       3.674   3.880  18.321  0.00  0.00    +0.000 C 
ATOM     13  O   UNL     1       2.978   4.082  17.340  0.00  0.00    +0.000 OA
ATOM     14  N   UNL     1       4.940   4.374  18.457  0.00  0.00    +0.000 N 
ATOM     15  H   UNL     1       5.421   4.173  19.323  0.00  0.00    +0.000 HD
BRANCH  12  16
ATOM     16  O   UNL     1       3.336   3.132  19.399  0.00  0.00    +0.000 OA
BRANCH  16  18
ATOM     17  C   UNL     1       0.890   3.040  19.592  0.00  0.00    +0.000 C 
ATOM     18  C   UNL     1       2.201   3.554  20.205  0.00  0.00    +0.000 C 
ATOM     19  C   UNL     1       2.183   5.076  20.420  0.00  0.00    +0.000 C 
ATOM     20  C   UNL     1       2.379   2.884  21.577  0.00  0.00    +0.000 C 
ENDBRANCH  16  18
ENDBRANCH  12  16
ENDBRANCH   1  14
TORSDOF 5
ENDMDL
MODEL 6
REMARK VINA RESULT:      -6.7      1.822      2.304
REMARK  Name = 
REMARK  8 active torsions:
REMARK  status: ('A' for Active; 'I' for Inactive)
REMARK    1  A    between atoms: C_1  and  C_2
REMARK    2  A    between atoms: C_2  and  C_3
REMARK    3  A    between atoms: C_2  and  C_4
REMARK    4  A    between atoms: C_2  and  O_5
REMARK    5  A    between atoms: O_5  and  C_6
REMARK    6  A    between atoms: N_8  and  C_9
REMARK    7  A    between atoms: C_9  and  C_10
REMARK    8  A    between atoms: C_12  and  C_13
REMARK                            x       y       z     vdW  Elec       q    Type
REMARK                         _______ _______ _______ _____ _____    ______ ____
ROOT
ATOM      1  C   UNL     1       6.546   5.468  19.510  0.00  0.00    +0.000 C 
ENDROOT
BRANCH   1   2
ATOM      2  C   UNL     1       7.605   5.479  18.399  0.00  0.00    +0.000 C 
ATOM      3  C   UNL     1       7.423   4.451  17.301  0.00  0.00    +0.000 C 
ATOM      4  C   UNL     1       7.292   5.355  16.146  0.00  0.00    +0.000 C 
ATOM      5  N   UNL     1       7.374   6.625  16.377  0.00  0.00    +0.000 NA
ATOM      6  O   UNL     1       7.576   6.777  17.768  0.00  0.00    +0.000 OA
BRANCH   4   7
ATOM      7  C   UNL     1       7.092   4.789  14.760  0.00  0.00    +0.000 C 
ATOM      8  N   UNL     1       7.700   5.487  13.758  0.00  0.00    +0.000 N 
ATOM      9  O   UNL     1       6.438   3.773  14.587  0.00  0.00    +0.000 OA
ATOM     10  H   UNL     1       8.229   6.325  13.970  0.00  0.00    +0.000 HD
ATOM     11  H   UNL     1       7.602   5.176  12.802  0.00  0.00    +0.000 HD
ENDBRANCH   4   7
ENDBRANCH   1   2
BRANCH   1  14
ATOM     12  C   UNL     1       4.387   4.662  18.663  0.00  0.00    +0.000 C 
ATOM     13  O   UNL     1       4.158   5.705  18.074  0.00  0.00    +0.000 OA
ATOM     14  N   UNL     1       5.535   4.437  19.368  0.00  0.00    +0.000 N 
ATOM     15  H   UNL     1       5.614   3.549  19.846  0.00  0.00    +0.000 HD
BRANCH  12  16
ATOM     16  O   UNL     1       3.585   3.571  18.697  0.00  0.00    +0.000 OA
BRANCH  16  18
ATOM     17  C   UNL     1       1.375   4.187  17.822  0.00  0.00    +0.000 C 
ATOM     18  C   UNL     1       2.186   3.753  19.051  0.00  0.00    +0.000 C 
ATOM     19  C   UNL     1       2.013   4.722  20.232  0.00  0.00    +0.000 C 
ATOM     20  C   UNL     1       1.675   2.372  19.494  0.00  0.00    +0.000 C 
ENDBRANCH  16  18
ENDBRANCH  12  16
ENDBRANCH   1  14
TORSDOF 5
ENDMDL
MODEL 7
REMARK VINA RESULT:      -6.7      1.592      1.929
REMARK  Name = 
REMARK  8 active torsions:
REMARK  status: ('A' for Active; 'I' for Inactive)
REMARK    1  A    between atoms: C_1  and  C_2
REMARK    2  A    between atoms: C_2  and  C_3
REMARK    3  A    between atoms: C_2  and  C_4
REMARK    4  A    between atoms: C_2  and  O_5
REMARK    5  A    between atoms: O_5  and  C_6
REMARK    6  A    between atoms: N_8  and  C_9
REMARK    7  A    between atoms: C_9  and  C_10
REMARK    8  A    between atoms: C_12  and  C_13
REMARK                            x       y       z     vdW  Elec       q    Type
REMARK                         _______ _______ _______ _____ _____    ______ ____
ROOT
ATOM      1  C   UNL     1       5.805   4.777  19.114  0.00  0.00    +0.000 C 
ENDROOT
BRANCH   1   2
ATOM      2  C   UNL     1       6.418   5.669  18.026  0.00  0.00    +0.000 C 
ATOM      3  C   UNL     1       7.272   4.962  16.993  0.00  0.00    +0.000 C 
ATOM      4  C   UNL     1       6.509   5.301  15.779  0.00  0.00    +0.000 C 
ATOM      5  N   UNL     1       5.454   6.034  15.930  0.00  0.00    +0.000 NA
ATOM      6  O   UNL     1       5.338   6.308  17.312  0.00  0.00    +0.000 OA
BRANCH   4   7
ATOM      7  C   UNL     1       6.979   4.814  14.429  0.00  0.00    +0.000 C 
ATOM      8  N   UNL     1       6.343   3.700  13.964  0.00  0.00    +0.000 N 
ATOM      9  O   UNL     1       7.856   5.406  13.821  0.00  0.00    +0.000 OA
ATOM     10  H   UNL     1       5.621   3.257  14.520  0.00  0.00    +0.000 HD
ATOM     11  H   UNL     1       6.610   3.309  13.072  0.00  0.00    +0.000 HD
ENDBRANCH   4   7
ENDBRANCH   1   2
BRANCH   1  14
ATOM     12  C   UNL     1       4.181   2.948  19.332  0.00  0.00    +0.000 C 
ATOM     13  O   UNL     1       4.781   2.444  20.267  0.00  0.00    +0.000 OA
ATOM     14  N   UNL     1       4.583   4.100  18.719  0.00  0.00    +0.000 N 
ATOM     15  H   UNL     1       4.032   4.418  17.933  0.00  0.00    +0.000 HD
BRANCH  12  16
ATOM     16  O   UNL     1       3.037   2.485  18.775  0.00  0.00    +0.000 OA
BRANCH  16  18
ATOM     17  C   UNL     1       1.663   4.343  17.945  0.00  0.00    +0.000 C 
ATOM     18  C   UNL     1       1.809   3.232  18.996  0.00  0.00    +0.000 C 
ATOM     19  C   UNL     1       1.716   3.775  20.430  0.00  0.00    +0.000 C 
ATOM     20  C   UNL     1       0.658   2.232  18.793  0.00  0.00    +0.000 C 
ENDBRANCH  16  18
ENDBRANCH  12  16
ENDBRANCH   1  14
TORSDOF 5
ENDMDL
MODEL 8
REMARK VINA RESULT:      -6.6      0.119      1.051
REMARK  Name = 
REMARK  8 active torsions:
REMARK  status: ('A' for Active; 'I' for Inactive)
REMARK    1  A    between atoms: C_1  and  C_2
REMARK    2  A    between atoms: C_2  and  C_3
REMARK    3  A    between atoms: C_2  and  C_4
REMARK    4  A    between atoms: C_2  and  O_5
REMARK    5  A    between atoms: O_5  and  C_6
REMARK    6  A    between atoms: N_8  and  C_9
REMARK    7  A    between atoms: C_9  and  C_10
REMARK    8  A    between atoms: C_12  and  C_13
REMARK                            x       y       z     vdW  Elec       q    Type
REMARK                         _______ _______ _______ _____ _____    ______ ____
ROOT
ATOM      1  C   UNL     1       5.297   5.303  17.108  0.00  0.00    +0.000 C 
ENDROOT
BRANCH   1   2
ATOM      2  C   UNL     1       6.453   4.604  16.379  0.00  0.00    +0.000 C 
ATOM      3  C   UNL     1       6.067   3.759  15.183  0.00  0.00    +0.000 C 
ATOM      4  C   UNL     1       6.831   4.461  14.137  0.00  0.00    +0.000 C 
ATOM      5  N   UNL     1       7.542   5.476  14.506  0.00  0.00    +0.000 NA
ATOM      6  O   UNL     1       7.358   5.622  15.900  0.00  0.00    +0.000 OA
BRANCH   4   7
ATOM      7  C   UNL     1       6.780   3.976  12.707  0.00  0.00    +0.000 C 
ATOM      8  N   UNL     1       6.019   2.862  12.502  0.00  0.00    +0.000 N 
ATOM      9  O   UNL     1       7.378   4.568  11.824  0.00  0.00    +0.000 OA
ATOM     10  H   UNL     1       5.547   2.417  13.281  0.00  0.00    +0.000 HD
ATOM     11  H   UNL     1       5.946   2.471  11.574  0.00  0.00    +0.000 HD
ENDBRANCH   4   7
ENDBRANCH   1   2
BRANCH   1  14
ATOM     12  C   UNL     1       4.401   3.749  18.784  0.00  0.00    +0.000 C 
ATOM     13  O   UNL     1       5.357   3.900  19.527  0.00  0.00    +0.000 OA
ATOM     14  N   UNL     1       4.264   4.408  17.596  0.00  0.00    +0.000 N 
ATOM     15  H   UNL     1       3.448   4.190  17.041  0.00  0.00    +0.000 HD
BRANCH  12  16
ATOM     16  O   UNL     1       3.331   2.950  19.013  0.00  0.00    +0.000 OA
BRANCH  16  18
ATOM     17  C   UNL     1       2.669   2.753  21.369  0.00  0.00    +0.000 C 
ATOM     18  C   UNL     1       2.351   3.373  20.001  0.00  0.00    +0.000 C 
ATOM     19  C   UNL     1       0.913   3.074  19.548  0.00  0.00    +0.000 C 
ATOM     20  C   UNL     1       2.501   4.898  20.124  0.00  0.00    +0.000 C 
ENDBRANCH  16  18
ENDBRANCH  12  16
ENDBRANCH   1  14
TORSDOF 5
ENDMDL
MODEL 9
REMARK VINA RESULT:      -6.6      0.556      1.149
REMARK  Name = 
REMARK  8 active torsions:
REMARK  status: ('A' for Active; 'I' for Inactive)
REMARK    1  A    between atoms: C_1  and  C_2
REMARK    2  A    between atoms: C_2  and  C_3
REMARK    3  A    between atoms: C_2  and  C_4
REMARK    4  A    between atoms: C_2  and  O_5
REMARK    5  A    between atoms: O_5  and  C_6
REMARK    6  A    between atoms: N_8  and  C_9
REMARK    7  A    between atoms: C_9  and  C_10
REMARK    8  A    between atoms: C_12  and  C_13
REMARK                            x       y       z     vdW  Elec       q    Type
REMARK                         _______ _______ _______ _____ _____    ______ ____
ROOT
ATOM      1  C   UNL     1       5.328   5.210  17.041  0.00  0.00    +0.000 C 
ENDROOT
BRANCH   1   2
ATOM      2  C   UNL     1       6.502   4.559  16.297  0.00  0.00    +0.000 C 
ATOM      3  C   UNL     1       6.134   3.697  15.107  0.00  0.00    +0.000 C 
ATOM      4  C   UNL     1       6.853   4.429  14.049  0.00  0.00    +0.000 C 
ATOM      5  N   UNL     1       7.526   5.474  14.408  0.00  0.00    +0.000 NA
ATOM      6  O   UNL     1       7.356   5.614  15.805  0.00  0.00    +0.000 OA
BRANCH   4   7
ATOM      7  C   UNL     1       6.803   3.941  12.621  0.00  0.00    +0.000 C 
ATOM      8  N   UNL     1       6.089   2.795  12.428  0.00  0.00    +0.000 N 
ATOM      9  O   UNL     1       7.362   4.559  11.729  0.00  0.00    +0.000 OA
ATOM     10  H   UNL     1       5.648   2.331  13.213  0.00  0.00    +0.000 HD
ATOM     11  H   UNL     1       6.019   2.401  11.500  0.00  0.00    +0.000 HD
ENDBRANCH   4   7
ENDBRANCH   1   2
BRANCH   1  14
ATOM     12  C   UNL     1       4.441   4.393  19.181  0.00  0.00    +0.000 C 
ATOM     13  O   UNL     1       4.984   5.281  19.817  0.00  0.00    +0.000 OA
ATOM     14  N   UNL     1       4.524   4.287  17.822  0.00  0.00    +0.000 N 
ATOM     15  H   UNL     1       4.060   3.497  17.394  0.00  0.00    +0.000 HD
BRANCH  12  16
ATOM     16  O   UNL     1       3.664   3.407  19.690  0.00  0.00    +0.000 OA
BRANCH  16  18
ATOM     17  C   UNL     1       1.331   3.145  18.969  0.00  0.00    +0.000 C 
ATOM     18  C   UNL     1       2.284   3.720  20.028  0.00  0.00    +0.000 C 
ATOM     19  C   UNL     1       2.072   5.226  20.243  0.00  0.00    +0.000 C 
ATOM     20  C   UNL     1       2.000   3.007  21.360  0.00  0.00    +0.000 C 
ENDBRANCH  16  18
ENDBRANCH  12  16
ENDBRANCH   1  14
TORSDOF 5
ENDMDL
