MODEL 1
REMARK VINA RESULT:      -7.0      0.000      0.000
REMARK  Name = 
REMARK  15 active torsions:
REMARK  status: ('A' for Active; 'I' for Inactive)
REMARK    1  A    between atoms: C_1  and  O_2
REMARK    2  A    between atoms: O_2  and  C_3
REMARK    3  A    between atoms: C_3  and  C_5
REMARK    4  A    between atoms: C_10  and  C_12
REMARK    5  A    between atoms: C_12  and  C_13
REMARK    6  A    between atoms: C_12  and  N_17
REMARK    7  A    between atoms: C_13  and  C_14
REMARK    8  A    between atoms: C_14  and  C_15
REMARK    9  A    between atoms: C_14  and  C_16
REMARK   10  A    between atoms: N_17  and  C_18
REMARK   11  A    between atoms: C_18  and  C_19
REMARK   12  A    between atoms: C_18  and  C_22
REMARK   13  A    between atoms: C_22  and  N_23
REMARK   14  A    between atoms: C_22  and  C_24
REMARK   15  A    between atoms: C_24  and  C_25
REMARK                            x       y       z     vdW  Elec       q    Type
REMARK                         _______ _______ _______ _____ _____    ______ ____
ROOT
ATOM      1  N   UNL     1       4.896   5.914  18.505  0.00  0.00    +0.000 NA
ATOM      2  H   UNL     1       4.923   6.414  19.396  0.00  0.00    +0.000 HD
ENDROOT
BRANCH   1   3
ATOM      3  C   UNL     1       3.715   4.995  18.534  0.00  0.00    +0.000 C 
BRANCH   3   9
ATOM      4  C   UNL     1       1.805   7.873  18.977  0.00  0.00    +0.000 C 
ATOM      5  C   UNL     1       1.572   8.992  20.033  0.00  0.00    +0.000 C 
ATOM      6  C   UNL     1       1.014   8.244  21.214  0.00  0.00    +0.000 C 
ATOM      7  C   UNL     1       1.840   6.971  21.206  0.00  0.00    +0.000 C 
ATOM      8  N   UNL     1       2.377   6.788  19.834  0.00  0.00    +0.000 N 
ATOM      9  C   UNL     1       2.547   5.431  19.478  0.00  0.00    +0.000 C 
ATOM     10  O   UNL     1       1.979   4.541  20.122  0.00  0.00    +0.000 OA
BRANCH   4  11
ATOM     11  C   UNL     1       2.298   8.669  17.749  0.00  0.00    +0.000 C 
ATOM     12  O   UNL     1       3.257   8.280  17.084  0.00  0.00    +0.000 OA
BRANCH  11  14
ATOM     13  C   UNL     1       2.463  10.977  17.758  0.00  0.00    +0.000 C 
ATOM     14  O   UNL     1       1.647   9.824  17.484  0.00  0.00    +0.000 OA
ENDBRANCH  11  14
ENDBRANCH   4  11
ENDBRANCH   3   9
BRANCH   3  15
ATOM     15  C   UNL     1       4.141   3.573  18.841  0.00  0.00    +0.000 C 
BRANCH  15  16
ATOM     16  C   UNL     1       3.591   2.434  18.000  0.00  0.00    +0.000 C 
ATOM     17  C   UNL     1       2.561   1.626  18.797  0.00  0.00    +0.000 C 
ATOM     18  C   UNL     1       2.961   3.137  16.791  0.00  0.00    +0.000 C 
ENDBRANCH  15  16
ENDBRANCH   3  15
ENDBRANCH   1   3
BRANCH   1  19
ATOM     19  C   UNL     1       6.231   5.146  18.402  0.00  0.00    +0.000 C 
BRANCH  19  20
ATOM     20  C   UNL     1       7.296   5.731  19.353  0.00  0.00    +0.000 C 
ATOM     21  N   UNL     1       8.111   6.720  18.889  0.00  0.00    +0.000 N 
ATOM     22  O   UNL     1       7.495   5.321  20.491  0.00  0.00    +0.000 OA
ATOM     23  H   UNL     1       8.843   6.985  19.531  0.00  0.00    +0.000 HD
ATOM     24  H   UNL     1       7.756   7.466  18.316  0.00  0.00    +0.000 HD
ENDBRANCH  19  20
BRANCH  19  25
ATOM     25  C   UNL     1       6.827   5.266  16.960  0.00  0.00    +0.000 C 
BRANCH  25  26
ATOM     26  N   UNL     1       7.832   4.206  16.682  0.00  0.00    +0.000 NA
ATOM     27  H   UNL     1       8.743   4.657  16.528  0.00  0.00    +0.000 HD
ATOM     28  H   UNL     1       7.607   3.813  15.766  0.00  0.00    +0.000 HD
ENDBRANCH  25  26
BRANCH  25  29
ATOM     29  C   UNL     1       5.720   5.260  15.858  0.00  0.00    +0.000 C 
BRANCH  29  30
ATOM     30  C   UNL     1       6.258   4.731  14.544  0.00  0.00    +0.000 A 
ATOM     31  C   UNL     1       7.356   5.366  13.948  0.00  0.00    +0.000 A 
ATOM     32  C   UNL     1       7.722   5.068  12.638  0.00  0.00    +0.000 A 
ATOM     33  C   UNL     1       7.002   4.121  11.913  0.00  0.00    +0.000 A 
ATOM     34  C   UNL     1       5.961   3.424  12.521  0.00  0.00    +0.000 A 
ATOM     35  C   UNL     1       5.615   3.700  13.845  0.00  0.00    +0.000 A 
ENDBRANCH  29  30
ENDBRANCH  25  29
ENDBRANCH  19  25
ENDBRANCH   1  19
TORSDOF 12
ENDMDL
MODEL 2
REMARK VINA RESULT:      -7.0      1.520      2.019
REMARK  Name = 
REMARK  15 active torsions:
REMARK  status: ('A' for Active; 'I' for Inactive)
REMARK    1  A    between atoms: C_1  and  O_2
REMARK    2  A    between atoms: O_2  and  C_3
REMARK    3  A    between atoms: C_3  and  C_5
REMARK    4  A    between atoms: C_10  and  C_12
REMARK    5  A    between atoms: C_12  and  C_13
REMARK    6  A    between atoms: C_12  and  N_17
REMARK    7  A    between atoms: C_13  and  C_14
REMARK    8  A    between atoms: C_14  and  C_15
REMARK    9  A    between atoms: C_14  and  C_16
REMARK   10  A    between atoms: N_17  and  C_18
REMARK   11  A    between atoms: C_18  and  C_19
REMARK   12  A    between atoms: C_18  and  C_22
REMARK   13  A    between atoms: C_22  and  N_23
REMARK   14  A    between atoms: C_22  and  C_24
REMARK   15  A    between atoms: C_24  and  C_25
REMARK                            x       y       z     vdW  Elec       q    Type
REMARK                         _______ _______ _______ _____ _____    ______ ____
ROOT
ATOM      1  N   UNL     1       3.840   6.526  18.481  0.00  0.00    +0.000 NA
ATOM      2  H   UNL     1       4.208   6.970  19.325  0.00  0.00    +0.000 HD
ENDROOT
BRANCH   1   3
ATOM      3  C   UNL     1       2.516   5.919  18.824  0.00  0.00    +0.000 C 
BRANCH   3   9
ATOM      4  C   UNL     1       0.922   8.940  19.503  0.00  0.00    +0.000 C 
ATOM      5  C   UNL     1       1.105  10.206  20.390  0.00  0.00    +0.000 C 
ATOM      6  C   UNL     1       1.024   9.662  21.791  0.00  0.00    +0.000 C 
ATOM      7  C   UNL     1       1.781   8.353  21.671  0.00  0.00    +0.000 C 
ATOM      8  N   UNL     1       1.767   7.952  20.242  0.00  0.00    +0.000 N 
ATOM      9  C   UNL     1       1.786   6.551  20.055  0.00  0.00    +0.000 C 
ATOM     10  O   UNL     1       1.495   5.793  20.989  0.00  0.00    +0.000 OA
BRANCH   4  11
ATOM     11  C   UNL     1       0.926   9.530  18.075  0.00  0.00    +0.000 C 
ATOM     12  O   UNL     1       1.954   9.991  17.583  0.00  0.00    +0.000 OA
BRANCH  11  14
ATOM     13  C   UNL     1      -1.160  10.525  17.979  0.00  0.00    +0.000 C 
ATOM     14  O   UNL     1      -0.262   9.544  17.431  0.00  0.00    +0.000 OA
ENDBRANCH  11  14
ENDBRANCH   4  11
ENDBRANCH   3   9
BRANCH   3  15
ATOM     15  C   UNL     1       2.634   4.418  18.993  0.00  0.00    +0.000 C 
BRANCH  15  16
ATOM     16  C   UNL     1       1.757   3.504  18.153  0.00  0.00    +0.000 C 
ATOM     17  C   UNL     1       2.615   2.485  17.395  0.00  0.00    +0.000 C 
ATOM     18  C   UNL     1       0.835   2.832  19.178  0.00  0.00    +0.000 C 
ENDBRANCH  15  16
ENDBRANCH   3  15
ENDBRANCH   1   3
BRANCH   1  19
ATOM     19  C   UNL     1       4.879   5.463  18.065  0.00  0.00    +0.000 C 
BRANCH  19  20
ATOM     20  C   UNL     1       6.303   5.861  18.507  0.00  0.00    +0.000 C 
ATOM     21  N   UNL     1       6.919   5.117  19.469  0.00  0.00    +0.000 N 
ATOM     22  O   UNL     1       6.899   6.846  18.085  0.00  0.00    +0.000 OA
ATOM     23  H   UNL     1       7.804   5.492  19.775  0.00  0.00    +0.000 HD
ATOM     24  H   UNL     1       6.856   4.113  19.475  0.00  0.00    +0.000 HD
ENDBRANCH  19  20
BRANCH  19  25
ATOM     25  C   UNL     1       4.933   5.323  16.508  0.00  0.00    +0.000 C 
BRANCH  25  26
ATOM     26  N   UNL     1       5.227   6.618  15.841  0.00  0.00    +0.000 NA
ATOM     27  H   UNL     1       5.270   6.457  14.827  0.00  0.00    +0.000 HD
ATOM     28  H   UNL     1       6.189   6.866  16.080  0.00  0.00    +0.000 HD
ENDBRANCH  25  26
BRANCH  25  29
ATOM     29  C   UNL     1       5.953   4.235  16.045  0.00  0.00    +0.000 C 
BRANCH  29  30
ATOM     30  C   UNL     1       6.278   4.379  14.572  0.00  0.00    +0.000 A 
ATOM     31  C   UNL     1       5.549   3.634  13.635  0.00  0.00    +0.000 A 
ATOM     32  C   UNL     1       5.973   3.553  12.311  0.00  0.00    +0.000 A 
ATOM     33  C   UNL     1       7.123   4.226  11.905  0.00  0.00    +0.000 A 
ATOM     34  C   UNL     1       7.809   5.036  12.808  0.00  0.00    +0.000 A 
ATOM     35  C   UNL     1       7.365   5.142  14.127  0.00  0.00    +0.000 A 
ENDBRANCH  29  30
ENDBRANCH  25  29
ENDBRANCH  19  25
ENDBRANCH   1  19
TORSDOF 12
ENDMDL
MODEL 3
REMARK VINA RESULT:      -6.9      2.508      4.321
REMARK  Name = 
REMARK  15 active torsions:
REMARK  status: ('A' for Active; 'I' for Inactive)
REMARK    1  A    between atoms: C_1  and  O_2
REMARK    2  A    between atoms: O_2  and  C_3
REMARK    3  A    between atoms: C_3  and  C_5
REMARK    4  A    between atoms: C_10  and  C_12
REMARK    5  A    between atoms: C_12  and  C_13
REMARK    6  A    between atoms: C_12  and  N_17
REMARK    7  A    between atoms: C_13  and  C_14
REMARK    8  A    between atoms: C_14  and  C_15
REMARK    9  A    between atoms: C_14  and  C_16
REMARK   10  A    between atoms: N_17  and  C_18
REMARK   11  A    between atoms: C_18  and  C_19
REMARK   12  A    between atoms: C_18  and  C_22
REMARK   13  A    between atoms: C_22  and  N_23
REMARK   14  A    between atoms: C_22  and  C_24
REMARK   15  A    between atoms: C_24  and  C_25
REMARK                            x       y       z     vdW  Elec       q    Type
REMARK                         _______ _______ _______ _____ _____    ______ ____
ROOT
ATOM      1  N   UNL     1       4.092   5.264  19.152  0.00  0.00    +0.000 NA
ATOM      2  H   UNL     1       4.189   4.850  20.081  0.00  0.00    +0.000 HD
ENDROOT
BRANCH   1   3
ATOM      3  C   UNL     1       2.750   5.922  19.083  0.00  0.00    +0.000 C 
BRANCH   3   9
ATOM      4  C   UNL     1       1.198   8.872  20.090  0.00  0.00    +0.000 C 
ATOM      5  C   UNL     1       0.141   9.892  19.577  0.00  0.00    +0.000 C 
ATOM      6  C   UNL     1       0.779  10.460  18.338  0.00  0.00    +0.000 C 
ATOM      7  C   UNL     1       1.433   9.236  17.725  0.00  0.00    +0.000 C 
ATOM      8  N   UNL     1       1.626   8.237  18.805  0.00  0.00    +0.000 N 
ATOM      9  C   UNL     1       2.756   7.412  18.606  0.00  0.00    +0.000 C 
ATOM     10  O   UNL     1       3.639   7.745  17.808  0.00  0.00    +0.000 OA
BRANCH   4  11
ATOM     11  C   UNL     1       0.562   8.363  21.402  0.00  0.00    +0.000 C 
ATOM     12  O   UNL     1      -0.425   7.629  21.385  0.00  0.00    +0.000 OA
BRANCH  11  14
ATOM     13  C   UNL     1       0.187   9.531  23.363  0.00  0.00    +0.000 C 
ATOM     14  O   UNL     1       1.124   8.804  22.550  0.00  0.00    +0.000 OA
ENDBRANCH  11  14
ENDBRANCH   4  11
ENDBRANCH   3   9
BRANCH   3  15
ATOM     15  C   UNL     1       2.012   5.791  20.401  0.00  0.00    +0.000 C 
BRANCH  15  16
ATOM     16  C   UNL     1       1.202   4.537  20.679  0.00  0.00    +0.000 C 
ATOM     17  C   UNL     1       0.901   3.792  19.374  0.00  0.00    +0.000 C 
ATOM     18  C   UNL     1       2.098   3.718  21.616  0.00  0.00    +0.000 C 
ENDBRANCH  15  16
ENDBRANCH   3  15
ENDBRANCH   1   3
BRANCH   1  19
ATOM     19  C   UNL     1       4.224   4.100  18.146  0.00  0.00    +0.000 C 
BRANCH  19  20
ATOM     20  C   UNL     1       4.330   2.740  18.866  0.00  0.00    +0.000 C 
ATOM     21  N   UNL     1       3.764   1.647  18.280  0.00  0.00    +0.000 N 
ATOM     22  O   UNL     1       4.845   2.587  19.968  0.00  0.00    +0.000 OA
ATOM     23  H   UNL     1       3.787   0.815  18.850  0.00  0.00    +0.000 HD
ATOM     24  H   UNL     1       3.838   1.487  17.289  0.00  0.00    +0.000 HD
ENDBRANCH  19  20
BRANCH  19  25
ATOM     25  C   UNL     1       5.534   4.246  17.302  0.00  0.00    +0.000 C 
BRANCH  25  26
ATOM     26  N   UNL     1       5.653   3.183  16.270  0.00  0.00    +0.000 NA
ATOM     27  H   UNL     1       4.815   3.214  15.675  0.00  0.00    +0.000 HD
ATOM     28  H   UNL     1       5.566   2.286  16.751  0.00  0.00    +0.000 HD
ENDBRANCH  25  26
BRANCH  25  29
ATOM     29  C   UNL     1       5.660   5.655  16.641  0.00  0.00    +0.000 C 
BRANCH  29  30
ATOM     30  C   UNL     1       6.778   6.458  17.273  0.00  0.00    +0.000 A 
ATOM     31  C   UNL     1       7.503   5.904  18.337  0.00  0.00    +0.000 A 
ATOM     32  C   UNL     1       8.364   6.693  19.095  0.00  0.00    +0.000 A 
ATOM     33  C   UNL     1       8.520   8.043  18.791  0.00  0.00    +0.000 A 
ATOM     34  C   UNL     1       7.868   8.587  17.686  0.00  0.00    +0.000 A 
ATOM     35  C   UNL     1       7.031   7.787  16.907  0.00  0.00    +0.000 A 
ENDBRANCH  29  30
ENDBRANCH  25  29
ENDBRANCH  19  25
ENDBRANCH   1  19
TORSDOF 12
ENDMDL
MODEL 4
REMARK VINA RESULT:      -6.8      3.029      5.136
REMARK  Name = 
REMARK  15 active torsions:
REMARK  status: ('A' for Active; 'I' for Inactive)
REMARK    1  A    between atoms: C_1  and  O_2
REMARK    2  A    between atoms: O_2  and  C_3
REMARK    3  A    between atoms: C_3  and  C_5
REMARK    4  A    between atoms: C_10  and  C_12
REMARK    5  A    between atoms: C_12  and  C_13
REMARK    6  A    between atoms: C_12  and  N_17
REMARK    7  A    between atoms: C_13  and  C_14
REMARK    8  A    between atoms: C_14  and  C_15
REMARK    9  A    between atoms: C_14  and  C_16
REMARK   10  A    between atoms: N_17  and  C_18
REMARK   11  A    between atoms: C_18  and  C_19
REMARK   12  A    between atoms: C_18  and  C_22
REMARK   13  A    between atoms: C_22  and  N_23
REMARK   14  A    between atoms: C_22  and  C_24
REMARK   15  A    between atoms: C_24  and  C_25
REMARK                            x       y       z     vdW  Elec       q    Type
REMARK                         _______ _______ _______ _____ _____    ______ ____
ROOT
ATOM      1  N   UNL     1       5.379   6.584  17.428  0.00  0.00    +0.000 NA
ATOM      2  H   UNL     1       5.033   6.473  18.383  0.00  0.00    +0.000 HD
ENDROOT
BRANCH   1   3
ATOM      3  C   UNL     1       4.705   5.554  16.576  0.00  0.00    +0.000 C 
BRANCH   3   9
ATOM      4  C   UNL     1       2.265   5.966  19.027  0.00  0.00    +0.000 C 
ATOM      5  C   UNL     1       1.988   5.565  20.505  0.00  0.00    +0.000 C 
ATOM      6  C   UNL     1       1.908   4.062  20.447  0.00  0.00    +0.000 C 
ATOM      7  C   UNL     1       3.009   3.720  19.462  0.00  0.00    +0.000 C 
ATOM      8  N   UNL     1       3.266   4.925  18.634  0.00  0.00    +0.000 N 
ATOM      9  C   UNL     1       3.697   4.620  17.323  0.00  0.00    +0.000 C 
ATOM     10  O   UNL     1       3.527   3.486  16.859  0.00  0.00    +0.000 OA
BRANCH   4  11
ATOM     11  C   UNL     1       2.262   7.508  19.093  0.00  0.00    +0.000 C 
ATOM     12  O   UNL     1       2.732   8.184  18.179  0.00  0.00    +0.000 OA
BRANCH  11  14
ATOM     13  C   UNL     1       1.023   9.264  19.949  0.00  0.00    +0.000 C 
ATOM     14  O   UNL     1       1.757   8.057  20.221  0.00  0.00    +0.000 OA
ENDBRANCH  11  14
ENDBRANCH   4  11
ENDBRANCH   3   9
BRANCH   3  15
ATOM     15  C   UNL     1       5.723   4.730  15.813  0.00  0.00    +0.000 C 
BRANCH  15  16
ATOM     16  C   UNL     1       5.945   5.004  14.335  0.00  0.00    +0.000 C 
ATOM     17  C   UNL     1       7.440   5.148  14.034  0.00  0.00    +0.000 C 
ATOM     18  C   UNL     1       5.330   3.785  13.636  0.00  0.00    +0.000 C 
ENDBRANCH  15  16
ENDBRANCH   3  15
ENDBRANCH   1   3
BRANCH   1  19
ATOM     19  C   UNL     1       6.907   6.376  17.496  0.00  0.00    +0.000 C 
BRANCH  19  20
ATOM     20  C   UNL     1       7.269   5.077  18.245  0.00  0.00    +0.000 C 
ATOM     21  N   UNL     1       6.624   4.798  19.414  0.00  0.00    +0.000 N 
ATOM     22  O   UNL     1       8.145   4.301  17.884  0.00  0.00    +0.000 OA
ATOM     23  H   UNL     1       6.979   3.986  19.895  0.00  0.00    +0.000 HD
ATOM     24  H   UNL     1       5.637   4.959  19.518  0.00  0.00    +0.000 HD
ENDBRANCH  19  20
BRANCH  19  25
ATOM     25  C   UNL     1       7.588   7.538  18.292  0.00  0.00    +0.000 C 
BRANCH  25  26
ATOM     26  N   UNL     1       8.626   7.037  19.231  0.00  0.00    +0.000 NA
ATOM     27  H   UNL     1       9.492   6.878  18.701  0.00  0.00    +0.000 HD
ATOM     28  H   UNL     1       8.346   6.096  19.513  0.00  0.00    +0.000 HD
ENDBRANCH  25  26
BRANCH  25  29
ATOM     29  C   UNL     1       8.194   8.627  17.351  0.00  0.00    +0.000 C 
BRANCH  29  30
ATOM     30  C   UNL     1       8.531   9.889  18.120  0.00  0.00    +0.000 A 
ATOM     31  C   UNL     1       8.262  11.136  17.540  0.00  0.00    +0.000 A 
ATOM     32  C   UNL     1       8.775  12.303  18.100  0.00  0.00    +0.000 A 
ATOM     33  C   UNL     1       9.552  12.239  19.254  0.00  0.00    +0.000 A 
ATOM     34  C   UNL     1       9.758  11.014  19.886  0.00  0.00    +0.000 A 
ATOM     35  C   UNL     1       9.217   9.849  19.341  0.00  0.00    +0.000 A 
ENDBRANCH  29  30
ENDBRANCH  25  29
ENDBRANCH  19  25
ENDBRANCH   1  19
TORSDOF 12
ENDMDL
MODEL 5
REMARK VINA RESULT:      -6.7      0.944      1.353
REMARK  Name = 
REMARK  15 active torsions:
REMARK  status: ('A' for Active; 'I' for Inactive)
REMARK    1  A    between atoms: C_1  and  O_2
REMARK    2  A    between atoms: O_2  and  C_3
REMARK    3  A    between atoms: C_3  and  C_5
REMARK    4  A    between atoms: C_10  and  C_12
REMARK    5  A    between atoms: C_12  and  C_13
REMARK    6  A    between atoms: C_12  and  N_17
REMARK    7  A    between atoms: C_13  and  C_14
REMARK    8  A    between atoms: C_14  and  C_15
REMARK    9  A    between atoms: C_14  and  C_16
REMARK   10  A    between atoms: N_17  and  C_18
REMARK   11  A    between atoms: C_18  and  C_19
REMARK   12  A    between atoms: C_18  and  C_22
REMARK   13  A    between atoms: C_22  and  N_23
REMARK   14  A    between atoms: C_22  and  C_24
REMARK   15  A    between atoms: C_24  and  C_25
REMARK                            x       y       z     vdW  Elec       q    Type
REMARK                         _______ _______ _______ _____ _____    ______ ____
ROOT
ATOM      1  N   UNL     1       4.582   5.956  18.901  0.00  0.00    +0.000 NA
ATOM      2  H   UNL     1       4.869   6.173  19.857  0.00  0.00    +0.000 HD
ENDROOT
BRANCH   1   3
ATOM      3  C   UNL     1       3.311   5.169  18.973  0.00  0.00    +0.000 C 
BRANCH   3   9
ATOM      4  C   UNL     1       1.582   8.184  19.191  0.00  0.00    +0.000 C 
ATOM      5  C   UNL     1       1.452   9.412  20.139  0.00  0.00    +0.000 C 
ATOM      6  C   UNL     1       0.898   8.816  21.405  0.00  0.00    +0.000 C 
ATOM      7  C   UNL     1       1.650   7.502  21.496  0.00  0.00    +0.000 C 
ATOM      8  N   UNL     1       2.124   7.156  20.133  0.00  0.00    +0.000 N 
ATOM      9  C   UNL     1       2.205   5.763  19.907  0.00  0.00    +0.000 C 
ATOM     10  O   UNL     1       1.613   4.975  20.654  0.00  0.00    +0.000 OA
BRANCH   4  11
ATOM     11  C   UNL     1       2.072   8.828  17.876  0.00  0.00    +0.000 C 
ATOM     12  O   UNL     1       3.014   8.347  17.247  0.00  0.00    +0.000 OA
BRANCH  11  14
ATOM     13  C   UNL     1       0.010   9.846  17.623  0.00  0.00    +0.000 C 
ATOM     14  O   UNL     1       1.438   9.958  17.490  0.00  0.00    +0.000 OA
ENDBRANCH  11  14
ENDBRANCH   4  11
ENDBRANCH   3   9
BRANCH   3  15
ATOM     15  C   UNL     1       3.587   3.723  19.334  0.00  0.00    +0.000 C 
BRANCH  15  16
ATOM     16  C   UNL     1       3.006   2.617  18.470  0.00  0.00    +0.000 C 
ATOM     17  C   UNL     1       1.832   1.939  19.183  0.00  0.00    +0.000 C 
ATOM     18  C   UNL     1       2.565   3.339  17.191  0.00  0.00    +0.000 C 
ENDBRANCH  15  16
ENDBRANCH   3  15
ENDBRANCH   1   3
BRANCH   1  19
ATOM     19  C   UNL     1       5.737   5.143  18.277  0.00  0.00    +0.000 C 
BRANCH  19  20
ATOM     20  C   UNL     1       7.112   5.704  18.695  0.00  0.00    +0.000 C 
ATOM     21  N   UNL     1       7.455   6.960  18.290  0.00  0.00    +0.000 N 
ATOM     22  O   UNL     1       7.948   5.066  19.325  0.00  0.00    +0.000 OA
ATOM     23  H   UNL     1       8.402   7.221  18.516  0.00  0.00    +0.000 HD
ATOM     24  H   UNL     1       6.789   7.714  18.304  0.00  0.00    +0.000 HD
ENDBRANCH  19  20
BRANCH  19  25
ATOM     25  C   UNL     1       5.692   5.229  16.716  0.00  0.00    +0.000 C 
BRANCH  25  26
ATOM     26  N   UNL     1       5.470   6.619  16.239  0.00  0.00    +0.000 NA
ATOM     27  H   UNL     1       6.384   7.082  16.156  0.00  0.00    +0.000 HD
ATOM     28  H   UNL     1       5.017   7.128  17.000  0.00  0.00    +0.000 HD
ENDBRANCH  25  26
BRANCH  25  29
ATOM     29  C   UNL     1       6.972   4.630  16.051  0.00  0.00    +0.000 C 
BRANCH  29  30
ATOM     30  C   UNL     1       6.836   4.583  14.543  0.00  0.00    +0.000 A 
ATOM     31  C   UNL     1       5.923   3.690  13.965  0.00  0.00    +0.000 A 
ATOM     32  C   UNL     1       5.943   3.445  12.595  0.00  0.00    +0.000 A 
ATOM     33  C   UNL     1       6.868   4.099  11.784  0.00  0.00    +0.000 A 
ATOM     34  C   UNL     1       7.726   5.049  12.334  0.00  0.00    +0.000 A 
ATOM     35  C   UNL     1       7.683   5.318  13.702  0.00  0.00    +0.000 A 
ENDBRANCH  29  30
ENDBRANCH  25  29
ENDBRANCH  19  25
ENDBRANCH   1  19
TORSDOF 12
ENDMDL
MODEL 6
REMARK VINA RESULT:      -6.7      1.565      4.500
REMARK  Name = 
REMARK  15 active torsions:
REMARK  status: ('A' for Active; 'I' for Inactive)
REMARK    1  A    between atoms: C_1  and  O_2
REMARK    2  A    between atoms: O_2  and  C_3
REMARK    3  A    between atoms: C_3  and  C_5
REMARK    4  A    between atoms: C_10  and  C_12
REMARK    5  A    between atoms: C_12  and  C_13
REMARK    6  A    between atoms: C_12  and  N_17
REMARK    7  A    between atoms: C_13  and  C_14
REMARK    8  A    between atoms: C_14  and  C_15
REMARK    9  A    between atoms: C_14  and  C_16
REMARK   10  A    between atoms: N_17  and  C_18
REMARK   11  A    between atoms: C_18  and  C_19
REMARK   12  A    between atoms: C_18  and  C_22
REMARK   13  A    between atoms: C_22  and  N_23
REMARK   14  A    between atoms: C_22  and  C_24
REMARK   15  A    between atoms: C_24  and  C_25
REMARK                            x       y       z     vdW  Elec       q    Type
REMARK                         _______ _______ _______ _____ _____    ______ ____
ROOT
ATOM      1  N   UNL     1       4.962   6.433  17.927  0.00  0.00    +0.000 NA
ATOM      2  H   UNL     1       5.392   7.300  18.253  0.00  0.00    +0.000 HD
ENDROOT
BRANCH   1   3
ATOM      3  C   UNL     1       3.709   6.220  18.718  0.00  0.00    +0.000 C 
BRANCH   3   9
ATOM      4  C   UNL     1       3.060   2.851  19.317  0.00  0.00    +0.000 C 
ATOM      5  C   UNL     1       3.191   1.473  18.606  0.00  0.00    +0.000 C 
ATOM      6  C   UNL     1       2.274   1.606  17.419  0.00  0.00    +0.000 C 
ATOM      7  C   UNL     1       2.526   3.036  16.979  0.00  0.00    +0.000 C 
ATOM      8  N   UNL     1       3.074   3.778  18.142  0.00  0.00    +0.000 N 
ATOM      9  C   UNL     1       2.726   5.148  18.143  0.00  0.00    +0.000 C 
ATOM     10  O   UNL     1       1.795   5.555  17.439  0.00  0.00    +0.000 OA
BRANCH   4  11
ATOM     11  C   UNL     1       3.941   2.665  20.571  0.00  0.00    +0.000 C 
ATOM     12  O   UNL     1       5.168   2.681  20.493  0.00  0.00    +0.000 OA
BRANCH  11  14
ATOM     13  C   UNL     1       1.951   2.978  21.710  0.00  0.00    +0.000 C 
ATOM     14  O   UNL     1       3.287   2.444  21.734  0.00  0.00    +0.000 OA
ENDBRANCH  11  14
ENDBRANCH   4  11
ENDBRANCH   3   9
BRANCH   3  15
ATOM     15  C   UNL     1       2.984   7.530  18.953  0.00  0.00    +0.000 C 
BRANCH  15  16
ATOM     16  C   UNL     1       1.657   7.524  19.692  0.00  0.00    +0.000 C 
ATOM     17  C   UNL     1       1.733   6.619  20.926  0.00  0.00    +0.000 C 
ATOM     18  C   UNL     1       1.436   8.995  20.068  0.00  0.00    +0.000 C 
ENDBRANCH  15  16
ENDBRANCH   3  15
ENDBRANCH   1   3
BRANCH   1  19
ATOM     19  C   UNL     1       6.002   5.318  18.168  0.00  0.00    +0.000 C 
BRANCH  19  20
ATOM     20  C   UNL     1       7.125   5.788  19.117  0.00  0.00    +0.000 C 
ATOM     21  N   UNL     1       7.963   6.776  18.694  0.00  0.00    +0.000 N 
ATOM     22  O   UNL     1       7.349   5.286  20.212  0.00  0.00    +0.000 OA
ATOM     23  H   UNL     1       8.729   6.963  19.323  0.00  0.00    +0.000 HD
ATOM     24  H   UNL     1       7.618   7.577  18.192  0.00  0.00    +0.000 HD
ENDBRANCH  19  20
BRANCH  19  25
ATOM     25  C   UNL     1       6.705   4.920  16.829  0.00  0.00    +0.000 C 
BRANCH  25  26
ATOM     26  N   UNL     1       7.948   4.139  17.063  0.00  0.00    +0.000 NA
ATOM     27  H   UNL     1       8.714   4.586  16.542  0.00  0.00    +0.000 HD
ATOM     28  H   UNL     1       7.833   3.242  16.587  0.00  0.00    +0.000 HD
ENDBRANCH  25  26
BRANCH  25  29
ATOM     29  C   UNL     1       5.753   4.140  15.868  0.00  0.00    +0.000 C 
BRANCH  29  30
ATOM     30  C   UNL     1       6.170   4.316  14.422  0.00  0.00    +0.000 A 
ATOM     31  C   UNL     1       5.592   3.501  13.438  0.00  0.00    +0.000 A 
ATOM     32  C   UNL     1       6.119   3.463  12.150  0.00  0.00    +0.000 A 
ATOM     33  C   UNL     1       7.222   4.248  11.826  0.00  0.00    +0.000 A 
ATOM     34  C   UNL     1       7.755   5.123  12.771  0.00  0.00    +0.000 A 
ATOM     35  C   UNL     1       7.205   5.185  14.052  0.00  0.00    +0.000 A 
ENDBRANCH  29  30
ENDBRANCH  25  29
ENDBRANCH  19  25
ENDBRANCH   1  19
TORSDOF 12
ENDMDL
MODEL 7
REMARK VINA RESULT:      -6.7      1.489      1.914
REMARK  Name = 
REMARK  15 active torsions:
REMARK  status: ('A' for Active; 'I' for Inactive)
REMARK    1  A    between atoms: C_1  and  O_2
REMARK    2  A    between atoms: O_2  and  C_3
REMARK    3  A    between atoms: C_3  and  C_5
REMARK    4  A    between atoms: C_10  and  C_12
REMARK    5  A    between atoms: C_12  and  C_13
REMARK    6  A    between atoms: C_12  and  N_17
REMARK    7  A    between atoms: C_13  and  C_14
REMARK    8  A    between atoms: C_14  and  C_15
REMARK    9  A    between atoms: C_14  and  C_16
REMARK   10  A    between atoms: N_17  and  C_18
REMARK   11  A    between atoms: C_18  and  C_19
REMARK   12  A    between atoms: C_18  and  C_22
REMARK   13  A    between atoms: C_22  and  N_23
REMARK   14  A    between atoms: C_22  and  C_24
REMARK   15  A    between atoms: C_24  and  C_25
REMARK                            x       y       z     vdW  Elec       q    Type
REMARK                         _______ _______ _______ _____ _____    ______ ____
ROOT
ATOM      1  N   UNL     1       3.845   6.594  18.428  0.00  0.00    +0.000 NA
ATOM      2  H   UNL     1       4.271   6.881  19.311  0.00  0.00    +0.000 HD
ENDROOT
BRANCH   1   3
ATOM      3  C   UNL     1       2.509   5.996  18.737  0.00  0.00    +0.000 C 
BRANCH   3   9
ATOM      4  C   UNL     1       0.915   8.979  19.567  0.00  0.00    +0.000 C 
ATOM      5  C   UNL     1       1.106  10.205  20.506  0.00  0.00    +0.000 C 
ATOM      6  C   UNL     1       1.045   9.601  21.883  0.00  0.00    +0.000 C 
ATOM      7  C   UNL     1       1.804   8.300  21.696  0.00  0.00    +0.000 C 
ATOM      8  N   UNL     1       1.773   7.962  20.252  0.00  0.00    +0.000 N 
ATOM      9  C   UNL     1       1.793   6.571  20.004  0.00  0.00    +0.000 C 
ATOM     10  O   UNL     1       1.516   5.772  20.907  0.00  0.00    +0.000 OA
BRANCH   4  11
ATOM     11  C   UNL     1       0.899   9.630  18.167  0.00  0.00    +0.000 C 
ATOM     12  O   UNL     1       1.735   9.327  17.317  0.00  0.00    +0.000 OA
BRANCH  11  14
ATOM     13  C   UNL     1      -1.289   9.991  17.510  0.00  0.00    +0.000 C 
ATOM     14  O   UNL     1      -0.050  10.569  17.955  0.00  0.00    +0.000 OA
ENDBRANCH  11  14
ENDBRANCH   4  11
ENDBRANCH   3   9
BRANCH   3  15
ATOM     15  C   UNL     1       2.595   4.485  18.819  0.00  0.00    +0.000 C 
BRANCH  15  16
ATOM     16  C   UNL     1       1.760   3.640  17.871  0.00  0.00    +0.000 C 
ATOM     17  C   UNL     1       2.660   2.727  17.032  0.00  0.00    +0.000 C 
ATOM     18  C   UNL     1       0.837   2.843  18.801  0.00  0.00    +0.000 C 
ENDBRANCH  15  16
ENDBRANCH   3  15
ENDBRANCH   1   3
BRANCH   1  19
ATOM     19  C   UNL     1       4.811   5.568  17.797  0.00  0.00    +0.000 C 
BRANCH  19  20
ATOM     20  C   UNL     1       5.752   4.953  18.854  0.00  0.00    +0.000 C 
ATOM     21  N   UNL     1       5.831   3.595  18.944  0.00  0.00    +0.000 N 
ATOM     22  O   UNL     1       6.395   5.612  19.663  0.00  0.00    +0.000 OA
ATOM     23  H   UNL     1       6.389   3.266  19.718  0.00  0.00    +0.000 HD
ATOM     24  H   UNL     1       5.860   3.016  18.122  0.00  0.00    +0.000 HD
ENDBRANCH  19  20
BRANCH  19  25
ATOM     25  C   UNL     1       5.738   6.257  16.742  0.00  0.00    +0.000 C 
BRANCH  25  26
ATOM     26  N   UNL     1       6.173   7.610  17.181  0.00  0.00    +0.000 NA
ATOM     27  H   UNL     1       5.436   8.009  17.776  0.00  0.00    +0.000 HD
ATOM     28  H   UNL     1       6.161   8.211  16.356  0.00  0.00    +0.000 HD
ENDBRANCH  25  26
BRANCH  25  29
ATOM     29  C   UNL     1       6.982   5.383  16.383  0.00  0.00    +0.000 C 
BRANCH  29  30
ATOM     30  C   UNL     1       6.846   4.779  15.000  0.00  0.00    +0.000 A 
ATOM     31  C   UNL     1       7.678   5.236  13.969  0.00  0.00    +0.000 A 
ATOM     32  C   UNL     1       7.422   4.887  12.645  0.00  0.00    +0.000 A 
ATOM     33  C   UNL     1       6.339   4.067  12.338  0.00  0.00    +0.000 A 
ATOM     34  C   UNL     1       5.554   3.540  13.361  0.00  0.00    +0.000 A 
ATOM     35  C   UNL     1       5.831   3.864  14.690  0.00  0.00    +0.000 A 
ENDBRANCH  29  30
ENDBRANCH  25  29
ENDBRANCH  19  25
ENDBRANCH   1  19
TORSDOF 12
ENDMDL
MODEL 8
REMARK VINA RESULT:      -6.7      3.069      7.859
REMARK  Name = 
REMARK  15 active torsions:
REMARK  status: ('A' for Active; 'I' for Inactive)
REMARK    1  A    between atoms: C_1  and  O_2
REMARK    2  A    between atoms: O_2  and  C_3
REMARK    3  A    between atoms: C_3  and  C_5
REMARK    4  A    between atoms: C_10  and  C_12
REMARK    5  A    between atoms: C_12  and  C_13
REMARK    6  A    between atoms: C_12  and  N_17
REMARK    7  A    between atoms: C_13  and  C_14
REMARK    8  A    between atoms: C_14  and  C_15
REMARK    9  A    between atoms: C_14  and  C_16
REMARK   10  A    between atoms: N_17  and  C_18
REMARK   11  A    between atoms: C_18  and  C_19
REMARK   12  A    between atoms: C_18  and  C_22
REMARK   13  A    between atoms: C_22  and  N_23
REMARK   14  A    between atoms: C_22  and  C_24
REMARK   15  A    between atoms: C_24  and  C_25
REMARK                            x       y       z     vdW  Elec       q    Type
REMARK                         _______ _______ _______ _____ _____    ______ ____
ROOT
ATOM      1  N   UNL     1       1.537   7.566  19.031  0.00  0.00    +0.000 NA
ATOM      2  H   UNL     1       0.854   7.077  19.612  0.00  0.00    +0.000 HD
ENDROOT
BRANCH   1   3
ATOM      3  C   UNL     1       2.845   6.850  19.164  0.00  0.00    +0.000 C 
BRANCH   3   9
ATOM      4  C   UNL     1       5.107   4.705  17.612  0.00  0.00    +0.000 C 
ATOM      5  C   UNL     1       6.635   4.585  17.344  0.00  0.00    +0.000 C 
ATOM      6  C   UNL     1       6.932   5.783  16.483  0.00  0.00    +0.000 C 
ATOM      7  C   UNL     1       6.064   6.855  17.116  0.00  0.00    +0.000 C 
ATOM      8  N   UNL     1       4.979   6.174  17.865  0.00  0.00    +0.000 N 
ATOM      9  C   UNL     1       3.781   6.922  17.913  0.00  0.00    +0.000 C 
ATOM     10  O   UNL     1       3.595   7.854  17.121  0.00  0.00    +0.000 OA
BRANCH   4  11
ATOM     11  C   UNL     1       4.809   3.427  18.425  0.00  0.00    +0.000 C 
ATOM     12  O   UNL     1       5.254   3.281  19.563  0.00  0.00    +0.000 OA
BRANCH  11  14
ATOM     13  C   UNL     1       3.677   1.429  18.699  0.00  0.00    +0.000 C 
ATOM     14  O   UNL     1       4.077   2.477  17.800  0.00  0.00    +0.000 OA
ENDBRANCH  11  14
ENDBRANCH   4  11
ENDBRANCH   3   9
BRANCH   3  15
ATOM     15  C   UNL     1       2.635   5.409  19.586  0.00  0.00    +0.000 C 
BRANCH  15  16
ATOM     16  C   UNL     1       1.308   4.732  19.287  0.00  0.00    +0.000 C 
ATOM     17  C   UNL     1       1.303   4.164  17.865  0.00  0.00    +0.000 C 
ATOM     18  C   UNL     1       1.209   3.629  20.349  0.00  0.00    +0.000 C 
ENDBRANCH  15  16
ENDBRANCH   3  15
ENDBRANCH   1   3
BRANCH   1  19
ATOM     19  C   UNL     1       1.606   9.011  19.569  0.00  0.00    +0.000 C 
BRANCH  19  20
ATOM     20  C   UNL     1       0.763   9.178  20.850  0.00  0.00    +0.000 C 
ATOM     21  N   UNL     1       0.775  10.384  21.486  0.00  0.00    +0.000 N 
ATOM     22  O   UNL     1       0.122   8.272  21.369  0.00  0.00    +0.000 OA
ATOM     23  H   UNL     1       0.281  10.391  22.365  0.00  0.00    +0.000 HD
ATOM     24  H   UNL     1       0.742  11.248  20.971  0.00  0.00    +0.000 HD
ENDBRANCH  19  20
BRANCH  19  25
ATOM     25  C   UNL     1       1.013  10.017  18.528  0.00  0.00    +0.000 C 
BRANCH  25  26
ATOM     26  N   UNL     1       2.054  10.543  17.605  0.00  0.00    +0.000 NA
ATOM     27  H   UNL     1       2.573  11.284  18.091  0.00  0.00    +0.000 HD
ATOM     28  H   UNL     1       1.568  11.046  16.861  0.00  0.00    +0.000 HD
ENDBRANCH  25  26
BRANCH  25  29
ATOM     29  C   UNL     1      -0.167   9.400  17.712  0.00  0.00    +0.000 C 
BRANCH  29  30
ATOM     30  C   UNL     1      -1.417  10.247  17.830  0.00  0.00    +0.000 A 
ATOM     31  C   UNL     1      -1.417  11.351  18.694  0.00  0.00    +0.000 A 
ATOM     32  C   UNL     1      -2.606  12.001  19.014  0.00  0.00    +0.000 A 
ATOM     33  C   UNL     1      -3.808  11.564  18.464  0.00  0.00    +0.000 A 
ATOM     34  C   UNL     1      -3.811  10.521  17.540  0.00  0.00    +0.000 A 
ATOM     35  C   UNL     1      -2.615   9.890  17.196  0.00  0.00    +0.000 A 
ENDBRANCH  29  30
ENDBRANCH  25  29
ENDBRANCH  19  25
ENDBRANCH   1  19
TORSDOF 12
ENDMDL
MODEL 9
REMARK VINA RESULT:      -6.7      2.171      6.877
REMARK  Name = 
REMARK  15 active torsions:
REMARK  status: ('A' for Active; 'I' for Inactive)
REMARK    1  A    between atoms: C_1  and  O_2
REMARK    2  A    between atoms: O_2  and  C_3
REMARK    3  A    between atoms: C_3  and  C_5
REMARK    4  A    between atoms: C_10  and  C_12
REMARK    5  A    between atoms: C_12  and  C_13
REMARK    6  A    between atoms: C_12  and  N_17
REMARK    7  A    between atoms: C_13  and  C_14
REMARK    8  A    between atoms: C_14  and  C_15
REMARK    9  A    between atoms: C_14  and  C_16
REMARK   10  A    between atoms: N_17  and  C_18
REMARK   11  A    between atoms: C_18  and  C_19
REMARK   12  A    between atoms: C_18  and  C_22
REMARK   13  A    between atoms: C_22  and  N_23
REMARK   14  A    between atoms: C_22  and  C_24
REMARK   15  A    between atoms: C_24  and  C_25
REMARK                            x       y       z     vdW  Elec       q    Type
REMARK                         _______ _______ _______ _____ _____    ______ ____
ROOT
ATOM      1  N   UNL     1       2.518   5.420  18.751  0.00  0.00    +0.000 NA
ATOM      2  H   UNL     1       1.613   5.113  19.113  0.00  0.00    +0.000 HD
ENDROOT
BRANCH   1   3
ATOM      3  C   UNL     1       3.519   4.351  19.059  0.00  0.00    +0.000 C 
BRANCH   3   9
ATOM      4  C   UNL     1       6.572   4.848  17.459  0.00  0.00    +0.000 C 
ATOM      5  C   UNL     1       7.130   5.379  16.107  0.00  0.00    +0.000 C 
ATOM      6  C   UNL     1       6.574   4.410  15.097  0.00  0.00    +0.000 C 
ATOM      7  C   UNL     1       5.173   4.167  15.625  0.00  0.00    +0.000 C 
ATOM      8  N   UNL     1       5.168   4.505  17.070  0.00  0.00    +0.000 N 
ATOM      9  C   UNL     1       4.249   3.736  17.820  0.00  0.00    +0.000 C 
ATOM     10  O   UNL     1       3.785   2.689  17.353  0.00  0.00    +0.000 OA
BRANCH   4  11
ATOM     11  C   UNL     1       7.218   5.804  18.485  0.00  0.00    +0.000 C 
ATOM     12  O   UNL     1       7.800   6.825  18.122  0.00  0.00    +0.000 OA
BRANCH  11  14
ATOM     13  C   UNL     1       8.437   5.381  20.405  0.00  0.00    +0.000 C 
ATOM     14  O   UNL     1       7.141   5.430  19.782  0.00  0.00    +0.000 OA
ENDBRANCH  11  14
ENDBRANCH   4  11
ENDBRANCH   3   9
BRANCH   3  15
ATOM     15  C   UNL     1       2.902   3.256  19.906  0.00  0.00    +0.000 C 
BRANCH  15  16
ATOM     16  C   UNL     1       1.396   3.227  20.102  0.00  0.00    +0.000 C 
ATOM     17  C   UNL     1       0.738   2.294  19.080  0.00  0.00    +0.000 C 
ATOM     18  C   UNL     1       1.219   2.722  21.540  0.00  0.00    +0.000 C 
ENDBRANCH  15  16
ENDBRANCH   3  15
ENDBRANCH   1   3
BRANCH   1  19
ATOM     19  C   UNL     1       2.842   6.747  19.470  0.00  0.00    +0.000 C 
BRANCH  19  20
ATOM     20  C   UNL     1       1.760   7.106  20.510  0.00  0.00    +0.000 C 
ATOM     21  N   UNL     1       1.973   8.174  21.330  0.00  0.00    +0.000 N 
ATOM     22  O   UNL     1       0.739   6.452  20.686  0.00  0.00    +0.000 OA
ATOM     23  H   UNL     1       1.272   8.289  22.046  0.00  0.00    +0.000 HD
ATOM     24  H   UNL     1       2.373   9.029  20.982  0.00  0.00    +0.000 HD
ENDBRANCH  19  20
BRANCH  19  25
ATOM     25  C   UNL     1       2.873   7.934  18.451  0.00  0.00    +0.000 C 
BRANCH  25  26
ATOM     26  N   UNL     1       3.812   7.680  17.327  0.00  0.00    +0.000 NA
ATOM     27  H   UNL     1       4.592   7.113  17.679  0.00  0.00    +0.000 HD
ATOM     28  H   UNL     1       4.254   8.572  17.099  0.00  0.00    +0.000 HD
ENDBRANCH  25  26
BRANCH  25  29
ATOM     29  C   UNL     1       1.453   8.278  17.899  0.00  0.00    +0.000 C 
BRANCH  29  30
ATOM     30  C   UNL     1       1.023   9.669  18.320  0.00  0.00    +0.000 A 
ATOM     31  C   UNL     1      -0.342   9.945  18.478  0.00  0.00    +0.000 A 
ATOM     32  C   UNL     1      -0.787  11.256  18.623  0.00  0.00    +0.000 A 
ATOM     33  C   UNL     1       0.128  12.306  18.625  0.00  0.00    +0.000 A 
ATOM     34  C   UNL     1       1.493  12.038  18.552  0.00  0.00    +0.000 A 
ATOM     35  C   UNL     1       1.941  10.721  18.439  0.00  0.00    +0.000 A 
ENDBRANCH  29  30
ENDBRANCH  25  29
ENDBRANCH  19  25
ENDBRANCH   1  19
TORSDOF 12
ENDMDL
