MODEL 1
REMARK VINA RESULT:      -8.3      0.000      0.000
REMARK  Name = 
REMARK  10 active torsions:
REMARK  status: ('A' for Active; 'I' for Inactive)
REMARK    1  A    between atoms: C_1  and  C_2
REMARK    2  A    between atoms: C_2  and  C_3
REMARK    3  A    between atoms: C_3  and  C_4
REMARK    4  A    between atoms: C_3  and  O_21
REMARK    5  A    between atoms: C_4  and  N_5
REMARK    6  A    between atoms: N_5  and  C_14
REMARK    7  A    between atoms: C_6  and  C_8
REMARK    8  A    between atoms: O_21  and  C_22
REMARK    9  A    between atoms: N_24  and  C_25
REMARK   10  A    between atoms: C_25  and  C_26
REMARK                            x       y       z     vdW  Elec       q    Type
REMARK                         _______ _______ _______ _____ _____    ______ ____
ROOT
ATOM      1  C   UNL     1       4.299   6.349  17.324  0.00  0.00    +0.000 C 
ENDROOT
BRANCH   1   2
ATOM      2  N   UNL     1       3.407   5.688  18.288  0.00  0.00    +0.000 N 
ATOM      3  C   UNL     1       2.507   6.263  19.210  0.00  0.00    +0.000 C 
ATOM      4  O   UNL     1       1.951   5.569  20.071  0.00  0.00    +0.000 OA
BRANCH   2   5
ATOM      5  C   UNL     1       3.616   4.275  18.353  0.00  0.00    +0.000 A 
ATOM      6  C   UNL     1       2.915   3.482  17.464  0.00  0.00    +0.000 A 
ATOM      7  C   UNL     1       2.826   2.121  17.702  0.00  0.00    +0.000 A 
ATOM      8  C   UNL     1       3.525   1.480  18.699  0.00  0.00    +0.000 A 
ATOM      9  C   UNL     1       4.264   2.261  19.554  0.00  0.00    +0.000 A 
ATOM     10 CL   UNL     1       5.137   1.476  20.811  0.00  0.00    +0.000 Cl
ATOM     11  C   UNL     1       4.292   3.660  19.415  0.00  0.00    +0.000 A 
ENDBRANCH   2   5
BRANCH   3  12
ATOM     12  C   UNL     1       2.062   7.706  19.191  0.00  0.00    +0.000 A 
ATOM     13  C   UNL     1       2.112   8.371  17.946  0.00  0.00    +0.000 A 
ATOM     14  C   UNL     1       1.640   9.682  17.784  0.00  0.00    +0.000 A 
ATOM     15  C   UNL     1       1.097  10.362  18.867  0.00  0.00    +0.000 A 
ATOM     16  C   UNL     1       1.036   9.732  20.106  0.00  0.00    +0.000 A 
ATOM     17  C   UNL     1       1.513   8.419  20.259  0.00  0.00    +0.000 A 
ENDBRANCH   3  12
ENDBRANCH   1   2
BRANCH   1  18
ATOM     18  C   UNL     1       5.823   5.972  17.401  0.00  0.00    +0.000 C 
BRANCH  18  20
ATOM     19  C   UNL     1       7.954   7.341  17.890  0.00  0.00    +0.000 C 
ATOM     20  C   UNL     1       6.544   6.966  18.338  0.00  0.00    +0.000 C 
ENDBRANCH  18  20
BRANCH  18  21
ATOM     21  O   UNL     1       6.507   5.924  16.103  0.00  0.00    +0.000 OA
BRANCH  21  22
ATOM     22  C   UNL     1       7.059   4.696  15.825  0.00  0.00    +0.000 C 
ATOM     23  O   UNL     1       7.969   4.191  16.477  0.00  0.00    +0.000 OA
ATOM     24  N   UNL     1       6.483   3.958  14.824  0.00  0.00    +0.000 N 
ATOM     25  H   UNL     1       6.888   3.032  14.787  0.00  0.00    +0.000 HD
BRANCH  24  26
ATOM     26  C   UNL     1       5.944   4.428  13.564  0.00  0.00    +0.000 C 
BRANCH  26  27
ATOM     27  C   UNL     1       6.164   3.522  12.365  0.00  0.00    +0.000 A 
ATOM     28  C   UNL     1       7.443   3.159  11.913  0.00  0.00    +0.000 A 
ATOM     29  C   UNL     1       7.621   2.001  11.135  0.00  0.00    +0.000 A 
ATOM     30  C   UNL     1       6.517   1.246  10.733  0.00  0.00    +0.000 A 
ATOM     31  C   UNL     1       5.231   1.692  11.038  0.00  0.00    +0.000 A 
ATOM     32  C   UNL     1       5.056   2.827  11.841  0.00  0.00    +0.000 A 
ENDBRANCH  26  27
ENDBRANCH  24  26
ENDBRANCH  21  22
ENDBRANCH  18  21
ENDBRANCH   1  18
TORSDOF 9
ENDMDL
MODEL 2
REMARK VINA RESULT:      -8.2      3.390      7.380
REMARK  Name = 
REMARK  10 active torsions:
REMARK  status: ('A' for Active; 'I' for Inactive)
REMARK    1  A    between atoms: C_1  and  C_2
REMARK    2  A    between atoms: C_2  and  C_3
REMARK    3  A    between atoms: C_3  and  C_4
REMARK    4  A    between atoms: C_3  and  O_21
REMARK    5  A    between atoms: C_4  and  N_5
REMARK    6  A    between atoms: N_5  and  C_14
REMARK    7  A    between atoms: C_6  and  C_8
REMARK    8  A    between atoms: O_21  and  C_22
REMARK    9  A    between atoms: N_24  and  C_25
REMARK   10  A    between atoms: C_25  and  C_26
REMARK                            x       y       z     vdW  Elec       q    Type
REMARK                         _______ _______ _______ _____ _____    ______ ____
ROOT
ATOM      1  C   UNL     1       4.606   6.084  16.270  0.00  0.00    +0.000 C 
ENDROOT
BRANCH   1   2
ATOM      2  N   UNL     1       4.801   4.634  16.123  0.00  0.00    +0.000 N 
ATOM      3  C   UNL     1       4.411   3.589  16.988  0.00  0.00    +0.000 C 
ATOM      4  O   UNL     1       4.803   2.430  16.800  0.00  0.00    +0.000 OA
BRANCH   2   5
ATOM      5  C   UNL     1       5.622   4.299  15.001  0.00  0.00    +0.000 A 
ATOM      6  C   UNL     1       6.843   4.936  14.889  0.00  0.00    +0.000 A 
ATOM      7  C   UNL     1       7.511   4.903  13.676  0.00  0.00    +0.000 A 
ATOM      8  C   UNL     1       7.101   4.140  12.607  0.00  0.00    +0.000 A 
ATOM      9  C   UNL     1       5.911   3.464  12.735  0.00  0.00    +0.000 A 
ATOM     10 CL   UNL     1       5.378   2.513  11.404  0.00  0.00    +0.000 Cl
ATOM     11  C   UNL     1       5.145   3.562  13.910  0.00  0.00    +0.000 A 
ENDBRANCH   2   5
BRANCH   3  12
ATOM     12  C   UNL     1       3.437   3.738  18.131  0.00  0.00    +0.000 A 
ATOM     13  C   UNL     1       2.063   3.654  17.812  0.00  0.00    +0.000 A 
ATOM     14  C   UNL     1       1.067   3.687  18.799  0.00  0.00    +0.000 A 
ATOM     15  C   UNL     1       1.421   3.797  20.137  0.00  0.00    +0.000 A 
ATOM     16  C   UNL     1       2.767   3.883  20.482  0.00  0.00    +0.000 A 
ATOM     17  C   UNL     1       3.757   3.850  19.486  0.00  0.00    +0.000 A 
ENDBRANCH   3  12
ENDBRANCH   1   2
BRANCH   1  18
ATOM     18  C   UNL     1       5.206   6.749  17.562  0.00  0.00    +0.000 C 
BRANCH  18  20
ATOM     19  C   UNL     1       2.703   7.357  17.701  0.00  0.00    +0.000 C 
ATOM     20  C   UNL     1       4.056   7.338  18.408  0.00  0.00    +0.000 C 
ENDBRANCH  18  20
BRANCH  18  21
ATOM     21  O   UNL     1       6.216   7.781  17.304  0.00  0.00    +0.000 OA
BRANCH  21  22
ATOM     22  C   UNL     1       7.453   7.471  17.818  0.00  0.00    +0.000 C 
ATOM     23  O   UNL     1       7.779   6.345  18.184  0.00  0.00    +0.000 OA
ATOM     24  N   UNL     1       8.401   8.461  17.821  0.00  0.00    +0.000 N 
ATOM     25  H   UNL     1       9.298   8.092  18.105  0.00  0.00    +0.000 HD
BRANCH  24  26
ATOM     26  C   UNL     1       8.218   9.872  18.092  0.00  0.00    +0.000 C 
BRANCH  26  27
ATOM     27  C   UNL     1       9.408  10.593  18.703  0.00  0.00    +0.000 A 
ATOM     28  C   UNL     1      10.340  11.306  17.932  0.00  0.00    +0.000 A 
ATOM     29  C   UNL     1      11.128  12.312  18.519  0.00  0.00    +0.000 A 
ATOM     30  C   UNL     1      11.052  12.555  19.892  0.00  0.00    +0.000 A 
ATOM     31  C   UNL     1      10.250  11.741  20.691  0.00  0.00    +0.000 A 
ATOM     32  C   UNL     1       9.441  10.761  20.102  0.00  0.00    +0.000 A 
ENDBRANCH  26  27
ENDBRANCH  24  26
ENDBRANCH  21  22
ENDBRANCH  18  21
ENDBRANCH   1  18
TORSDOF 9
ENDMDL
MODEL 3
REMARK VINA RESULT:      -8.2      2.152      8.358
REMARK  Name = 
REMARK  10 active torsions:
REMARK  status: ('A' for Active; 'I' for Inactive)
REMARK    1  A    between atoms: C_1  and  C_2
REMARK    2  A    between atoms: C_2  and  C_3
REMARK    3  A    between atoms: C_3  and  C_4
REMARK    4  A    between atoms: C_3  and  O_21
REMARK    5  A    between atoms: C_4  and  N_5
REMARK    6  A    between atoms: N_5  and  C_14
REMARK    7  A    between atoms: C_6  and  C_8
REMARK    8  A    between atoms: O_21  and  C_22
REMARK    9  A    between atoms: N_24  and  C_25
REMARK   10  A    between atoms: C_25  and  C_26
REMARK                            x       y       z     vdW  Elec       q    Type
REMARK                         _______ _______ _______ _____ _____    ______ ____
ROOT
ATOM      1  C   UNL     1       5.561   3.495  16.374  0.00  0.00    +0.000 C 
ENDROOT
BRANCH   1   2
ATOM      2  N   UNL     1       6.494   4.456  15.766  0.00  0.00    +0.000 N 
ATOM      3  C   UNL     1       6.878   4.593  14.415  0.00  0.00    +0.000 C 
ATOM      4  O   UNL     1       7.806   5.347  14.093  0.00  0.00    +0.000 OA
BRANCH   2   5
ATOM      5  C   UNL     1       7.179   5.250  16.739  0.00  0.00    +0.000 A 
ATOM      6  C   UNL     1       7.637   4.613  17.877  0.00  0.00    +0.000 A 
ATOM      7  C   UNL     1       7.998   5.375  18.975  0.00  0.00    +0.000 A 
ATOM      8  C   UNL     1       8.071   6.749  18.952  0.00  0.00    +0.000 A 
ATOM      9  C   UNL     1       7.664   7.383  17.802  0.00  0.00    +0.000 A 
ATOM     10 CL   UNL     1       7.741   9.101  17.759  0.00  0.00    +0.000 Cl
ATOM     11  C   UNL     1       7.184   6.650  16.703  0.00  0.00    +0.000 A 
ENDBRANCH   2   5
BRANCH   3  12
ATOM     12  C   UNL     1       6.172   3.944  13.250  0.00  0.00    +0.000 A 
ATOM     13  C   UNL     1       6.930   3.048  12.464  0.00  0.00    +0.000 A 
ATOM     14  C   UNL     1       6.360   2.317  11.412  0.00  0.00    +0.000 A 
ATOM     15  C   UNL     1       5.009   2.457  11.123  0.00  0.00    +0.000 A 
ATOM     16  C   UNL     1       4.237   3.333  11.879  0.00  0.00    +0.000 A 
ATOM     17  C   UNL     1       4.817   4.063  12.930  0.00  0.00    +0.000 A 
ENDBRANCH   3  12
ENDBRANCH   1   2
BRANCH   1  18
ATOM     18  C   UNL     1       4.589   4.056  17.474  0.00  0.00    +0.000 C 
BRANCH  18  20
ATOM     19  C   UNL     1       4.490   2.763  19.704  0.00  0.00    +0.000 C 
ATOM     20  C   UNL     1       3.987   2.876  18.267  0.00  0.00    +0.000 C 
ENDBRANCH  18  20
BRANCH  18  21
ATOM     21  O   UNL     1       3.514   4.913  16.960  0.00  0.00    +0.000 OA
BRANCH  21  22
ATOM     22  C   UNL     1       2.357   4.837  17.699  0.00  0.00    +0.000 C 
ATOM     23  O   UNL     1       1.439   4.058  17.454  0.00  0.00    +0.000 OA
ATOM     24  N   UNL     1       2.280   5.605  18.830  0.00  0.00    +0.000 N 
ATOM     25  H   UNL     1       1.446   5.381  19.356  0.00  0.00    +0.000 HD
BRANCH  24  26
ATOM     26  C   UNL     1       2.773   6.953  19.031  0.00  0.00    +0.000 C 
BRANCH  26  27
ATOM     27  C   UNL     1       1.796   7.934  19.656  0.00  0.00    +0.000 A 
ATOM     28  C   UNL     1       1.405   7.862  21.003  0.00  0.00    +0.000 A 
ATOM     29  C   UNL     1       0.895   8.996  21.658  0.00  0.00    +0.000 A 
ATOM     30  C   UNL     1       0.693  10.185  20.953  0.00  0.00    +0.000 A 
ATOM     31  C   UNL     1       0.923  10.217  19.578  0.00  0.00    +0.000 A 
ATOM     32  C   UNL     1       1.461   9.096  18.932  0.00  0.00    +0.000 A 
ENDBRANCH  26  27
ENDBRANCH  24  26
ENDBRANCH  21  22
ENDBRANCH  18  21
ENDBRANCH   1  18
TORSDOF 9
ENDMDL
MODEL 4
REMARK VINA RESULT:      -8.2      3.897      7.718
REMARK  Name = 
REMARK  10 active torsions:
REMARK  status: ('A' for Active; 'I' for Inactive)
REMARK    1  A    between atoms: C_1  and  C_2
REMARK    2  A    between atoms: C_2  and  C_3
REMARK    3  A    between atoms: C_3  and  C_4
REMARK    4  A    between atoms: C_3  and  O_21
REMARK    5  A    between atoms: C_4  and  N_5
REMARK    6  A    between atoms: N_5  and  C_14
REMARK    7  A    between atoms: C_6  and  C_8
REMARK    8  A    between atoms: O_21  and  C_22
REMARK    9  A    between atoms: N_24  and  C_25
REMARK   10  A    between atoms: C_25  and  C_26
REMARK                            x       y       z     vdW  Elec       q    Type
REMARK                         _______ _______ _______ _____ _____    ______ ____
ROOT
ATOM      1  C   UNL     1       3.127   6.135  17.702  0.00  0.00    +0.000 C 
ENDROOT
BRANCH   1   2
ATOM      2  N   UNL     1       3.777   5.042  18.439  0.00  0.00    +0.000 N 
ATOM      3  C   UNL     1       5.151   4.806  18.656  0.00  0.00    +0.000 C 
ATOM      4  O   UNL     1       5.541   3.743  19.157  0.00  0.00    +0.000 OA
BRANCH   2   5
ATOM      5  C   UNL     1       2.853   4.036  18.860  0.00  0.00    +0.000 A 
ATOM      6  C   UNL     1       1.960   3.553  17.922  0.00  0.00    +0.000 A 
ATOM      7  C   UNL     1       0.851   2.843  18.350  0.00  0.00    +0.000 A 
ATOM      8  C   UNL     1       0.659   2.455  19.656  0.00  0.00    +0.000 A 
ATOM      9  C   UNL     1       1.574   2.891  20.584  0.00  0.00    +0.000 A 
ATOM     10 CL   UNL     1       1.344   2.422  22.223  0.00  0.00    +0.000 Cl
ATOM     11  C   UNL     1       2.654   3.708  20.208  0.00  0.00    +0.000 A 
ENDBRANCH   2   5
BRANCH   3  12
ATOM     12  C   UNL     1       6.247   5.814  18.406  0.00  0.00    +0.000 A 
ATOM     13  C   UNL     1       6.005   6.781  17.405  0.00  0.00    +0.000 A 
ATOM     14  C   UNL     1       6.908   7.823  17.145  0.00  0.00    +0.000 A 
ATOM     15  C   UNL     1       8.077   7.929  17.888  0.00  0.00    +0.000 A 
ATOM     16  C   UNL     1       8.342   6.989  18.880  0.00  0.00    +0.000 A 
ATOM     17  C   UNL     1       7.432   5.948  19.132  0.00  0.00    +0.000 A 
ENDBRANCH   3  12
ENDBRANCH   1   2
BRANCH   1  18
ATOM     18  C   UNL     1       2.624   7.358  18.552  0.00  0.00    +0.000 C 
BRANCH  18  20
ATOM     19  C   UNL     1       1.573   7.923  20.839  0.00  0.00    +0.000 C 
ATOM     20  C   UNL     1       2.264   6.873  19.973  0.00  0.00    +0.000 C 
ENDBRANCH  18  20
BRANCH  18  21
ATOM     21  O   UNL     1       1.490   8.083  17.968  0.00  0.00    +0.000 OA
BRANCH  21  22
ATOM     22  C   UNL     1       1.731   9.426  17.799  0.00  0.00    +0.000 C 
ATOM     23  O   UNL     1       2.840   9.897  17.562  0.00  0.00    +0.000 OA
ATOM     24  N   UNL     1       0.648  10.265  17.795  0.00  0.00    +0.000 N 
ATOM     25  H   UNL     1       0.927  11.204  17.544  0.00  0.00    +0.000 HD
BRANCH  24  26
ATOM     26  C   UNL     1      -0.543  10.192  18.617  0.00  0.00    +0.000 C 
BRANCH  26  27
ATOM     27  C   UNL     1      -1.868  10.258  17.878  0.00  0.00    +0.000 A 
ATOM     28  C   UNL     1      -2.941  11.052  18.312  0.00  0.00    +0.000 A 
ATOM     29  C   UNL     1      -3.943  11.451  17.410  0.00  0.00    +0.000 A 
ATOM     30  C   UNL     1      -3.927  10.991  16.092  0.00  0.00    +0.000 A 
ATOM     31  C   UNL     1      -2.958  10.070  15.696  0.00  0.00    +0.000 A 
ATOM     32  C   UNL     1      -1.941   9.698  16.586  0.00  0.00    +0.000 A 
ENDBRANCH  26  27
ENDBRANCH  24  26
ENDBRANCH  21  22
ENDBRANCH  18  21
ENDBRANCH   1  18
TORSDOF 9
ENDMDL
MODEL 5
REMARK VINA RESULT:      -8.2      2.943      7.573
REMARK  Name = 
REMARK  10 active torsions:
REMARK  status: ('A' for Active; 'I' for Inactive)
REMARK    1  A    between atoms: C_1  and  C_2
REMARK    2  A    between atoms: C_2  and  C_3
REMARK    3  A    between atoms: C_3  and  C_4
REMARK    4  A    between atoms: C_3  and  O_21
REMARK    5  A    between atoms: C_4  and  N_5
REMARK    6  A    between atoms: N_5  and  C_14
REMARK    7  A    between atoms: C_6  and  C_8
REMARK    8  A    between atoms: O_21  and  C_22
REMARK    9  A    between atoms: N_24  and  C_25
REMARK   10  A    between atoms: C_25  and  C_26
REMARK                            x       y       z     vdW  Elec       q    Type
REMARK                         _______ _______ _______ _____ _____    ______ ____
ROOT
ATOM      1  C   UNL     1       4.553   6.040  16.130  0.00  0.00    +0.000 C 
ENDROOT
BRANCH   1   2
ATOM      2  N   UNL     1       4.847   4.618  16.360  0.00  0.00    +0.000 N 
ATOM      3  C   UNL     1       5.522   3.700  15.527  0.00  0.00    +0.000 C 
ATOM      4  O   UNL     1       5.537   2.492  15.796  0.00  0.00    +0.000 OA
BRANCH   2   5
ATOM      5  C   UNL     1       4.225   4.112  17.544  0.00  0.00    +0.000 A 
ATOM      6  C   UNL     1       5.039   3.836  18.627  0.00  0.00    +0.000 A 
ATOM      7  C   UNL     1       4.548   3.046  19.653  0.00  0.00    +0.000 A 
ATOM      8  C   UNL     1       3.236   2.639  19.735  0.00  0.00    +0.000 A 
ATOM      9  C   UNL     1       2.412   2.956  18.682  0.00  0.00    +0.000 A 
ATOM     10 CL   UNL     1       0.771   2.447  18.763  0.00  0.00    +0.000 Cl
ATOM     11  C   UNL     1       2.899   3.660  17.567  0.00  0.00    +0.000 A 
ENDBRANCH   2   5
BRANCH   3  12
ATOM     12  C   UNL     1       6.349   4.080  14.323  0.00  0.00    +0.000 A 
ATOM     13  C   UNL     1       6.001   3.474  13.095  0.00  0.00    +0.000 A 
ATOM     14  C   UNL     1       6.636   3.815  11.892  0.00  0.00    +0.000 A 
ATOM     15  C   UNL     1       7.634   4.781  11.884  0.00  0.00    +0.000 A 
ATOM     16  C   UNL     1       7.999   5.393  13.079  0.00  0.00    +0.000 A 
ATOM     17  C   UNL     1       7.358   5.044  14.280  0.00  0.00    +0.000 A 
ENDBRANCH   3  12
ENDBRANCH   1   2
BRANCH   1  18
ATOM     18  C   UNL     1       4.909   7.031  17.297  0.00  0.00    +0.000 C 
BRANCH  18  20
ATOM     19  C   UNL     1       2.706   7.200  18.627  0.00  0.00    +0.000 C 
ATOM     20  C   UNL     1       3.661   7.873  17.645  0.00  0.00    +0.000 C 
ENDBRANCH  18  20
BRANCH  18  21
ATOM     21  O   UNL     1       6.047   7.916  17.021  0.00  0.00    +0.000 OA
BRANCH  21  22
ATOM     22  C   UNL     1       7.208   7.518  17.640  0.00  0.00    +0.000 C 
ATOM     23  O   UNL     1       7.422   6.369  18.018  0.00  0.00    +0.000 OA
ATOM     24  N   UNL     1       8.216   8.440  17.743  0.00  0.00    +0.000 N 
ATOM     25  H   UNL     1       9.057   8.009  18.102  0.00  0.00    +0.000 HD
BRANCH  24  26
ATOM     26  C   UNL     1       8.105   9.858  18.016  0.00  0.00    +0.000 C 
BRANCH  26  27
ATOM     27  C   UNL     1       9.325  10.515  18.639  0.00  0.00    +0.000 A 
ATOM     28  C   UNL     1      10.279  11.216  17.884  0.00  0.00    +0.000 A 
ATOM     29  C   UNL     1      11.108  12.172  18.496  0.00  0.00    +0.000 A 
ATOM     30  C   UNL     1      11.050  12.376  19.876  0.00  0.00    +0.000 A 
ATOM     31  C   UNL     1      10.223  11.568  20.656  0.00  0.00    +0.000 A 
ATOM     32  C   UNL     1       9.374  10.637  20.043  0.00  0.00    +0.000 A 
ENDBRANCH  26  27
ENDBRANCH  24  26
ENDBRANCH  21  22
ENDBRANCH  18  21
ENDBRANCH   1  18
TORSDOF 9
ENDMDL
MODEL 6
REMARK VINA RESULT:      -8.2      3.795      8.369
REMARK  Name = 
REMARK  10 active torsions:
REMARK  status: ('A' for Active; 'I' for Inactive)
REMARK    1  A    between atoms: C_1  and  C_2
REMARK    2  A    between atoms: C_2  and  C_3
REMARK    3  A    between atoms: C_3  and  C_4
REMARK    4  A    between atoms: C_3  and  O_21
REMARK    5  A    between atoms: C_4  and  N_5
REMARK    6  A    between atoms: N_5  and  C_14
REMARK    7  A    between atoms: C_6  and  C_8
REMARK    8  A    between atoms: O_21  and  C_22
REMARK    9  A    between atoms: N_24  and  C_25
REMARK   10  A    between atoms: C_25  and  C_26
REMARK                            x       y       z     vdW  Elec       q    Type
REMARK                         _______ _______ _______ _____ _____    ______ ____
ROOT
ATOM      1  C   UNL     1       3.144   5.853  17.649  0.00  0.00    +0.000 C 
ENDROOT
BRANCH   1   2
ATOM      2  N   UNL     1       3.813   4.810  18.441  0.00  0.00    +0.000 N 
ATOM      3  C   UNL     1       5.188   4.629  18.699  0.00  0.00    +0.000 C 
ATOM      4  O   UNL     1       5.602   3.599  19.247  0.00  0.00    +0.000 OA
BRANCH   2   5
ATOM      5  C   UNL     1       2.913   3.786  18.876  0.00  0.00    +0.000 A 
ATOM      6  C   UNL     1       2.032   3.270  17.944  0.00  0.00    +0.000 A 
ATOM      7  C   UNL     1       0.941   2.539  18.382  0.00  0.00    +0.000 A 
ATOM      8  C   UNL     1       0.759   2.163  19.693  0.00  0.00    +0.000 A 
ATOM      9  C   UNL     1       1.663   2.634  20.615  0.00  0.00    +0.000 A 
ATOM     10 CL   UNL     1       1.445   2.181  22.260  0.00  0.00    +0.000 Cl
ATOM     11  C   UNL     1       2.723   3.472  20.227  0.00  0.00    +0.000 A 
ENDBRANCH   2   5
BRANCH   3  12
ATOM     12  C   UNL     1       6.254   5.666  18.439  0.00  0.00    +0.000 A 
ATOM     13  C   UNL     1       6.002   6.592  17.402  0.00  0.00    +0.000 A 
ATOM     14  C   UNL     1       6.875   7.655  17.127  0.00  0.00    +0.000 A 
ATOM     15  C   UNL     1       8.023   7.825  17.890  0.00  0.00    +0.000 A 
ATOM     16  C   UNL     1       8.298   6.927  18.917  0.00  0.00    +0.000 A 
ATOM     17  C   UNL     1       7.419   5.864  19.184  0.00  0.00    +0.000 A 
ENDBRANCH   3  12
ENDBRANCH   1   2
BRANCH   1  18
ATOM     18  C   UNL     1       2.388   6.972  18.453  0.00  0.00    +0.000 C 
BRANCH  18  20
ATOM     19  C   UNL     1       1.424   9.263  17.765  0.00  0.00    +0.000 C 
ATOM     20  C   UNL     1       2.637   8.338  17.775  0.00  0.00    +0.000 C 
ENDBRANCH  18  20
BRANCH  18  21
ATOM     21  O   UNL     1       2.743   7.048  19.875  0.00  0.00    +0.000 OA
BRANCH  21  22
ATOM     22  C   UNL     1       1.671   6.861  20.714  0.00  0.00    +0.000 C 
ATOM     23  O   UNL     1       1.037   5.811  20.790  0.00  0.00    +0.000 OA
ATOM     24  N   UNL     1       1.366   7.875  21.583  0.00  0.00    +0.000 N 
ATOM     25  H   UNL     1       0.644   7.583  22.229  0.00  0.00    +0.000 HD
BRANCH  24  26
ATOM     26  C   UNL     1       1.418   9.302  21.345  0.00  0.00    +0.000 C 
BRANCH  26  27
ATOM     27  C   UNL     1       0.128  10.067  21.590  0.00  0.00    +0.000 A 
ATOM     28  C   UNL     1      -0.502  10.110  22.844  0.00  0.00    +0.000 A 
ATOM     29  C   UNL     1      -1.391  11.153  23.159  0.00  0.00    +0.000 A 
ATOM     30  C   UNL     1      -1.721  12.111  22.198  0.00  0.00    +0.000 A 
ATOM     31  C   UNL     1      -1.228  11.982  20.900  0.00  0.00    +0.000 A 
ATOM     32  C   UNL     1      -0.317  10.961  20.596  0.00  0.00    +0.000 A 
ENDBRANCH  26  27
ENDBRANCH  24  26
ENDBRANCH  21  22
ENDBRANCH  18  21
ENDBRANCH   1  18
TORSDOF 9
ENDMDL
MODEL 7
REMARK VINA RESULT:      -8.1      3.466      7.201
REMARK  Name = 
REMARK  10 active torsions:
REMARK  status: ('A' for Active; 'I' for Inactive)
REMARK    1  A    between atoms: C_1  and  C_2
REMARK    2  A    between atoms: C_2  and  C_3
REMARK    3  A    between atoms: C_3  and  C_4
REMARK    4  A    between atoms: C_3  and  O_21
REMARK    5  A    between atoms: C_4  and  N_5
REMARK    6  A    between atoms: N_5  and  C_14
REMARK    7  A    between atoms: C_6  and  C_8
REMARK    8  A    between atoms: O_21  and  C_22
REMARK    9  A    between atoms: N_24  and  C_25
REMARK   10  A    between atoms: C_25  and  C_26
REMARK                            x       y       z     vdW  Elec       q    Type
REMARK                         _______ _______ _______ _____ _____    ______ ____
ROOT
ATOM      1  C   UNL     1       5.654   5.166  18.503  0.00  0.00    +0.000 C 
ENDROOT
BRANCH   1   2
ATOM      2  N   UNL     1       5.033   4.169  17.618  0.00  0.00    +0.000 N 
ATOM      3  C   UNL     1       4.022   3.227  17.904  0.00  0.00    +0.000 C 
ATOM      4  O   UNL     1       3.730   2.342  17.090  0.00  0.00    +0.000 OA
BRANCH   2   5
ATOM      5  C   UNL     1       5.671   4.094  16.340  0.00  0.00    +0.000 A 
ATOM      6  C   UNL     1       6.999   4.471  16.264  0.00  0.00    +0.000 A 
ATOM      7  C   UNL     1       7.554   4.734  15.023  0.00  0.00    +0.000 A 
ATOM      8  C   UNL     1       6.901   4.496  13.836  0.00  0.00    +0.000 A 
ATOM      9  C   UNL     1       5.596   4.071  13.909  0.00  0.00    +0.000 A 
ATOM     10 CL   UNL     1       4.761   3.777  12.434  0.00  0.00    +0.000 Cl
ATOM     11  C   UNL     1       4.958   3.900  15.150  0.00  0.00    +0.000 A 
ENDBRANCH   2   5
BRANCH   3  12
ATOM     12  C   UNL     1       3.153   3.249  19.138  0.00  0.00    +0.000 A 
ATOM     13  C   UNL     1       1.834   3.729  18.979  0.00  0.00    +0.000 A 
ATOM     14  C   UNL     1       0.905   3.713  20.030  0.00  0.00    +0.000 A 
ATOM     15  C   UNL     1       1.271   3.206  21.271  0.00  0.00    +0.000 A 
ATOM     16  C   UNL     1       2.564   2.728  21.457  0.00  0.00    +0.000 A 
ATOM     17  C   UNL     1       3.488   2.749  20.399  0.00  0.00    +0.000 A 
ENDBRANCH   3  12
ENDBRANCH   1   2
BRANCH   1  18
ATOM     18  C   UNL     1       5.427   6.676  18.132  0.00  0.00    +0.000 C 
BRANCH  18  20
ATOM     19  C   UNL     1       2.889   7.134  18.147  0.00  0.00    +0.000 C 
ATOM     20  C   UNL     1       4.124   6.806  17.312  0.00  0.00    +0.000 C 
ENDBRANCH  18  20
BRANCH  18  21
ATOM     21  O   UNL     1       6.538   7.300  17.404  0.00  0.00    +0.000 OA
BRANCH  21  22
ATOM     22  C   UNL     1       7.689   7.400  18.151  0.00  0.00    +0.000 C 
ATOM     23  O   UNL     1       8.121   6.499  18.865  0.00  0.00    +0.000 OA
ATOM     24  N   UNL     1       8.441   8.535  18.001  0.00  0.00    +0.000 N 
ATOM     25  H   UNL     1       9.317   8.449  18.499  0.00  0.00    +0.000 HD
BRANCH  24  26
ATOM     26  C   UNL     1       7.979   9.897  17.829  0.00  0.00    +0.000 C 
BRANCH  26  27
ATOM     27  C   UNL     1       8.899  10.985  18.356  0.00  0.00    +0.000 A 
ATOM     28  C   UNL     1       9.935  10.727  19.267  0.00  0.00    +0.000 A 
ATOM     29  C   UNL     1      11.023  11.612  19.378  0.00  0.00    +0.000 A 
ATOM     30  C   UNL     1      11.043  12.799  18.643  0.00  0.00    +0.000 A 
ATOM     31  C   UNL     1       9.940  13.142  17.860  0.00  0.00    +0.000 A 
ATOM     32  C   UNL     1       8.872  12.246  17.725  0.00  0.00    +0.000 A 
ENDBRANCH  26  27
ENDBRANCH  24  26
ENDBRANCH  21  22
ENDBRANCH  18  21
ENDBRANCH   1  18
TORSDOF 9
ENDMDL
MODEL 8
REMARK VINA RESULT:      -8.1      2.894      8.759
REMARK  Name = 
REMARK  10 active torsions:
REMARK  status: ('A' for Active; 'I' for Inactive)
REMARK    1  A    between atoms: C_1  and  C_2
REMARK    2  A    between atoms: C_2  and  C_3
REMARK    3  A    between atoms: C_3  and  C_4
REMARK    4  A    between atoms: C_3  and  O_21
REMARK    5  A    between atoms: C_4  and  N_5
REMARK    6  A    between atoms: N_5  and  C_14
REMARK    7  A    between atoms: C_6  and  C_8
REMARK    8  A    between atoms: O_21  and  C_22
REMARK    9  A    between atoms: N_24  and  C_25
REMARK   10  A    between atoms: C_25  and  C_26
REMARK                            x       y       z     vdW  Elec       q    Type
REMARK                         _______ _______ _______ _____ _____    ______ ____
ROOT
ATOM      1  C   UNL     1       4.504   5.515  18.744  0.00  0.00    +0.000 C 
ENDROOT
BRANCH   1   2
ATOM      2  N   UNL     1       4.532   4.253  17.991  0.00  0.00    +0.000 N 
ATOM      3  C   UNL     1       3.927   3.016  18.299  0.00  0.00    +0.000 C 
ATOM      4  O   UNL     1       4.190   2.000  17.643  0.00  0.00    +0.000 OA
BRANCH   2   5
ATOM      5  C   UNL     1       5.418   4.301  16.869  0.00  0.00    +0.000 A 
ATOM      6  C   UNL     1       6.630   4.943  17.037  0.00  0.00    +0.000 A 
ATOM      7  C   UNL     1       7.361   5.305  15.918  0.00  0.00    +0.000 A 
ATOM      8  C   UNL     1       7.024   4.926  14.639  0.00  0.00    +0.000 A 
ATOM      9  C   UNL     1       5.843   4.242  14.475  0.00  0.00    +0.000 A 
ATOM     10 CL   UNL     1       5.402   3.769  12.881  0.00  0.00    +0.000 Cl
ATOM     11  C   UNL     1       5.015   3.953  15.573  0.00  0.00    +0.000 A 
ENDBRANCH   2   5
BRANCH   3  12
ATOM     12  C   UNL     1       2.865   2.818  19.353  0.00  0.00    +0.000 A 
ATOM     13  C   UNL     1       3.308   2.697  20.689  0.00  0.00    +0.000 A 
ATOM     14  C   UNL     1       2.411   2.601  21.764  0.00  0.00    +0.000 A 
ATOM     15  C   UNL     1       1.043   2.631  21.529  0.00  0.00    +0.000 A 
ATOM     16  C   UNL     1       0.577   2.748  20.223  0.00  0.00    +0.000 A 
ATOM     17  C   UNL     1       1.483   2.842  19.153  0.00  0.00    +0.000 A 
ENDBRANCH   3  12
ENDBRANCH   1   2
BRANCH   1  18
ATOM     18  C   UNL     1       3.167   6.340  18.688  0.00  0.00    +0.000 C 
BRANCH  18  20
ATOM     19  C   UNL     1       2.560   8.550  17.504  0.00  0.00    +0.000 C 
ATOM     20  C   UNL     1       3.118   7.136  17.365  0.00  0.00    +0.000 C 
ENDBRANCH  18  20
BRANCH  18  21
ATOM     21  O   UNL     1       2.960   7.245  19.824  0.00  0.00    +0.000 OA
BRANCH  21  22
ATOM     22  C   UNL     1       1.835   6.949  20.557  0.00  0.00    +0.000 C 
ATOM     23  O   UNL     1       1.473   5.806  20.823  0.00  0.00    +0.000 OA
ATOM     24  N   UNL     1       1.145   7.999  21.104  0.00  0.00    +0.000 N 
ATOM     25  H   UNL     1       0.414   7.662  21.717  0.00  0.00    +0.000 HD
BRANCH  24  26
ATOM     26  C   UNL     1       0.888   9.300  20.522  0.00  0.00    +0.000 C 
BRANCH  26  27
ATOM     27  C   UNL     1       0.365  10.364  21.472  0.00  0.00    +0.000 A 
ATOM     28  C   UNL     1       0.437  11.737  21.187  0.00  0.00    +0.000 A 
ATOM     29  C   UNL     1      -0.430  12.643  21.823  0.00  0.00    +0.000 A 
ATOM     30  C   UNL     1      -1.316  12.197  22.806  0.00  0.00    +0.000 A 
ATOM     31  C   UNL     1      -1.278  10.864  23.213  0.00  0.00    +0.000 A 
ATOM     32  C   UNL     1      -0.437   9.956  22.556  0.00  0.00    +0.000 A 
ENDBRANCH  26  27
ENDBRANCH  24  26
ENDBRANCH  21  22
ENDBRANCH  18  21
ENDBRANCH   1  18
TORSDOF 9
ENDMDL
MODEL 9
REMARK VINA RESULT:      -8.0      2.090      8.260
REMARK  Name = 
REMARK  10 active torsions:
REMARK  status: ('A' for Active; 'I' for Inactive)
REMARK    1  A    between atoms: C_1  and  C_2
REMARK    2  A    between atoms: C_2  and  C_3
REMARK    3  A    between atoms: C_3  and  C_4
REMARK    4  A    between atoms: C_3  and  O_21
REMARK    5  A    between atoms: C_4  and  N_5
REMARK    6  A    between atoms: N_5  and  C_14
REMARK    7  A    between atoms: C_6  and  C_8
REMARK    8  A    between atoms: O_21  and  C_22
REMARK    9  A    between atoms: N_24  and  C_25
REMARK   10  A    between atoms: C_25  and  C_26
REMARK                            x       y       z     vdW  Elec       q    Type
REMARK                         _______ _______ _______ _____ _____    ______ ____
ROOT
ATOM      1  C   UNL     1       5.305   3.545  16.354  0.00  0.00    +0.000 C 
ENDROOT
BRANCH   1   2
ATOM      2  N   UNL     1       6.329   4.387  15.718  0.00  0.00    +0.000 N 
ATOM      3  C   UNL     1       6.774   4.393  14.379  0.00  0.00    +0.000 C 
ATOM      4  O   UNL     1       7.768   5.050  14.043  0.00  0.00    +0.000 OA
BRANCH   2   5
ATOM      5  C   UNL     1       7.034   5.201  16.659  0.00  0.00    +0.000 A 
ATOM      6  C   UNL     1       7.572   4.577  17.769  0.00  0.00    +0.000 A 
ATOM      7  C   UNL     1       7.961   5.348  18.852  0.00  0.00    +0.000 A 
ATOM      8  C   UNL     1       7.985   6.723  18.832  0.00  0.00    +0.000 A 
ATOM      9  C   UNL     1       7.497   7.346  17.708  0.00  0.00    +0.000 A 
ATOM     10 CL   UNL     1       7.510   9.066  17.671  0.00  0.00    +0.000 Cl
ATOM     11  C   UNL     1       6.987   6.601  16.631  0.00  0.00    +0.000 A 
ENDBRANCH   2   5
BRANCH   3  12
ATOM     12  C   UNL     1       6.065   3.709  13.235  0.00  0.00    +0.000 A 
ATOM     13  C   UNL     1       4.759   4.156  12.938  0.00  0.00    +0.000 A 
ATOM     14  C   UNL     1       4.035   3.662  11.842  0.00  0.00    +0.000 A 
ATOM     15  C   UNL     1       4.605   2.709  11.008  0.00  0.00    +0.000 A 
ATOM     16  C   UNL     1       5.890   2.248  11.278  0.00  0.00    +0.000 A 
ATOM     17  C   UNL     1       6.607   2.748  12.378  0.00  0.00    +0.000 A 
ENDBRANCH   3  12
ENDBRANCH   1   2
BRANCH   1  18
ATOM     18  C   UNL     1       4.467   4.205  17.509  0.00  0.00    +0.000 C 
BRANCH  18  20
ATOM     19  C   UNL     1       3.885   1.799  18.233  0.00  0.00    +0.000 C 
ATOM     20  C   UNL     1       4.321   3.196  18.669  0.00  0.00    +0.000 C 
ENDBRANCH  18  20
BRANCH  18  21
ATOM     21  O   UNL     1       3.144   4.693  17.101  0.00  0.00    +0.000 OA
BRANCH  21  22
ATOM     22  C   UNL     1       2.302   4.931  18.162  0.00  0.00    +0.000 C 
ATOM     23  O   UNL     1       1.503   4.106  18.599  0.00  0.00    +0.000 OA
ATOM     24  N   UNL     1       2.444   6.121  18.825  0.00  0.00    +0.000 N 
ATOM     25  H   UNL     1       1.864   6.137  19.653  0.00  0.00    +0.000 HD
BRANCH  24  26
ATOM     26  C   UNL     1       2.732   7.426  18.268  0.00  0.00    +0.000 C 
BRANCH  26  27
ATOM     27  C   UNL     1       1.889   8.576  18.792  0.00  0.00    +0.000 A 
ATOM     28  C   UNL     1       1.280   9.518  17.947  0.00  0.00    +0.000 A 
ATOM     29  C   UNL     1       0.172  10.261  18.391  0.00  0.00    +0.000 A 
ATOM     30  C   UNL     1      -0.282  10.131  19.705  0.00  0.00    +0.000 A 
ATOM     31  C   UNL     1       0.419   9.322  20.599  0.00  0.00    +0.000 A 
ATOM     32  C   UNL     1       1.503   8.557  20.148  0.00  0.00    +0.000 A 
ENDBRANCH  26  27
ENDBRANCH  24  26
ENDBRANCH  21  22
ENDBRANCH  18  21
ENDBRANCH   1  18
TORSDOF 9
ENDMDL
