MODEL 1
REMARK VINA RESULT:      -7.1      0.000      0.000
REMARK  Name = 
REMARK  7 active torsions:
REMARK  status: ('A' for Active; 'I' for Inactive)
REMARK    1  A    between atoms: C_1  and  O_2
REMARK    2  A    between atoms: O_2  and  C_3
REMARK    3  A    between atoms: C_3  and  C_4
REMARK    4  A    between atoms: C_4  and  C_5
REMARK    5  A    between atoms: C_7  and  C_8
REMARK    6  A    between atoms: N_13  and  C_14
REMARK    7  A    between atoms: C_14  and  C_15
REMARK                            x       y       z     vdW  Elec       q    Type
REMARK                         _______ _______ _______ _____ _____    ______ ____
ROOT
ATOM      1  C   UNL     1       3.219   7.338  17.734  0.00  0.00    +0.000 A 
ATOM      2  N   UNL     1       4.407   7.083  17.097  0.00  0.00    +0.000 NA
ATOM      3  C   UNL     1       4.449   5.768  16.996  0.00  0.00    +0.000 A 
ATOM      4  N   UNL     1       3.277   5.265  17.507  0.00  0.00    +0.000 N 
ATOM      5  N   UNL     1       2.513   6.244  18.036  0.00  0.00    +0.000 NA
ENDROOT
BRANCH   3   6
ATOM      6  C   UNL     1       5.576   4.915  16.487  0.00  0.00    +0.000 C 
ATOM      7  C   UNL     1       5.462   4.587  15.010  0.00  0.00    +0.000 C 
ATOM      8  C   UNL     1       6.884   4.608  14.505  0.00  0.00    +0.000 C 
ATOM      9  O   UNL     1       7.582   5.542  15.324  0.00  0.00    +0.000 OA
ATOM     10  C   UNL     1       6.963   5.540  16.622  0.00  0.00    +0.000 C 
ENDBRANCH   3   6
BRANCH   1  11
ATOM     11  C   UNL     1       2.758   8.697  18.113  0.00  0.00    +0.000 C 
BRANCH  11  12
ATOM     12  C   UNL     1       1.324   8.978  17.683  0.00  0.00    +0.000 C 
BRANCH  12  14
ATOM     13  C   UNL     1       0.852   9.544  19.928  0.00  0.00    +0.000 C 
ATOM     14  O   UNL     1       0.755   9.950  18.568  0.00  0.00    +0.000 OA
ENDBRANCH  12  14
ENDBRANCH  11  12
ENDBRANCH   1  11
BRANCH   4  15
ATOM     15  C   UNL     1       2.800   3.886  17.554  0.00  0.00    +0.000 C 
BRANCH  15  16
ATOM     16  C   UNL     1       2.390   3.443  18.947  0.00  0.00    +0.000 A 
ATOM     17  C   UNL     1       1.036   3.432  19.340  0.00  0.00    +0.000 A 
ATOM     18  C   UNL     1       0.652   3.031  20.622  0.00  0.00    +0.000 A 
ATOM     19  C   UNL     1       1.613   2.649  21.547  0.00  0.00    +0.000 A 
ATOM     20  C   UNL     1       2.962   2.692  21.199  0.00  0.00    +0.000 A 
ATOM     21  C   UNL     1       3.348   3.100  19.917  0.00  0.00    +0.000 A 
ATOM     22 CL   UNL     1       5.044   3.172  19.591  0.00  0.00    +0.000 Cl
ENDBRANCH  15  16
ENDBRANCH   4  15
TORSDOF 6
ENDMDL
MODEL 2
REMARK VINA RESULT:      -6.8      1.123      1.489
REMARK  Name = 
REMARK  7 active torsions:
REMARK  status: ('A' for Active; 'I' for Inactive)
REMARK    1  A    between atoms: C_1  and  O_2
REMARK    2  A    between atoms: O_2  and  C_3
REMARK    3  A    between atoms: C_3  and  C_4
REMARK    4  A    between atoms: C_4  and  C_5
REMARK    5  A    between atoms: C_7  and  C_8
REMARK    6  A    between atoms: N_13  and  C_14
REMARK    7  A    between atoms: C_14  and  C_15
REMARK                            x       y       z     vdW  Elec       q    Type
REMARK                         _______ _______ _______ _____ _____    ______ ____
ROOT
ATOM      1  C   UNL     1       3.414   7.277  17.727  0.00  0.00    +0.000 A 
ATOM      2  N   UNL     1       4.214   6.887  16.685  0.00  0.00    +0.000 NA
ATOM      3  C   UNL     1       4.763   5.759  17.096  0.00  0.00    +0.000 A 
ATOM      4  N   UNL     1       4.242   5.460  18.332  0.00  0.00    +0.000 N 
ATOM      5  N   UNL     1       3.432   6.445  18.773  0.00  0.00    +0.000 NA
ENDROOT
BRANCH   3   6
ATOM      6  C   UNL     1       5.821   4.941  16.413  0.00  0.00    +0.000 C 
ATOM      7  C   UNL     1       5.546   4.714  14.938  0.00  0.00    +0.000 C 
ATOM      8  C   UNL     1       6.906   4.767  14.285  0.00  0.00    +0.000 C 
ATOM      9  O   UNL     1       7.696   5.643  15.084  0.00  0.00    +0.000 OA
ATOM     10  C   UNL     1       7.220   5.555  16.438  0.00  0.00    +0.000 C 
ENDBRANCH   3   6
BRANCH   1  11
ATOM     11  C   UNL     1       2.623   8.533  17.739  0.00  0.00    +0.000 C 
BRANCH  11  12
ATOM     12  C   UNL     1       1.763   8.682  18.987  0.00  0.00    +0.000 C 
BRANCH  12  14
ATOM     13  C   UNL     1      -0.024  10.008  18.193  0.00  0.00    +0.000 C 
ATOM     14  O   UNL     1       1.158   9.981  18.983  0.00  0.00    +0.000 OA
ENDBRANCH  12  14
ENDBRANCH  11  12
ENDBRANCH   1  11
BRANCH   4  15
ATOM     15  C   UNL     1       4.461   4.288  19.174  0.00  0.00    +0.000 C 
BRANCH  15  16
ATOM     16  C   UNL     1       3.174   3.702  19.728  0.00  0.00    +0.000 A 
ATOM     17  C   UNL     1       2.906   3.710  21.112  0.00  0.00    +0.000 A 
ATOM     18  C   UNL     1       1.727   3.169  21.629  0.00  0.00    +0.000 A 
ATOM     19  C   UNL     1       0.796   2.591  20.777  0.00  0.00    +0.000 A 
ATOM     20  C   UNL     1       1.055   2.531  19.409  0.00  0.00    +0.000 A 
ATOM     21  C   UNL     1       2.240   3.068  18.891  0.00  0.00    +0.000 A 
ATOM     22 CL   UNL     1       2.501   2.902  17.191  0.00  0.00    +0.000 Cl
ENDBRANCH  15  16
ENDBRANCH   4  15
TORSDOF 6
ENDMDL
MODEL 3
REMARK VINA RESULT:      -6.7      1.593      2.041
REMARK  Name = 
REMARK  7 active torsions:
REMARK  status: ('A' for Active; 'I' for Inactive)
REMARK    1  A    between atoms: C_1  and  O_2
REMARK    2  A    between atoms: O_2  and  C_3
REMARK    3  A    between atoms: C_3  and  C_4
REMARK    4  A    between atoms: C_4  and  C_5
REMARK    5  A    between atoms: C_7  and  C_8
REMARK    6  A    between atoms: N_13  and  C_14
REMARK    7  A    between atoms: C_14  and  C_15
REMARK                            x       y       z     vdW  Elec       q    Type
REMARK                         _______ _______ _______ _____ _____    ______ ____
ROOT
ATOM      1  C   UNL     1       2.905   7.912  17.919  0.00  0.00    +0.000 A 
ATOM      2  N   UNL     1       3.901   7.485  17.079  0.00  0.00    +0.000 NA
ATOM      3  C   UNL     1       4.416   6.433  17.687  0.00  0.00    +0.000 A 
ATOM      4  N   UNL     1       3.691   6.208  18.832  0.00  0.00    +0.000 N 
ATOM      5  N   UNL     1       2.769   7.174  19.025  0.00  0.00    +0.000 NA
ENDROOT
BRANCH   3   6
ATOM      6  C   UNL     1       5.618   5.627  17.284  0.00  0.00    +0.000 C 
ATOM      7  C   UNL     1       5.493   5.009  15.905  0.00  0.00    +0.000 C 
ATOM      8  C   UNL     1       6.885   5.089  15.325  0.00  0.00    +0.000 C 
ATOM      9  O   UNL     1       7.494   6.235  15.912  0.00  0.00    +0.000 OA
ATOM     10  C   UNL     1       6.924   6.417  17.220  0.00  0.00    +0.000 C 
ENDBRANCH   3   6
BRANCH   1  11
ATOM     11  C   UNL     1       2.069   9.113  17.670  0.00  0.00    +0.000 C 
BRANCH  11  12
ATOM     12  C   UNL     1       1.274   9.546  18.894  0.00  0.00    +0.000 C 
BRANCH  12  14
ATOM     13  C   UNL     1      -0.583  10.966  19.236  0.00  0.00    +0.000 C 
ATOM     14  O   UNL     1      -0.061   9.876  18.488  0.00  0.00    +0.000 OA
ENDBRANCH  12  14
ENDBRANCH  11  12
ENDBRANCH   1  11
BRANCH   4  15
ATOM     15  C   UNL     1       3.804   5.127  19.806  0.00  0.00    +0.000 C 
BRANCH  15  16
ATOM     16  C   UNL     1       3.087   3.859  19.378  0.00  0.00    +0.000 A 
ATOM     17  C   UNL     1       3.734   2.886  18.589  0.00  0.00    +0.000 A 
ATOM     18  C   UNL     1       3.079   1.720  18.187  0.00  0.00    +0.000 A 
ATOM     19  C   UNL     1       1.756   1.507  18.549  0.00  0.00    +0.000 A 
ATOM     20  C   UNL     1       1.079   2.473  19.291  0.00  0.00    +0.000 A 
ATOM     21  C   UNL     1       1.733   3.645  19.689  0.00  0.00    +0.000 A 
ATOM     22 CL   UNL     1       0.801   4.809  20.562  0.00  0.00    +0.000 Cl
ENDBRANCH  15  16
ENDBRANCH   4  15
TORSDOF 6
ENDMDL
MODEL 4
REMARK VINA RESULT:      -6.7      2.320      5.125
REMARK  Name = 
REMARK  7 active torsions:
REMARK  status: ('A' for Active; 'I' for Inactive)
REMARK    1  A    between atoms: C_1  and  O_2
REMARK    2  A    between atoms: O_2  and  C_3
REMARK    3  A    between atoms: C_3  and  C_4
REMARK    4  A    between atoms: C_4  and  C_5
REMARK    5  A    between atoms: C_7  and  C_8
REMARK    6  A    between atoms: N_13  and  C_14
REMARK    7  A    between atoms: C_14  and  C_15
REMARK                            x       y       z     vdW  Elec       q    Type
REMARK                         _______ _______ _______ _____ _____    ______ ____
ROOT
ATOM      1  C   UNL     1       2.603   7.422  18.272  0.00  0.00    +0.000 A 
ATOM      2  N   UNL     1       2.048   6.563  19.186  0.00  0.00    +0.000 NA
ATOM      3  C   UNL     1       2.985   5.658  19.397  0.00  0.00    +0.000 A 
ATOM      4  N   UNL     1       4.093   6.016  18.668  0.00  0.00    +0.000 N 
ATOM      5  N   UNL     1       3.845   7.099  17.901  0.00  0.00    +0.000 NA
ENDROOT
BRANCH   3   6
ATOM      6  C   UNL     1       2.894   4.404  20.220  0.00  0.00    +0.000 C 
ATOM      7  C   UNL     1       1.605   4.299  21.012  0.00  0.00    +0.000 C 
ATOM      8  C   UNL     1       1.254   2.831  20.975  0.00  0.00    +0.000 C 
ATOM      9  O   UNL     1       1.779   2.329  19.750  0.00  0.00    +0.000 OA
ATOM     10  C   UNL     1       2.941   3.107  19.415  0.00  0.00    +0.000 C 
ENDBRANCH   3   6
BRANCH   1  11
ATOM     11  C   UNL     1       1.890   8.587  17.692  0.00  0.00    +0.000 C 
BRANCH  11  12
ATOM     12  C   UNL     1       1.452   9.598  18.742  0.00  0.00    +0.000 C 
BRANCH  12  14
ATOM     13  C   UNL     1      -0.733  10.194  19.417  0.00  0.00    +0.000 C 
ATOM     14  O   UNL     1       0.199  10.170  18.344  0.00  0.00    +0.000 OA
ENDBRANCH  12  14
ENDBRANCH  11  12
ENDBRANCH   1  11
BRANCH   4  15
ATOM     15  C   UNL     1       5.414   5.396  18.618  0.00  0.00    +0.000 C 
BRANCH  15  16
ATOM     16  C   UNL     1       5.854   5.040  17.209  0.00  0.00    +0.000 A 
ATOM     17  C   UNL     1       5.304   3.935  16.530  0.00  0.00    +0.000 A 
ATOM     18  C   UNL     1       5.707   3.599  15.236  0.00  0.00    +0.000 A 
ATOM     19  C   UNL     1       6.684   4.350  14.596  0.00  0.00    +0.000 A 
ATOM     20  C   UNL     1       7.276   5.422  15.261  0.00  0.00    +0.000 A 
ATOM     21  C   UNL     1       6.876   5.755  16.560  0.00  0.00    +0.000 A 
ATOM     22 CL   UNL     1       7.701   7.067  17.325  0.00  0.00    +0.000 Cl
ENDBRANCH  15  16
ENDBRANCH   4  15
TORSDOF 6
ENDMDL
MODEL 5
REMARK VINA RESULT:      -6.7      2.963      5.425
REMARK  Name = 
REMARK  7 active torsions:
REMARK  status: ('A' for Active; 'I' for Inactive)
REMARK    1  A    between atoms: C_1  and  O_2
REMARK    2  A    between atoms: O_2  and  C_3
REMARK    3  A    between atoms: C_3  and  C_4
REMARK    4  A    between atoms: C_4  and  C_5
REMARK    5  A    between atoms: C_7  and  C_8
REMARK    6  A    between atoms: N_13  and  C_14
REMARK    7  A    between atoms: C_14  and  C_15
REMARK                            x       y       z     vdW  Elec       q    Type
REMARK                         _______ _______ _______ _____ _____    ______ ____
ROOT
ATOM      1  C   UNL     1       1.907   7.323  19.909  0.00  0.00    +0.000 A 
ATOM      2  N   UNL     1       1.615   6.164  20.580  0.00  0.00    +0.000 NA
ATOM      3  C   UNL     1       2.200   5.216  19.871  0.00  0.00    +0.000 A 
ATOM      4  N   UNL     1       2.878   5.818  18.838  0.00  0.00    +0.000 N 
ATOM      5  N   UNL     1       2.651   7.148  18.812  0.00  0.00    +0.000 NA
ENDROOT
BRANCH   3   6
ATOM      6  C   UNL     1       2.121   3.729  20.067  0.00  0.00    +0.000 C 
ATOM      7  C   UNL     1       3.380   3.134  20.668  0.00  0.00    +0.000 C 
ATOM      8  C   UNL     1       2.885   2.044  21.587  0.00  0.00    +0.000 C 
ATOM      9  O   UNL     1       1.600   2.460  22.039  0.00  0.00    +0.000 OA
ATOM     10  C   UNL     1       1.009   3.268  21.007  0.00  0.00    +0.000 C 
ENDBRANCH   3   6
BRANCH   1  11
ATOM     11  C   UNL     1       1.412   8.662  20.315  0.00  0.00    +0.000 C 
BRANCH  11  12
ATOM     12  C   UNL     1       1.120   8.760  21.806  0.00  0.00    +0.000 C 
BRANCH  12  14
ATOM     13  C   UNL     1      -0.477   9.793  23.207  0.00  0.00    +0.000 C 
ATOM     14  O   UNL     1      -0.262   9.095  21.988  0.00  0.00    +0.000 OA
ENDBRANCH  12  14
ENDBRANCH  11  12
ENDBRANCH   1  11
BRANCH   4  15
ATOM     15  C   UNL     1       3.745   5.224  17.825  0.00  0.00    +0.000 C 
BRANCH  15  16
ATOM     16  C   UNL     1       5.204   5.611  17.986  0.00  0.00    +0.000 A 
ATOM     17  C   UNL     1       5.908   5.322  19.172  0.00  0.00    +0.000 A 
ATOM     18  C   UNL     1       7.250   5.679  19.330  0.00  0.00    +0.000 A 
ATOM     19  C   UNL     1       7.913   6.349  18.311  0.00  0.00    +0.000 A 
ATOM     20  C   UNL     1       7.229   6.685  17.145  0.00  0.00    +0.000 A 
ATOM     21  C   UNL     1       5.883   6.333  16.990  0.00  0.00    +0.000 A 
ATOM     22 CL   UNL     1       5.101   6.836  15.533  0.00  0.00    +0.000 Cl
ENDBRANCH  15  16
ENDBRANCH   4  15
TORSDOF 6
ENDMDL
MODEL 6
REMARK VINA RESULT:      -6.6      1.763      4.465
REMARK  Name = 
REMARK  7 active torsions:
REMARK  status: ('A' for Active; 'I' for Inactive)
REMARK    1  A    between atoms: C_1  and  O_2
REMARK    2  A    between atoms: O_2  and  C_3
REMARK    3  A    between atoms: C_3  and  C_4
REMARK    4  A    between atoms: C_4  and  C_5
REMARK    5  A    between atoms: C_7  and  C_8
REMARK    6  A    between atoms: N_13  and  C_14
REMARK    7  A    between atoms: C_14  and  C_15
REMARK                            x       y       z     vdW  Elec       q    Type
REMARK                         _______ _______ _______ _____ _____    ______ ____
ROOT
ATOM      1  C   UNL     1       5.863   6.110  17.531  0.00  0.00    +0.000 A 
ATOM      2  N   UNL     1       4.981   7.047  18.006  0.00  0.00    +0.000 NA
ATOM      3  C   UNL     1       3.814   6.429  18.006  0.00  0.00    +0.000 A 
ATOM      4  N   UNL     1       4.020   5.133  17.600  0.00  0.00    +0.000 N 
ATOM      5  N   UNL     1       5.305   4.932  17.236  0.00  0.00    +0.000 NA
ENDROOT
BRANCH   3   6
ATOM      6  C   UNL     1       2.462   7.005  18.318  0.00  0.00    +0.000 C 
ATOM      7  C   UNL     1       2.233   7.232  19.800  0.00  0.00    +0.000 C 
ATOM      8  C   UNL     1       1.430   8.509  19.869  0.00  0.00    +0.000 C 
ATOM      9  O   UNL     1       1.813   9.280  18.734  0.00  0.00    +0.000 OA
ATOM     10  C   UNL     1       2.188   8.369  17.687  0.00  0.00    +0.000 C 
ENDBRANCH   3   6
BRANCH   1  11
ATOM     11  C   UNL     1       7.307   6.370  17.309  0.00  0.00    +0.000 C 
BRANCH  11  12
ATOM     12  C   UNL     1       7.649   7.853  17.305  0.00  0.00    +0.000 C 
BRANCH  12  14
ATOM     13  C   UNL     1       8.678   9.550  18.587  0.00  0.00    +0.000 C 
ATOM     14  O   UNL     1       8.410   8.158  18.481  0.00  0.00    +0.000 OA
ENDBRANCH  12  14
ENDBRANCH  11  12
ENDBRANCH   1  11
BRANCH   4  15
ATOM     15  C   UNL     1       3.073   4.026  17.508  0.00  0.00    +0.000 C 
BRANCH  15  16
ATOM     16  C   UNL     1       2.495   3.621  18.853  0.00  0.00    +0.000 A 
ATOM     17  C   UNL     1       1.140   3.851  19.164  0.00  0.00    +0.000 A 
ATOM     18  C   UNL     1       0.604   3.486  20.401  0.00  0.00    +0.000 A 
ATOM     19  C   UNL     1       1.414   2.898  21.363  0.00  0.00    +0.000 A 
ATOM     20  C   UNL     1       2.767   2.698  21.097  0.00  0.00    +0.000 A 
ATOM     21  C   UNL     1       3.307   3.070  19.860  0.00  0.00    +0.000 A 
ATOM     22 CL   UNL     1       5.004   2.833  19.639  0.00  0.00    +0.000 Cl
ENDBRANCH  15  16
ENDBRANCH   4  15
TORSDOF 6
ENDMDL
MODEL 7
REMARK VINA RESULT:      -6.6      1.411      4.852
REMARK  Name = 
REMARK  7 active torsions:
REMARK  status: ('A' for Active; 'I' for Inactive)
REMARK    1  A    between atoms: C_1  and  O_2
REMARK    2  A    between atoms: O_2  and  C_3
REMARK    3  A    between atoms: C_3  and  C_4
REMARK    4  A    between atoms: C_4  and  C_5
REMARK    5  A    between atoms: C_7  and  C_8
REMARK    6  A    between atoms: N_13  and  C_14
REMARK    7  A    between atoms: C_14  and  C_15
REMARK                            x       y       z     vdW  Elec       q    Type
REMARK                         _______ _______ _______ _____ _____    ______ ____
ROOT
ATOM      1  C   UNL     1       5.504   4.798  16.579  0.00  0.00    +0.000 A 
ATOM      2  N   UNL     1       4.867   5.836  17.208  0.00  0.00    +0.000 NA
ATOM      3  C   UNL     1       3.699   5.336  17.568  0.00  0.00    +0.000 A 
ATOM      4  N   UNL     1       3.679   4.009  17.212  0.00  0.00    +0.000 N 
ATOM      5  N   UNL     1       4.792   3.668  16.529  0.00  0.00    +0.000 NA
ENDROOT
BRANCH   3   6
ATOM      6  C   UNL     1       2.537   6.054  18.193  0.00  0.00    +0.000 C 
ATOM      7  C   UNL     1       2.694   6.265  19.687  0.00  0.00    +0.000 C 
ATOM      8  C   UNL     1       2.087   7.623  19.944  0.00  0.00    +0.000 C 
ATOM      9  O   UNL     1       2.278   8.376  18.751  0.00  0.00    +0.000 OA
ATOM     10  C   UNL     1       2.283   7.457  17.645  0.00  0.00    +0.000 C 
ENDBRANCH   3   6
BRANCH   1  11
ATOM     11  C   UNL     1       6.847   4.906  15.957  0.00  0.00    +0.000 C 
BRANCH  11  12
ATOM     12  C   UNL     1       6.794   4.942  14.435  0.00  0.00    +0.000 C 
BRANCH  12  14
ATOM     13  C   UNL     1       5.914   3.580  12.718  0.00  0.00    +0.000 C 
ATOM     14  O   UNL     1       6.634   3.606  13.944  0.00  0.00    +0.000 OA
ENDBRANCH  12  14
ENDBRANCH  11  12
ENDBRANCH   1  11
BRANCH   4  15
ATOM     15  C   UNL     1       2.656   2.997  17.458  0.00  0.00    +0.000 C 
BRANCH  15  16
ATOM     16  C   UNL     1       2.242   2.908  18.916  0.00  0.00    +0.000 A 
ATOM     17  C   UNL     1       0.919   3.185  19.317  0.00  0.00    +0.000 A 
ATOM     18  C   UNL     1       0.533   3.109  20.657  0.00  0.00    +0.000 A 
ATOM     19  C   UNL     1       1.463   2.773  21.630  0.00  0.00    +0.000 A 
ATOM     20  C   UNL     1       2.788   2.537  21.267  0.00  0.00    +0.000 A 
ATOM     21  C   UNL     1       3.177   2.618  19.925  0.00  0.00    +0.000 A 
ATOM     22 CL   UNL     1       4.850   2.360  19.574  0.00  0.00    +0.000 Cl
ENDBRANCH  15  16
ENDBRANCH   4  15
TORSDOF 6
ENDMDL
MODEL 8
REMARK VINA RESULT:      -6.6      1.292      1.634
REMARK  Name = 
REMARK  7 active torsions:
REMARK  status: ('A' for Active; 'I' for Inactive)
REMARK    1  A    between atoms: C_1  and  O_2
REMARK    2  A    between atoms: O_2  and  C_3
REMARK    3  A    between atoms: C_3  and  C_4
REMARK    4  A    between atoms: C_4  and  C_5
REMARK    5  A    between atoms: C_7  and  C_8
REMARK    6  A    between atoms: N_13  and  C_14
REMARK    7  A    between atoms: C_14  and  C_15
REMARK                            x       y       z     vdW  Elec       q    Type
REMARK                         _______ _______ _______ _____ _____    ______ ____
ROOT
ATOM      1  C   UNL     1       2.607   8.144  18.058  0.00  0.00    +0.000 A 
ATOM      2  N   UNL     1       3.632   7.678  17.276  0.00  0.00    +0.000 NA
ATOM      3  C   UNL     1       4.087   6.622  17.924  0.00  0.00    +0.000 A 
ATOM      4  N   UNL     1       3.298   6.434  19.034  0.00  0.00    +0.000 N 
ATOM      5  N   UNL     1       2.394   7.428  19.166  0.00  0.00    +0.000 NA
ENDROOT
BRANCH   3   6
ATOM      6  C   UNL     1       5.285   5.778  17.596  0.00  0.00    +0.000 C 
ATOM      7  C   UNL     1       5.211   5.137  16.223  0.00  0.00    +0.000 C 
ATOM      8  C   UNL     1       6.630   5.171  15.710  0.00  0.00    +0.000 C 
ATOM      9  O   UNL     1       7.240   6.312  16.306  0.00  0.00    +0.000 OA
ATOM     10  C   UNL     1       6.613   6.533  17.580  0.00  0.00    +0.000 C 
ENDBRANCH   3   6
BRANCH   1  11
ATOM     11  C   UNL     1       1.818   9.363  17.750  0.00  0.00    +0.000 C 
BRANCH  11  12
ATOM     12  C   UNL     1       0.904   9.783  18.892  0.00  0.00    +0.000 C 
BRANCH  12  14
ATOM     13  C   UNL     1      -1.046  11.054  19.299  0.00  0.00    +0.000 C 
ATOM     14  O   UNL     1      -0.321  10.287  18.346  0.00  0.00    +0.000 OA
ENDBRANCH  12  14
ENDBRANCH  11  12
ENDBRANCH   1  11
BRANCH   4  15
ATOM     15  C   UNL     1       3.332   5.365  20.027  0.00  0.00    +0.000 C 
BRANCH  15  16
ATOM     16  C   UNL     1       2.588   4.117  19.588  0.00  0.00    +0.000 A 
ATOM     17  C   UNL     1       1.179   4.079  19.560  0.00  0.00    +0.000 A 
ATOM     18  C   UNL     1       0.488   2.932  19.162  0.00  0.00    +0.000 A 
ATOM     19  C   UNL     1       1.189   1.791  18.799  0.00  0.00    +0.000 A 
ATOM     20  C   UNL     1       2.581   1.787  18.858  0.00  0.00    +0.000 A 
ATOM     21  C   UNL     1       3.274   2.934  19.264  0.00  0.00    +0.000 A 
ATOM     22 CL   UNL     1       4.996   2.821  19.357  0.00  0.00    +0.000 Cl
ENDBRANCH  15  16
ENDBRANCH   4  15
TORSDOF 6
ENDMDL
MODEL 9
REMARK VINA RESULT:      -6.6      2.537      4.828
REMARK  Name = 
REMARK  7 active torsions:
REMARK  status: ('A' for Active; 'I' for Inactive)
REMARK    1  A    between atoms: C_1  and  O_2
REMARK    2  A    between atoms: O_2  and  C_3
REMARK    3  A    between atoms: C_3  and  C_4
REMARK    4  A    between atoms: C_4  and  C_5
REMARK    5  A    between atoms: C_7  and  C_8
REMARK    6  A    between atoms: N_13  and  C_14
REMARK    7  A    between atoms: C_14  and  C_15
REMARK                            x       y       z     vdW  Elec       q    Type
REMARK                         _______ _______ _______ _____ _____    ______ ____
ROOT
ATOM      1  C   UNL     1       1.828   7.205  20.263  0.00  0.00    +0.000 A 
ATOM      2  N   UNL     1       1.504   5.984  20.796  0.00  0.00    +0.000 NA
ATOM      3  C   UNL     1       2.038   5.110  19.964  0.00  0.00    +0.000 A 
ATOM      4  N   UNL     1       2.718   5.808  18.995  0.00  0.00    +0.000 N 
ATOM      5  N   UNL     1       2.543   7.139  19.136  0.00  0.00    +0.000 NA
ENDROOT
BRANCH   3   6
ATOM      6  C   UNL     1       1.904   3.614  19.981  0.00  0.00    +0.000 C 
ATOM      7  C   UNL     1       1.395   3.042  18.671  0.00  0.00    +0.000 C 
ATOM      8  C   UNL     1       2.145   1.742  18.507  0.00  0.00    +0.000 C 
ATOM      9  O   UNL     1       3.399   1.922  19.159  0.00  0.00    +0.000 OA
ATOM     10  C   UNL     1       3.207   2.859  20.234  0.00  0.00    +0.000 C 
ENDBRANCH   3   6
BRANCH   1  11
ATOM     11  C   UNL     1       1.394   8.502  20.840  0.00  0.00    +0.000 C 
BRANCH  11  12
ATOM     12  C   UNL     1       0.958   9.506  19.782  0.00  0.00    +0.000 C 
BRANCH  12  14
ATOM     13  C   UNL     1      -0.894  10.972  19.844  0.00  0.00    +0.000 C 
ATOM     14  O   UNL     1       0.356  10.633  20.430  0.00  0.00    +0.000 OA
ENDBRANCH  12  14
ENDBRANCH  11  12
ENDBRANCH   1  11
BRANCH   4  15
ATOM     15  C   UNL     1       3.541   5.310  17.897  0.00  0.00    +0.000 C 
BRANCH  15  16
ATOM     16  C   UNL     1       5.016   5.628  18.064  0.00  0.00    +0.000 A 
ATOM     17  C   UNL     1       5.704   5.299  19.249  0.00  0.00    +0.000 A 
ATOM     18  C   UNL     1       7.059   5.593  19.412  0.00  0.00    +0.000 A 
ATOM     19  C   UNL     1       7.755   6.240  18.401  0.00  0.00    +0.000 A 
ATOM     20  C   UNL     1       7.090   6.616  17.235  0.00  0.00    +0.000 A 
ATOM     21  C   UNL     1       5.730   6.327  17.075  0.00  0.00    +0.000 A 
ATOM     22 CL   UNL     1       4.975   6.877  15.620  0.00  0.00    +0.000 Cl
ENDBRANCH  15  16
ENDBRANCH   4  15
TORSDOF 6
ENDMDL
