MODEL 1
REMARK VINA RESULT:      -9.9      0.000      0.000
REMARK  Name = 
REMARK  6 active torsions:
REMARK  status: ('A' for Active; 'I' for Inactive)
REMARK    1  A    between atoms: N_2  and  C_4
REMARK    2  A    between atoms: C_7  and  C_8
REMARK    3  A    between atoms: C_8  and  O_9
REMARK    4  A    between atoms: O_9  and  C_10
REMARK    5  A    between atoms: C_15  and  N_16
REMARK    6  A    between atoms: N_16  and  C_17
REMARK                            x       y       z     vdW  Elec       q    Type
REMARK                         _______ _______ _______ _____ _____    ______ ____
ROOT
ATOM      1  N   UNL     1       2.528   5.602  20.737  0.00  0.00    +0.000 N 
ATOM      2  H   UNL     1       3.392   5.539  21.265  0.00  0.00    +0.000 HD
ENDROOT
BRANCH   1   3
ATOM      3  C   UNL     1       2.214   6.993  20.341  0.00  0.00    +0.000 A 
ATOM      4  N   UNL     1       2.537   7.014  19.055  0.00  0.00    +0.000 NA
ATOM      5  C   UNL     1       1.890   7.866  18.321  0.00  0.00    +0.000 A 
ATOM      6  N   UNL     1       1.405   9.018  18.732  0.00  0.00    +0.000 NA
ATOM      7  C   UNL     1       1.257   9.259  20.015  0.00  0.00    +0.000 A 
ATOM      8  C   UNL     1       0.826  10.624  20.147  0.00  0.00    +0.000 A 
ATOM      9  C   UNL     1       0.224  11.283  21.228  0.00  0.00    +0.000 A 
ATOM     10  C   UNL     1      -0.136  10.371  22.187  0.00  0.00    +0.000 A 
ATOM     11  C   UNL     1       0.511   8.954  22.165  0.00  0.00    +0.000 A 
ATOM     12  C   UNL     1       1.362   8.259  21.004  0.00  0.00    +0.000 A 
ATOM     13  O   UNL     1      -1.266  10.529  22.981  0.00  0.00    +0.000 OA
ATOM     14  C   UNL     1      -1.972  11.794  23.115  0.00  0.00    +0.000 C 
ATOM     15  C   UNL     1      -2.711  12.498  21.938  0.00  0.00    +0.000 C 
ATOM     16  O   UNL     1      -2.694  13.913  22.199  0.00  0.00    +0.000 OA
ATOM     17  C   UNL     1      -1.493  14.577  21.785  0.00  0.00    +0.000 C 
ATOM     18  C   UNL     1      -0.161  13.741  21.744  0.00  0.00    +0.000 C 
ATOM     19  O   UNL     1      -0.233  12.548  20.912  0.00  0.00    +0.000 OA
ENDBRANCH   1   3
BRANCH   1  25
ATOM     20  C   UNL     1       3.790   3.852  19.056  0.00  0.00    +0.000 A 
ATOM     21  C   UNL     1       3.675   2.904  17.968  0.00  0.00    +0.000 A 
ATOM     22  C   UNL     1       2.474   2.364  17.571  0.00  0.00    +0.000 A 
ATOM     23  C   UNL     1       1.339   2.869  18.169  0.00  0.00    +0.000 A 
ATOM     24  C   UNL     1       1.405   3.926  19.125  0.00  0.00    +0.000 A 
ATOM     25  C   UNL     1       2.621   4.456  19.652  0.00  0.00    +0.000 A 
BRANCH  20  26
ATOM     26  O   UNL     1       5.074   4.034  19.525  0.00  0.00    +0.000 OA
BRANCH  26  27
ATOM     27  C   UNL     1       5.545   5.417  19.414  0.00  0.00    +0.000 C 
BRANCH  27  31
ATOM     28  C   UNL     1       6.613   5.060  15.383  0.00  0.00    +0.000 A 
ATOM     29  C   UNL     1       5.607   5.996  15.730  0.00  0.00    +0.000 A 
ATOM     30  C   UNL     1       5.371   6.227  17.075  0.00  0.00    +0.000 A 
ATOM     31  C   UNL     1       6.095   5.525  18.033  0.00  0.00    +0.000 A 
ATOM     32  C   UNL     1       7.191   4.719  17.682  0.00  0.00    +0.000 A 
ATOM     33  C   UNL     1       7.433   4.483  16.334  0.00  0.00    +0.000 A 
BRANCH  28  35
ATOM     34  O   UNL     1       6.003   3.727  13.587  0.00  0.00    +0.000 OA
ATOM     35  N   UNL     1       6.714   4.636  13.989  0.00  0.00    +0.000 N 
ATOM     36  O   UNL     1       7.551   5.245  13.251  0.00  0.00    +0.000 OA
ENDBRANCH  28  35
ENDBRANCH  27  31
ENDBRANCH  26  27
ENDBRANCH  20  26
ENDBRANCH   1  25
TORSDOF 6
ENDMDL
MODEL 2
REMARK VINA RESULT:      -9.9      1.814      2.327
REMARK  Name = 
REMARK  6 active torsions:
REMARK  status: ('A' for Active; 'I' for Inactive)
REMARK    1  A    between atoms: N_2  and  C_4
REMARK    2  A    between atoms: C_7  and  C_8
REMARK    3  A    between atoms: C_8  and  O_9
REMARK    4  A    between atoms: O_9  and  C_10
REMARK    5  A    between atoms: C_15  and  N_16
REMARK    6  A    between atoms: N_16  and  C_17
REMARK                            x       y       z     vdW  Elec       q    Type
REMARK                         _______ _______ _______ _____ _____    ______ ____
ROOT
ATOM      1  N   UNL     1       3.032   6.298  20.046  0.00  0.00    +0.000 N 
ATOM      2  H   UNL     1       3.935   6.178  19.599  0.00  0.00    +0.000 HD
ENDROOT
BRANCH   1   3
ATOM      3  C   UNL     1       2.430   7.617  19.745  0.00  0.00    +0.000 A 
ATOM      4  N   UNL     1       2.531   7.693  18.425  0.00  0.00    +0.000 NA
ATOM      5  C   UNL     1       1.640   8.424  17.829  0.00  0.00    +0.000 A 
ATOM      6  N   UNL     1       1.043   9.477  18.346  0.00  0.00    +0.000 NA
ATOM      7  C   UNL     1       1.069   9.689  19.642  0.00  0.00    +0.000 A 
ATOM      8  C   UNL     1       0.444  10.961  19.881  0.00  0.00    +0.000 A 
ATOM      9  C   UNL     1      -0.075  11.507  21.063  0.00  0.00    +0.000 A 
ATOM     10  C   UNL     1      -0.115  10.547  22.042  0.00  0.00    +0.000 A 
ATOM     11  C   UNL     1       0.747   9.260  21.875  0.00  0.00    +0.000 A 
ATOM     12  C   UNL     1       1.500   8.719  20.573  0.00  0.00    +0.000 A 
ATOM     13  O   UNL     1      -1.111  10.511  23.011  0.00  0.00    +0.000 OA
ATOM     14  C   UNL     1      -1.985  11.638  23.293  0.00  0.00    +0.000 C 
ATOM     15  C   UNL     1      -3.014  12.209  22.271  0.00  0.00    +0.000 C 
ATOM     16  O   UNL     1      -3.191  13.605  22.566  0.00  0.00    +0.000 OA
ATOM     17  C   UNL     1      -2.202  14.464  21.983  0.00  0.00    +0.000 C 
ATOM     18  C   UNL     1      -0.774  13.864  21.704  0.00  0.00    +0.000 C 
ATOM     19  O   UNL     1      -0.781  12.678  20.862  0.00  0.00    +0.000 OA
ENDBRANCH   1   3
BRANCH   1  25
ATOM     20  C   UNL     1       2.040   4.281  18.487  0.00  0.00    +0.000 A 
ATOM     21  C   UNL     1       1.161   3.135  18.385  0.00  0.00    +0.000 A 
ATOM     22  C   UNL     1       0.632   2.499  19.485  0.00  0.00    +0.000 A 
ATOM     23  C   UNL     1       0.862   3.085  20.710  0.00  0.00    +0.000 A 
ATOM     24  C   UNL     1       1.582   4.312  20.830  0.00  0.00    +0.000 A 
ATOM     25  C   UNL     1       2.240   4.963  19.745  0.00  0.00    +0.000 A 
BRANCH  20  26
ATOM     26  O   UNL     1       2.726   4.583  17.330  0.00  0.00    +0.000 OA
BRANCH  26  27
ATOM     27  C   UNL     1       3.737   3.585  16.973  0.00  0.00    +0.000 C 
BRANCH  27  31
ATOM     28  C   UNL     1       6.931   6.229  17.543  0.00  0.00    +0.000 A 
ATOM     29  C   UNL     1       6.696   5.239  18.529  0.00  0.00    +0.000 A 
ATOM     30  C   UNL     1       5.745   4.268  18.262  0.00  0.00    +0.000 A 
ATOM     31  C   UNL     1       5.037   4.307  17.065  0.00  0.00    +0.000 A 
ATOM     32  C   UNL     1       5.385   5.196  16.033  0.00  0.00    +0.000 A 
ATOM     33  C   UNL     1       6.338   6.173  16.296  0.00  0.00    +0.000 A 
BRANCH  28  35
ATOM     34  O   UNL     1       8.511   7.304  18.855  0.00  0.00    +0.000 OA
ATOM     35  N   UNL     1       7.753   7.382  17.900  0.00  0.00    +0.000 N 
ATOM     36  O   UNL     1       7.637   8.427  17.185  0.00  0.00    +0.000 OA
ENDBRANCH  28  35
ENDBRANCH  27  31
ENDBRANCH  26  27
ENDBRANCH  20  26
ENDBRANCH   1  25
TORSDOF 6
ENDMDL
MODEL 3
REMARK VINA RESULT:      -9.4      1.128      1.277
REMARK  Name = 
REMARK  6 active torsions:
REMARK  status: ('A' for Active; 'I' for Inactive)
REMARK    1  A    between atoms: N_2  and  C_4
REMARK    2  A    between atoms: C_7  and  C_8
REMARK    3  A    between atoms: C_8  and  O_9
REMARK    4  A    between atoms: O_9  and  C_10
REMARK    5  A    between atoms: C_15  and  N_16
REMARK    6  A    between atoms: N_16  and  C_17
REMARK                            x       y       z     vdW  Elec       q    Type
REMARK                         _______ _______ _______ _____ _____    ______ ____
ROOT
ATOM      1  N   UNL     1       2.036   6.364  21.230  0.00  0.00    +0.000 N 
ATOM      2  H   UNL     1       2.987   6.270  21.572  0.00  0.00    +0.000 HD
ENDROOT
BRANCH   1   3
ATOM      3  C   UNL     1       1.709   7.759  20.860  0.00  0.00    +0.000 A 
ATOM      4  N   UNL     1       2.121   7.836  19.603  0.00  0.00    +0.000 NA
ATOM      5  C   UNL     1       1.502   8.697  18.854  0.00  0.00    +0.000 A 
ATOM      6  N   UNL     1       0.955   9.819  19.269  0.00  0.00    +0.000 NA
ATOM      7  C   UNL     1       0.711  10.009  20.546  0.00  0.00    +0.000 A 
ATOM      8  C   UNL     1       0.232  11.356  20.695  0.00  0.00    +0.000 A 
ATOM      9  C   UNL     1      -0.464  11.958  21.752  0.00  0.00    +0.000 A 
ATOM     10  C   UNL     1      -0.863  11.003  22.652  0.00  0.00    +0.000 A 
ATOM     11  C   UNL     1      -0.174   9.605  22.626  0.00  0.00    +0.000 A 
ATOM     12  C   UNL     1       0.776   8.976  21.506  0.00  0.00    +0.000 A 
ATOM     13  O   UNL     1      -2.050  11.101  23.368  0.00  0.00    +0.000 OA
ATOM     14  C   UNL     1      -2.800  12.340  23.496  0.00  0.00    +0.000 C 
ATOM     15  C   UNL     1      -3.475  13.067  22.295  0.00  0.00    +0.000 C 
ATOM     16  O   UNL     1      -3.519  14.471  22.605  0.00  0.00    +0.000 OA
ATOM     17  C   UNL     1      -2.312  15.183  22.300  0.00  0.00    +0.000 C 
ATOM     18  C   UNL     1      -0.956  14.384  22.325  0.00  0.00    +0.000 C 
ATOM     19  O   UNL     1      -0.935  13.222  21.449  0.00  0.00    +0.000 OA
ENDBRANCH   1   3
BRANCH   1  25
ATOM     20  C   UNL     1       2.534   4.967  18.932  0.00  0.00    +0.000 A 
ATOM     21  C   UNL     1       2.131   3.902  18.037  0.00  0.00    +0.000 A 
ATOM     22  C   UNL     1       1.235   2.922  18.398  0.00  0.00    +0.000 A 
ATOM     23  C   UNL     1       0.617   3.067  19.620  0.00  0.00    +0.000 A 
ATOM     24  C   UNL     1       0.865   4.197  20.455  0.00  0.00    +0.000 A 
ATOM     25  C   UNL     1       1.853   5.190  20.186  0.00  0.00    +0.000 A 
BRANCH  20  26
ATOM     26  O   UNL     1       3.660   5.655  18.534  0.00  0.00    +0.000 OA
BRANCH  26  27
ATOM     27  C   UNL     1       4.901   5.127  19.106  0.00  0.00    +0.000 C 
BRANCH  27  31
ATOM     28  C   UNL     1       6.781   4.736  15.388  0.00  0.00    +0.000 A 
ATOM     29  C   UNL     1       7.251   5.736  16.275  0.00  0.00    +0.000 A 
ATOM     30  C   UNL     1       6.737   5.757  17.561  0.00  0.00    +0.000 A 
ATOM     31  C   UNL     1       5.769   4.830  17.933  0.00  0.00    +0.000 A 
ATOM     32  C   UNL     1       5.425   3.751  17.100  0.00  0.00    +0.000 A 
ATOM     33  C   UNL     1       5.937   3.725  15.808  0.00  0.00    +0.000 A 
BRANCH  28  35
ATOM     34  O   UNL     1       6.570   4.123  13.162  0.00  0.00    +0.000 OA
ATOM     35  N   UNL     1       7.134   4.841  13.974  0.00  0.00    +0.000 N 
ATOM     36  O   UNL     1       8.024   5.690  13.655  0.00  0.00    +0.000 OA
ENDBRANCH  28  35
ENDBRANCH  27  31
ENDBRANCH  26  27
ENDBRANCH  20  26
ENDBRANCH   1  25
TORSDOF 6
ENDMDL
MODEL 4
REMARK VINA RESULT:      -9.3      0.878      1.319
REMARK  Name = 
REMARK  6 active torsions:
REMARK  status: ('A' for Active; 'I' for Inactive)
REMARK    1  A    between atoms: N_2  and  C_4
REMARK    2  A    between atoms: C_7  and  C_8
REMARK    3  A    between atoms: C_8  and  O_9
REMARK    4  A    between atoms: O_9  and  C_10
REMARK    5  A    between atoms: C_15  and  N_16
REMARK    6  A    between atoms: N_16  and  C_17
REMARK                            x       y       z     vdW  Elec       q    Type
REMARK                         _______ _______ _______ _____ _____    ______ ____
ROOT
ATOM      1  N   UNL     1       2.158   5.871  20.860  0.00  0.00    +0.000 N 
ATOM      2  H   UNL     1       2.963   5.821  21.475  0.00  0.00    +0.000 HD
ENDROOT
BRANCH   1   3
ATOM      3  C   UNL     1       2.001   7.212  20.252  0.00  0.00    +0.000 A 
ATOM      4  N   UNL     1       2.447   7.030  19.017  0.00  0.00    +0.000 NA
ATOM      5  C   UNL     1       1.947   7.814  18.112  0.00  0.00    +0.000 A 
ATOM      6  N   UNL     1       1.523   9.043  18.313  0.00  0.00    +0.000 NA
ATOM      7  C   UNL     1       1.273   9.472  19.530  0.00  0.00    +0.000 A 
ATOM      8  C   UNL     1       0.947  10.868  19.434  0.00  0.00    +0.000 A 
ATOM      9  C   UNL     1       0.301  11.712  20.347  0.00  0.00    +0.000 A 
ATOM     10  C   UNL     1      -0.224  10.971  21.375  0.00  0.00    +0.000 A 
ATOM     11  C   UNL     1       0.301   9.523  21.609  0.00  0.00    +0.000 A 
ATOM     12  C   UNL     1       1.198   8.614  20.648  0.00  0.00    +0.000 A 
ATOM     13  O   UNL     1      -1.409  11.317  22.016  0.00  0.00    +0.000 OA
ATOM     14  C   UNL     1      -2.015  12.634  21.906  0.00  0.00    +0.000 C 
ATOM     15  C   UNL     1      -2.576  13.217  20.574  0.00  0.00    +0.000 C 
ATOM     16  O   UNL     1      -2.466  14.649  20.646  0.00  0.00    +0.000 OA
ATOM     17  C   UNL     1      -1.180  15.164  20.278  0.00  0.00    +0.000 C 
ATOM     18  C   UNL     1       0.076  14.239  20.490  0.00  0.00    +0.000 C 
ATOM     19  O   UNL     1      -0.016  12.950  19.821  0.00  0.00    +0.000 OA
ENDBRANCH   1   3
BRANCH   1  25
ATOM     20  C   UNL     1       3.405   3.982  19.325  0.00  0.00    +0.000 A 
ATOM     21  C   UNL     1       3.271   2.869  18.408  0.00  0.00    +0.000 A 
ATOM     22  C   UNL     1       2.090   2.184  18.232  0.00  0.00    +0.000 A 
ATOM     23  C   UNL     1       0.979   2.688  18.872  0.00  0.00    +0.000 A 
ATOM     24  C   UNL     1       1.041   3.884  19.648  0.00  0.00    +0.000 A 
ATOM     25  C   UNL     1       2.248   4.580  19.952  0.00  0.00    +0.000 A 
BRANCH  20  26
ATOM     26  O   UNL     1       4.705   4.332  19.615  0.00  0.00    +0.000 OA
BRANCH  26  27
ATOM     27  C   UNL     1       5.160   5.530  18.905  0.00  0.00    +0.000 C 
BRANCH  27  31
ATOM     28  C   UNL     1       6.649   4.891  15.046  0.00  0.00    +0.000 A 
ATOM     29  C   UNL     1       7.331   4.293  16.135  0.00  0.00    +0.000 A 
ATOM     30  C   UNL     1       6.747   4.371  17.388  0.00  0.00    +0.000 A 
ATOM     31  C   UNL     1       5.542   5.048  17.547  0.00  0.00    +0.000 A 
ATOM     32  C   UNL     1       4.801   5.500  16.442  0.00  0.00    +0.000 A 
ATOM     33  C   UNL     1       5.383   5.425  15.181  0.00  0.00    +0.000 A 
BRANCH  28  35
ATOM     34  O   UNL     1       8.323   5.761  13.698  0.00  0.00    +0.000 OA
ATOM     35  N   UNL     1       7.355   5.019  13.773  0.00  0.00    +0.000 N 
ATOM     36  O   UNL     1       6.918   4.340  12.791  0.00  0.00    +0.000 OA
ENDBRANCH  28  35
ENDBRANCH  27  31
ENDBRANCH  26  27
ENDBRANCH  20  26
ENDBRANCH   1  25
TORSDOF 6
ENDMDL
MODEL 5
REMARK VINA RESULT:      -9.2      1.138      1.404
REMARK  Name = 
REMARK  6 active torsions:
REMARK  status: ('A' for Active; 'I' for Inactive)
REMARK    1  A    between atoms: N_2  and  C_4
REMARK    2  A    between atoms: C_7  and  C_8
REMARK    3  A    between atoms: C_8  and  O_9
REMARK    4  A    between atoms: O_9  and  C_10
REMARK    5  A    between atoms: C_15  and  N_16
REMARK    6  A    between atoms: N_16  and  C_17
REMARK                            x       y       z     vdW  Elec       q    Type
REMARK                         _______ _______ _______ _____ _____    ______ ____
ROOT
ATOM      1  N   UNL     1       2.520   6.275  20.772  0.00  0.00    +0.000 N 
ATOM      2  H   UNL     1       3.532   6.234  20.838  0.00  0.00    +0.000 HD
ENDROOT
BRANCH   1   3
ATOM      3  C   UNL     1       2.040   7.612  20.357  0.00  0.00    +0.000 A 
ATOM      4  N   UNL     1       2.289   7.623  19.054  0.00  0.00    +0.000 NA
ATOM      5  C   UNL     1       1.517   8.378  18.335  0.00  0.00    +0.000 A 
ATOM      6  N   UNL     1       0.936   9.487  18.741  0.00  0.00    +0.000 NA
ATOM      7  C   UNL     1       0.833   9.754  20.024  0.00  0.00    +0.000 A 
ATOM      8  C   UNL     1       0.268  11.070  20.143  0.00  0.00    +0.000 A 
ATOM      9  C   UNL     1      -0.341  11.699  21.238  0.00  0.00    +0.000 A 
ATOM     10  C   UNL     1      -0.550  10.787  22.241  0.00  0.00    +0.000 A 
ATOM     11  C   UNL     1       0.242   9.445  22.221  0.00  0.00    +0.000 A 
ATOM     12  C   UNL     1       1.097   8.803  21.033  0.00  0.00    +0.000 A 
ATOM     13  O   UNL     1      -1.646  10.853  23.094  0.00  0.00    +0.000 OA
ATOM     14  C   UNL     1      -2.472  12.042  23.234  0.00  0.00    +0.000 C 
ATOM     15  C   UNL     1      -3.344  12.626  22.082  0.00  0.00    +0.000 C 
ATOM     16  O   UNL     1      -3.463  14.042  22.302  0.00  0.00    +0.000 OA
ATOM     17  C   UNL     1      -2.363  14.814  21.802  0.00  0.00    +0.000 C 
ATOM     18  C   UNL     1      -0.954  14.119  21.707  0.00  0.00    +0.000 C 
ATOM     19  O   UNL     1      -0.945  12.899  20.914  0.00  0.00    +0.000 OA
ENDBRANCH   1   3
BRANCH   1  25
ATOM     20  C   UNL     1       2.754   4.364  18.829  0.00  0.00    +0.000 A 
ATOM     21  C   UNL     1       2.145   3.253  18.128  0.00  0.00    +0.000 A 
ATOM     22  C   UNL     1       1.039   2.586  18.603  0.00  0.00    +0.000 A 
ATOM     23  C   UNL     1       0.434   3.108  19.725  0.00  0.00    +0.000 A 
ATOM     24  C   UNL     1       0.909   4.304  20.343  0.00  0.00    +0.000 A 
ATOM     25  C   UNL     1       2.105   4.981  19.963  0.00  0.00    +0.000 A 
BRANCH  20  26
ATOM     26  O   UNL     1       4.018   4.695  18.392  0.00  0.00    +0.000 OA
BRANCH  26  27
ATOM     27  C   UNL     1       4.646   3.652  17.577  0.00  0.00    +0.000 C 
BRANCH  27  31
ATOM     28  C   UNL     1       6.853   4.994  14.284  0.00  0.00    +0.000 A 
ATOM     29  C   UNL     1       5.534   4.528  14.062  0.00  0.00    +0.000 A 
ATOM     30  C   UNL     1       4.752   4.238  15.168  0.00  0.00    +0.000 A 
ATOM     31  C   UNL     1       5.284   4.381  16.445  0.00  0.00    +0.000 A 
ATOM     32  C   UNL     1       6.534   4.989  16.658  0.00  0.00    +0.000 A 
ATOM     33  C   UNL     1       7.322   5.282  15.551  0.00  0.00    +0.000 A 
BRANCH  28  35
ATOM     34  O   UNL     1       8.715   5.842  13.193  0.00  0.00    +0.000 OA
ATOM     35  N   UNL     1       7.759   5.082  13.142  0.00  0.00    +0.000 N 
ATOM     36  O   UNL     1       7.505   4.348  12.135  0.00  0.00    +0.000 OA
ENDBRANCH  28  35
ENDBRANCH  27  31
ENDBRANCH  26  27
ENDBRANCH  20  26
ENDBRANCH   1  25
TORSDOF 6
ENDMDL
MODEL 6
REMARK VINA RESULT:      -8.6      1.209      1.608
REMARK  Name = 
REMARK  6 active torsions:
REMARK  status: ('A' for Active; 'I' for Inactive)
REMARK    1  A    between atoms: N_2  and  C_4
REMARK    2  A    between atoms: C_7  and  C_8
REMARK    3  A    between atoms: C_8  and  O_9
REMARK    4  A    between atoms: O_9  and  C_10
REMARK    5  A    between atoms: C_15  and  N_16
REMARK    6  A    between atoms: N_16  and  C_17
REMARK                            x       y       z     vdW  Elec       q    Type
REMARK                         _______ _______ _______ _____ _____    ______ ____
ROOT
ATOM      1  N   UNL     1       3.163   6.044  20.208  0.00  0.00    +0.000 N 
ATOM      2  H   UNL     1       4.124   5.948  19.898  0.00  0.00    +0.000 HD
ENDROOT
BRANCH   1   3
ATOM      3  C   UNL     1       2.584   7.355  19.840  0.00  0.00    +0.000 A 
ATOM      4  N   UNL     1       2.706   7.371  18.520  0.00  0.00    +0.000 NA
ATOM      5  C   UNL     1       1.834   8.087  17.878  0.00  0.00    +0.000 A 
ATOM      6  N   UNL     1       1.244   9.170  18.338  0.00  0.00    +0.000 NA
ATOM      7  C   UNL     1       1.253   9.438  19.624  0.00  0.00    +0.000 A 
ATOM      8  C   UNL     1       0.643  10.728  19.796  0.00  0.00    +0.000 A 
ATOM      9  C   UNL     1       0.113  11.333  20.944  0.00  0.00    +0.000 A 
ATOM     10  C   UNL     1       0.045  10.418  21.964  0.00  0.00    +0.000 A 
ATOM     11  C   UNL     1       0.891   9.113  21.868  0.00  0.00    +0.000 A 
ATOM     12  C   UNL     1       1.656   8.506  20.604  0.00  0.00    +0.000 A 
ATOM     13  O   UNL     1      -0.966  10.438  22.918  0.00  0.00    +0.000 OA
ATOM     14  C   UNL     1      -1.829  11.589  23.136  0.00  0.00    +0.000 C 
ATOM     15  C   UNL     1      -2.834  12.127  22.074  0.00  0.00    +0.000 C 
ATOM     16  O   UNL     1      -2.996  13.537  22.304  0.00  0.00    +0.000 OA
ATOM     17  C   UNL     1      -1.986  14.356  21.699  0.00  0.00    +0.000 C 
ATOM     18  C   UNL     1      -0.563  13.726  21.469  0.00  0.00    +0.000 C 
ATOM     19  O   UNL     1      -0.573  12.503  20.680  0.00  0.00    +0.000 OA
ENDBRANCH   1   3
BRANCH   1  25
ATOM     20  C   UNL     1       2.736   3.833  18.655  0.00  0.00    +0.000 A 
ATOM     21  C   UNL     1       1.881   2.708  18.339  0.00  0.00    +0.000 A 
ATOM     22  C   UNL     1       0.885   2.267  19.180  0.00  0.00    +0.000 A 
ATOM     23  C   UNL     1       0.633   3.033  20.297  0.00  0.00    +0.000 A 
ATOM     24  C   UNL     1       1.344   4.244  20.550  0.00  0.00    +0.000 A 
ATOM     25  C   UNL     1       2.452   4.699  19.776  0.00  0.00    +0.000 A 
BRANCH  20  26
ATOM     26  O   UNL     1       3.868   3.931  17.874  0.00  0.00    +0.000 OA
BRANCH  26  27
ATOM     27  C   UNL     1       3.593   4.350  16.498  0.00  0.00    +0.000 C 
BRANCH  27  31
ATOM     28  C   UNL     1       6.998   4.838  14.112  0.00  0.00    +0.000 A 
ATOM     29  C   UNL     1       6.973   5.467  15.382  0.00  0.00    +0.000 A 
ATOM     30  C   UNL     1       5.920   5.173  16.232  0.00  0.00    +0.000 A 
ATOM     31  C   UNL     1       4.916   4.306  15.813  0.00  0.00    +0.000 A 
ATOM     32  C   UNL     1       5.030   3.570  14.620  0.00  0.00    +0.000 A 
ATOM     33  C   UNL     1       6.085   3.862  13.763  0.00  0.00    +0.000 A 
BRANCH  28  35
ATOM     34  O   UNL     1       7.844   4.964  11.958  0.00  0.00    +0.000 OA
ATOM     35  N   UNL     1       7.965   5.309  13.124  0.00  0.00    +0.000 N 
ATOM     36  O   UNL     1       8.898   6.069  13.534  0.00  0.00    +0.000 OA
ENDBRANCH  28  35
ENDBRANCH  27  31
ENDBRANCH  26  27
ENDBRANCH  20  26
ENDBRANCH   1  25
TORSDOF 6
ENDMDL
MODEL 7
REMARK VINA RESULT:      -8.5      1.923      4.739
REMARK  Name = 
REMARK  6 active torsions:
REMARK  status: ('A' for Active; 'I' for Inactive)
REMARK    1  A    between atoms: N_2  and  C_4
REMARK    2  A    between atoms: C_7  and  C_8
REMARK    3  A    between atoms: C_8  and  O_9
REMARK    4  A    between atoms: O_9  and  C_10
REMARK    5  A    between atoms: C_15  and  N_16
REMARK    6  A    between atoms: N_16  and  C_17
REMARK                            x       y       z     vdW  Elec       q    Type
REMARK                         _______ _______ _______ _____ _____    ______ ____
ROOT
ATOM      1  N   UNL     1       3.979   7.473  16.664  0.00  0.00    +0.000 N 
ATOM      2  H   UNL     1       3.578   6.989  15.867  0.00  0.00    +0.000 HD
ENDROOT
BRANCH   1   3
ATOM      3  C   UNL     1       2.961   7.805  17.686  0.00  0.00    +0.000 A 
ATOM      4  N   UNL     1       2.922   6.709  18.432  0.00  0.00    +0.000 NA
ATOM      5  C   UNL     1       2.569   6.877  19.669  0.00  0.00    +0.000 A 
ATOM      6  N   UNL     1       1.757   7.812  20.114  0.00  0.00    +0.000 NA
ATOM      7  C   UNL     1       1.484   8.864  19.376  0.00  0.00    +0.000 A 
ATOM      8  C   UNL     1       0.490   9.631  20.075  0.00  0.00    +0.000 A 
ATOM      9  C   UNL     1       0.094  10.966  19.909  0.00  0.00    +0.000 A 
ATOM     10  C   UNL     1       0.959  11.607  19.060  0.00  0.00    +0.000 A 
ATOM     11  C   UNL     1       1.884  10.756  18.137  0.00  0.00    +0.000 A 
ATOM     12  C   UNL     1       2.200   9.191  18.205  0.00  0.00    +0.000 A 
ATOM     13  O   UNL     1       1.284  12.951  19.199  0.00  0.00    +0.000 OA
ATOM     14  C   UNL     1       0.508  13.874  20.013  0.00  0.00    +0.000 C 
ATOM     15  C   UNL     1       0.374  13.756  21.561  0.00  0.00    +0.000 C 
ATOM     16  O   UNL     1      -0.892  14.328  21.933  0.00  0.00    +0.000 OA
ATOM     17  C   UNL     1      -2.005  13.433  21.812  0.00  0.00    +0.000 C 
ATOM     18  C   UNL     1      -1.914  12.279  20.746  0.00  0.00    +0.000 C 
ATOM     19  O   UNL     1      -0.755  11.413  20.903  0.00  0.00    +0.000 OA
ENDBRANCH   1   3
BRANCH   1  25
ATOM     20  C   UNL     1       5.511   5.222  16.921  0.00  0.00    +0.000 A 
ATOM     21  C   UNL     1       6.710   4.614  17.462  0.00  0.00    +0.000 A 
ATOM     22  C   UNL     1       7.771   5.349  17.937  0.00  0.00    +0.000 A 
ATOM     23  C   UNL     1       7.597   6.714  18.010  0.00  0.00    +0.000 A 
ATOM     24  C   UNL     1       6.363   7.331  17.645  0.00  0.00    +0.000 A 
ATOM     25  C   UNL     1       5.267   6.640  17.050  0.00  0.00    +0.000 A 
BRANCH  20  26
ATOM     26  O   UNL     1       4.707   4.363  16.203  0.00  0.00    +0.000 OA
BRANCH  26  27
ATOM     27  C   UNL     1       4.862   2.958  16.588  0.00  0.00    +0.000 C 
BRANCH  27  31
ATOM     28  C   UNL     1       2.011   3.055  19.651  0.00  0.00    +0.000 A 
ATOM     29  C   UNL     1       1.578   3.300  18.324  0.00  0.00    +0.000 A 
ATOM     30  C   UNL     1       2.488   3.109  17.297  0.00  0.00    +0.000 A 
ATOM     31  C   UNL     1       3.789   2.716  17.594  0.00  0.00    +0.000 A 
ATOM     32  C   UNL     1       4.163   2.327  18.892  0.00  0.00    +0.000 A 
ATOM     33  C   UNL     1       3.254   2.518  19.926  0.00  0.00    +0.000 A 
BRANCH  28  35
ATOM     34  O   UNL     1       0.493   4.499  20.643  0.00  0.00    +0.000 OA
ATOM     35  N   UNL     1       1.145   3.471  20.751  0.00  0.00    +0.000 N 
ATOM     36  O   UNL     1       1.111   2.729  21.782  0.00  0.00    +0.000 OA
ENDBRANCH  28  35
ENDBRANCH  27  31
ENDBRANCH  26  27
ENDBRANCH  20  26
ENDBRANCH   1  25
TORSDOF 6
ENDMDL
MODEL 8
REMARK VINA RESULT:      -8.4      3.062     10.884
REMARK  Name = 
REMARK  6 active torsions:
REMARK  status: ('A' for Active; 'I' for Inactive)
REMARK    1  A    between atoms: N_2  and  C_4
REMARK    2  A    between atoms: C_7  and  C_8
REMARK    3  A    between atoms: C_8  and  O_9
REMARK    4  A    between atoms: O_9  and  C_10
REMARK    5  A    between atoms: C_15  and  N_16
REMARK    6  A    between atoms: N_16  and  C_17
REMARK                            x       y       z     vdW  Elec       q    Type
REMARK                         _______ _______ _______ _____ _____    ______ ____
ROOT
ATOM      1  N   UNL     1       0.856  11.107  18.481  0.00  0.00    +0.000 N 
ATOM      2  H   UNL     1       0.944  10.970  17.479  0.00  0.00    +0.000 HD
ENDROOT
BRANCH   1   3
ATOM      3  C   UNL     1       1.278   9.914  19.249  0.00  0.00    +0.000 A 
ATOM      4  N   UNL     1       0.823  10.171  20.467  0.00  0.00    +0.000 NA
ATOM      5  C   UNL     1       0.545   9.137  21.199  0.00  0.00    +0.000 A 
ATOM      6  N   UNL     1       1.139   7.965  21.126  0.00  0.00    +0.000 NA
ATOM      7  C   UNL     1       1.856   7.646  20.072  0.00  0.00    +0.000 A 
ATOM      8  C   UNL     1       2.464   6.371  20.337  0.00  0.00    +0.000 A 
ATOM      9  C   UNL     1       3.041   5.443  19.460  0.00  0.00    +0.000 A 
ATOM     10  C   UNL     1       2.779   5.802  18.163  0.00  0.00    +0.000 A 
ATOM     11  C   UNL     1       2.330   7.263  17.858  0.00  0.00    +0.000 A 
ATOM     12  C   UNL     1       1.843   8.395  18.876  0.00  0.00    +0.000 A 
ATOM     13  O   UNL     1       2.585   4.866  17.154  0.00  0.00    +0.000 OA
ATOM     14  C   UNL     1       2.966   3.468  17.283  0.00  0.00    +0.000 C 
ATOM     15  C   UNL     1       2.315   2.488  18.305  0.00  0.00    +0.000 C 
ATOM     16  O   UNL     1       3.295   1.490  18.635  0.00  0.00    +0.000 OA
ATOM     17  C   UNL     1       4.215   1.880  19.663  0.00  0.00    +0.000 C 
ATOM     18  C   UNL     1       4.523   3.413  19.837  0.00  0.00    +0.000 C 
ATOM     19  O   UNL     1       3.343   4.235  20.061  0.00  0.00    +0.000 OA
ENDBRANCH   1   3
BRANCH   1  25
ATOM     20  C   UNL     1       1.047  13.583  19.627  0.00  0.00    +0.000 A 
ATOM     21  C   UNL     1       1.710  14.871  19.651  0.00  0.00    +0.000 A 
ATOM     22  C   UNL     1       2.916  15.102  19.031  0.00  0.00    +0.000 A 
ATOM     23  C   UNL     1       3.420  14.082  18.254  0.00  0.00    +0.000 A 
ATOM     24  C   UNL     1       2.707  12.860  18.070  0.00  0.00    +0.000 A 
ATOM     25  C   UNL     1       1.508  12.520  18.764  0.00  0.00    +0.000 A 
BRANCH  20  26
ATOM     26  O   UNL     1       0.037  13.441  20.552  0.00  0.00    +0.000 OA
BRANCH  26  27
ATOM     27  C   UNL     1       0.376  13.970  21.875  0.00  0.00    +0.000 C 
BRANCH  27  31
ATOM     28  C   UNL     1      -3.270  12.998  23.686  0.00  0.00    +0.000 A 
ATOM     29  C   UNL     1      -2.490  11.947  23.140  0.00  0.00    +0.000 A 
ATOM     30  C   UNL     1      -1.217  12.250  22.688  0.00  0.00    +0.000 A 
ATOM     31  C   UNL     1      -0.755  13.560  22.754  0.00  0.00    +0.000 A 
ATOM     32  C   UNL     1      -1.471  14.560  23.436  0.00  0.00    +0.000 A 
ATOM     33  C   UNL     1      -2.750  14.261  23.891  0.00  0.00    +0.000 A 
BRANCH  28  35
ATOM     34  O   UNL     1      -4.999  11.963  24.832  0.00  0.00    +0.000 OA
ATOM     35  N   UNL     1      -4.684  12.747  23.949  0.00  0.00    +0.000 N 
ATOM     36  O   UNL     1      -5.532  13.370  23.235  0.00  0.00    +0.000 OA
ENDBRANCH  28  35
ENDBRANCH  27  31
ENDBRANCH  26  27
ENDBRANCH  20  26
ENDBRANCH   1  25
TORSDOF 6
ENDMDL
MODEL 9
REMARK VINA RESULT:      -8.4      1.245      1.521
REMARK  Name = 
REMARK  6 active torsions:
REMARK  status: ('A' for Active; 'I' for Inactive)
REMARK    1  A    between atoms: N_2  and  C_4
REMARK    2  A    between atoms: C_7  and  C_8
REMARK    3  A    between atoms: C_8  and  O_9
REMARK    4  A    between atoms: O_9  and  C_10
REMARK    5  A    between atoms: C_15  and  N_16
REMARK    6  A    between atoms: N_16  and  C_17
REMARK                            x       y       z     vdW  Elec       q    Type
REMARK                         _______ _______ _______ _____ _____    ______ ____
ROOT
ATOM      1  N   UNL     1       3.408   5.692  19.773  0.00  0.00    +0.000 N 
ATOM      2  H   UNL     1       4.324   5.451  19.410  0.00  0.00    +0.000 HD
ENDROOT
BRANCH   1   3
ATOM      3  C   UNL     1       2.960   7.028  19.318  0.00  0.00    +0.000 A 
ATOM      4  N   UNL     1       3.248   7.012  18.024  0.00  0.00    +0.000 NA
ATOM      5  C   UNL     1       2.509   7.764  17.268  0.00  0.00    +0.000 A 
ATOM      6  N   UNL     1       1.932   8.888  17.637  0.00  0.00    +0.000 NA
ATOM      7  C   UNL     1       1.795   9.180  18.910  0.00  0.00    +0.000 A 
ATOM      8  C   UNL     1       1.246  10.506  18.988  0.00  0.00    +0.000 A 
ATOM      9  C   UNL     1       0.612  11.163  20.053  0.00  0.00    +0.000 A 
ATOM     10  C   UNL     1       0.360  10.274  21.065  0.00  0.00    +0.000 A 
ATOM     11  C   UNL     1       1.132   8.920  21.093  0.00  0.00    +0.000 A 
ATOM     12  C   UNL     1       2.014   8.245  19.944  0.00  0.00    +0.000 A 
ATOM     13  O   UNL     1      -0.760  10.370  21.883  0.00  0.00    +0.000 OA
ATOM     14  C   UNL     1      -1.573  11.573  21.976  0.00  0.00    +0.000 C 
ATOM     15  C   UNL     1      -2.401  12.147  20.788  0.00  0.00    +0.000 C 
ATOM     16  O   UNL     1      -2.506  13.569  20.979  0.00  0.00    +0.000 OA
ATOM     17  C   UNL     1      -1.381  14.316  20.498  0.00  0.00    +0.000 C 
ATOM     18  C   UNL     1       0.020  13.600  20.459  0.00  0.00    +0.000 C 
ATOM     19  O   UNL     1       0.036  12.365  19.689  0.00  0.00    +0.000 OA
ENDBRANCH   1   3
BRANCH   1  25
ATOM     20  C   UNL     1       2.741   3.297  18.633  0.00  0.00    +0.000 A 
ATOM     21  C   UNL     1       1.733   2.277  18.434  0.00  0.00    +0.000 A 
ATOM     22  C   UNL     1       0.602   2.183  19.211  0.00  0.00    +0.000 A 
ATOM     23  C   UNL     1       0.388   3.197  20.120  0.00  0.00    +0.000 A 
ATOM     24  C   UNL     1       1.276   4.309  20.223  0.00  0.00    +0.000 A 
ATOM     25  C   UNL     1       2.513   4.413  19.522  0.00  0.00    +0.000 A 
BRANCH  20  26
ATOM     26  O   UNL     1       3.938   3.052  17.997  0.00  0.00    +0.000 OA
BRANCH  26  27
ATOM     27  C   UNL     1       5.009   3.970  18.391  0.00  0.00    +0.000 C 
BRANCH  27  31
ATOM     28  C   UNL     1       6.733   5.020  14.724  0.00  0.00    +0.000 A 
ATOM     29  C   UNL     1       5.422   4.483  14.719  0.00  0.00    +0.000 A 
ATOM     30  C   UNL     1       4.795   4.289  15.939  0.00  0.00    +0.000 A 
ATOM     31  C   UNL     1       5.468   4.593  17.117  0.00  0.00    +0.000 A 
ATOM     32  C   UNL     1       6.702   5.267  17.107  0.00  0.00    +0.000 A 
ATOM     33  C   UNL     1       7.336   5.464  15.885  0.00  0.00    +0.000 A 
BRANCH  28  35
ATOM     34  O   UNL     1       8.446   5.764  13.351  0.00  0.00    +0.000 OA
ATOM     35  N   UNL     1       7.490   5.014  13.475  0.00  0.00    +0.000 N 
ATOM     36  O   UNL     1       7.109   4.213  12.564  0.00  0.00    +0.000 OA
ENDBRANCH  28  35
ENDBRANCH  27  31
ENDBRANCH  26  27
ENDBRANCH  20  26
ENDBRANCH   1  25
TORSDOF 6
ENDMDL
