MODEL 1
REMARK VINA RESULT:      -6.3      0.000      0.000
REMARK  Name = 
REMARK  6 active torsions:
REMARK  status: ('A' for Active; 'I' for Inactive)
REMARK    1  A    between atoms: O_1  and  C_2
REMARK    2  A    between atoms: C_2  and  C_3
REMARK    3  A    between atoms: C_2  and  C_12
REMARK    4  A    between atoms: C_3  and  O_4
REMARK    5  A    between atoms: O_4  and  C_5
REMARK    6  A    between atoms: C_12  and  N_13
REMARK                            x       y       z     vdW  Elec       q    Type
REMARK                         _______ _______ _______ _____ _____    ______ ____
ROOT
ATOM      1  C   UNL     1       5.535   4.248  15.683  0.00  0.00    +0.000 C 
ENDROOT
BRANCH   1   2
ATOM      2  O   UNL     1       6.147   3.369  14.779  0.00  0.00    +0.000 OA
ATOM      3  H   UNL     1       5.545   2.585  14.679  0.00  0.00    +0.000 HD
ENDBRANCH   1   2
BRANCH   1   4
ATOM      4  C   UNL     1       4.674   3.465  16.678  0.00  0.00    +0.000 C 
BRANCH   4   5
ATOM      5  O   UNL     1       3.448   4.056  16.880  0.00  0.00    +0.000 OA
BRANCH   5   6
ATOM      6  C   UNL     1       2.593   3.827  17.919  0.00  0.00    +0.000 A 
ATOM      7  C   UNL     1       2.050   2.533  18.007  0.00  0.00    +0.000 A 
ATOM      8  C   UNL     1       1.169   2.188  19.035  0.00  0.00    +0.000 A 
ATOM      9  C   UNL     1       0.812   3.131  19.994  0.00  0.00    +0.000 A 
ATOM     10  C   UNL     1       1.332   4.420  19.930  0.00  0.00    +0.000 A 
ATOM     11  C   UNL     1       2.218   4.791  18.911  0.00  0.00    +0.000 A 
ATOM     12 BR   UNL     1       2.811   6.620  19.024  0.00  0.00    +0.000 Br
ENDBRANCH   5   6
ENDBRANCH   4   5
ENDBRANCH   1   4
BRANCH   1  13
ATOM     13  C   UNL     1       6.612   5.013  16.476  0.00  0.00    +0.000 C 
BRANCH  13  14
ATOM     14  N   UNL     1       6.068   5.826  17.590  0.00  0.00    +0.000 NA
ATOM     15  C   UNL     1       6.551   5.431  18.930  0.00  0.00    +0.000 C 
ATOM     16  C   UNL     1       8.043   5.746  19.107  0.00  0.00    +0.000 C 
ATOM     17  N   UNL     1       8.279   7.180  18.899  0.00  0.00    +0.000 NA
ATOM     18  C   UNL     1       7.820   7.611  17.572  0.00  0.00    +0.000 C 
ATOM     19  C   UNL     1       6.328   7.268  17.382  0.00  0.00    +0.000 C 
ATOM     20  H   UNL     1       9.306   7.364  18.976  0.00  0.00    +0.000 HD
ENDBRANCH  13  14
ENDBRANCH   1  13
TORSDOF 6
ENDMDL
MODEL 2
REMARK VINA RESULT:      -6.3      2.828      5.879
REMARK  Name = 
REMARK  6 active torsions:
REMARK  status: ('A' for Active; 'I' for Inactive)
REMARK    1  A    between atoms: O_1  and  C_2
REMARK    2  A    between atoms: C_2  and  C_3
REMARK    3  A    between atoms: C_2  and  C_12
REMARK    4  A    between atoms: C_3  and  O_4
REMARK    5  A    between atoms: O_4  and  C_5
REMARK    6  A    between atoms: C_12  and  N_13
REMARK                            x       y       z     vdW  Elec       q    Type
REMARK                         _______ _______ _______ _____ _____    ______ ____
ROOT
ATOM      1  C   UNL     1       2.618   6.641  18.700  0.00  0.00    +0.000 C 
ENDROOT
BRANCH   1   2
ATOM      2  O   UNL     1       3.343   6.666  19.900  0.00  0.00    +0.000 OA
ATOM      3  H   UNL     1       2.686   6.765  20.638  0.00  0.00    +0.000 HD
ENDBRANCH   1   2
BRANCH   1   4
ATOM      4  C   UNL     1       3.413   7.333  17.590  0.00  0.00    +0.000 C 
BRANCH   4   5
ATOM      5  O   UNL     1       4.768   7.125  17.716  0.00  0.00    +0.000 OA
BRANCH   5   6
ATOM      6  C   UNL     1       5.525   6.234  17.012  0.00  0.00    +0.000 A 
ATOM      7  C   UNL     1       5.143   6.006  15.679  0.00  0.00    +0.000 A 
ATOM      8  C   UNL     1       5.852   5.118  14.866  0.00  0.00    +0.000 A 
ATOM      9  C   UNL     1       6.957   4.439  15.372  0.00  0.00    +0.000 A 
ATOM     10  C   UNL     1       7.356   4.643  16.689  0.00  0.00    +0.000 A 
ATOM     11  C   UNL     1       6.663   5.528  17.524  0.00  0.00    +0.000 A 
ATOM     12 BR   UNL     1       7.395   5.654  19.301  0.00  0.00    +0.000 Br
ENDBRANCH   5   6
ENDBRANCH   4   5
ENDBRANCH   1   4
BRANCH   1  13
ATOM     13  C   UNL     1       2.367   5.181  18.274  0.00  0.00    +0.000 C 
BRANCH  13  14
ATOM     14  N   UNL     1       2.656   4.191  19.339  0.00  0.00    +0.000 NA
ATOM     15  C   UNL     1       1.463   3.498  19.870  0.00  0.00    +0.000 C 
ATOM     16  C   UNL     1       0.845   2.558  18.826  0.00  0.00    +0.000 C 
ATOM     17  N   UNL     1       1.840   1.569  18.393  0.00  0.00    +0.000 NA
ATOM     18  C   UNL     1       3.039   2.218  17.849  0.00  0.00    +0.000 C 
ATOM     19  C   UNL     1       3.644   3.185  18.887  0.00  0.00    +0.000 C 
ATOM     20  H   UNL     1       1.414   0.970  17.648  0.00  0.00    +0.000 HD
ENDBRANCH  13  14
ENDBRANCH   1  13
TORSDOF 6
ENDMDL
MODEL 3
REMARK VINA RESULT:      -6.3      2.996      5.880
REMARK  Name = 
REMARK  6 active torsions:
REMARK  status: ('A' for Active; 'I' for Inactive)
REMARK    1  A    between atoms: O_1  and  C_2
REMARK    2  A    between atoms: C_2  and  C_3
REMARK    3  A    between atoms: C_2  and  C_12
REMARK    4  A    between atoms: C_3  and  O_4
REMARK    5  A    between atoms: O_4  and  C_5
REMARK    6  A    between atoms: C_12  and  N_13
REMARK                            x       y       z     vdW  Elec       q    Type
REMARK                         _______ _______ _______ _____ _____    ______ ____
ROOT
ATOM      1  C   UNL     1       2.408   6.180  19.467  0.00  0.00    +0.000 C 
ENDROOT
BRANCH   1   2
ATOM      2  O   UNL     1       2.292   7.237  20.381  0.00  0.00    +0.000 OA
ATOM      3  H   UNL     1       3.213   7.515  20.626  0.00  0.00    +0.000 HD
ENDBRANCH   1   2
BRANCH   1   4
ATOM      4  C   UNL     1       3.227   6.623  18.252  0.00  0.00    +0.000 C 
BRANCH   4   5
ATOM      5  O   UNL     1       4.524   6.166  18.307  0.00  0.00    +0.000 OA
BRANCH   5   6
ATOM      6  C   UNL     1       5.234   5.601  17.287  0.00  0.00    +0.000 A 
ATOM      7  C   UNL     1       4.625   4.519  16.627  0.00  0.00    +0.000 A 
ATOM      8  C   UNL     1       5.261   3.871  15.565  0.00  0.00    +0.000 A 
ATOM      9  C   UNL     1       6.519   4.291  15.143  0.00  0.00    +0.000 A 
ATOM     10  C   UNL     1       7.146   5.358  15.779  0.00  0.00    +0.000 A 
ATOM     11  C   UNL     1       6.530   6.025  16.845  0.00  0.00    +0.000 A 
ATOM     12 BR   UNL     1       7.579   7.469  17.569  0.00  0.00    +0.000 Br
ENDBRANCH   5   6
ENDBRANCH   4   5
ENDBRANCH   1   4
BRANCH   1  13
ATOM     13  C   UNL     1       3.135   4.995  20.131  0.00  0.00    +0.000 C 
BRANCH  13  14
ATOM     14  N   UNL     1       2.232   3.888  20.529  0.00  0.00    +0.000 NA
ATOM     15  C   UNL     1       1.091   3.670  19.615  0.00  0.00    +0.000 C 
ATOM     16  C   UNL     1       1.552   3.129  18.255  0.00  0.00    +0.000 C 
ATOM     17  N   UNL     1       2.285   1.870  18.440  0.00  0.00    +0.000 NA
ATOM     18  C   UNL     1       3.435   2.047  19.337  0.00  0.00    +0.000 C 
ATOM     19  C   UNL     1       2.976   2.618  20.693  0.00  0.00    +0.000 C 
ATOM     20  H   UNL     1       2.632   1.545  17.508  0.00  0.00    +0.000 HD
ENDBRANCH  13  14
ENDBRANCH   1  13
TORSDOF 6
ENDMDL
MODEL 4
REMARK VINA RESULT:      -6.2      2.812      5.933
REMARK  Name = 
REMARK  6 active torsions:
REMARK  status: ('A' for Active; 'I' for Inactive)
REMARK    1  A    between atoms: O_1  and  C_2
REMARK    2  A    between atoms: C_2  and  C_3
REMARK    3  A    between atoms: C_2  and  C_12
REMARK    4  A    between atoms: C_3  and  O_4
REMARK    5  A    between atoms: O_4  and  C_5
REMARK    6  A    between atoms: C_12  and  N_13
REMARK                            x       y       z     vdW  Elec       q    Type
REMARK                         _______ _______ _______ _____ _____    ______ ____
ROOT
ATOM      1  C   UNL     1       2.364   6.635  18.667  0.00  0.00    +0.000 C 
ENDROOT
BRANCH   1   2
ATOM      2  O   UNL     1       2.694   6.794  20.020  0.00  0.00    +0.000 OA
ATOM      3  H   UNL     1       2.828   5.886  20.398  0.00  0.00    +0.000 HD
ENDBRANCH   1   2
BRANCH   1   4
ATOM      4  C   UNL     1       3.487   7.185  17.784  0.00  0.00    +0.000 C 
BRANCH   4   5
ATOM      5  O   UNL     1       4.123   6.191  17.076  0.00  0.00    +0.000 OA
BRANCH   5   6
ATOM      6  C   UNL     1       5.367   5.683  17.320  0.00  0.00    +0.000 A 
ATOM      7  C   UNL     1       5.907   5.941  18.591  0.00  0.00    +0.000 A 
ATOM      8  C   UNL     1       7.170   5.463  18.949  0.00  0.00    +0.000 A 
ATOM      9  C   UNL     1       7.918   4.718  18.042  0.00  0.00    +0.000 A 
ATOM     10  C   UNL     1       7.408   4.450  16.775  0.00  0.00    +0.000 A 
ATOM     11  C   UNL     1       6.145   4.917  16.392  0.00  0.00    +0.000 A 
ATOM     12 BR   UNL     1       5.645   4.423  14.599  0.00  0.00    +0.000 Br
ENDBRANCH   5   6
ENDBRANCH   4   5
ENDBRANCH   1   4
BRANCH   1  13
ATOM     13  C   UNL     1       2.189   5.137  18.346  0.00  0.00    +0.000 C 
BRANCH  13  14
ATOM     14  N   UNL     1       2.324   4.254  19.530  0.00  0.00    +0.000 NA
ATOM     15  C   UNL     1       1.102   3.497  19.871  0.00  0.00    +0.000 C 
ATOM     16  C   UNL     1       0.783   2.433  18.811  0.00  0.00    +0.000 C 
ATOM     17  N   UNL     1       1.916   1.509  18.673  0.00  0.00    +0.000 NA
ATOM     18  C   UNL     1       3.150   2.224  18.324  0.00  0.00    +0.000 C 
ATOM     19  C   UNL     1       3.456   3.312  19.373  0.00  0.00    +0.000 C 
ATOM     20  H   UNL     1       1.697   0.824  17.913  0.00  0.00    +0.000 HD
ENDBRANCH  13  14
ENDBRANCH   1  13
TORSDOF 6
ENDMDL
MODEL 5
REMARK VINA RESULT:      -6.2      2.135      2.976
REMARK  Name = 
REMARK  6 active torsions:
REMARK  status: ('A' for Active; 'I' for Inactive)
REMARK    1  A    between atoms: O_1  and  C_2
REMARK    2  A    between atoms: C_2  and  C_3
REMARK    3  A    between atoms: C_2  and  C_12
REMARK    4  A    between atoms: C_3  and  O_4
REMARK    5  A    between atoms: O_4  and  C_5
REMARK    6  A    between atoms: C_12  and  N_13
REMARK                            x       y       z     vdW  Elec       q    Type
REMARK                         _______ _______ _______ _____ _____    ______ ____
ROOT
ATOM      1  C   UNL     1       4.986   3.436  18.145  0.00  0.00    +0.000 C 
ENDROOT
BRANCH   1   2
ATOM      2  O   UNL     1       4.453   2.676  19.196  0.00  0.00    +0.000 OA
ATOM      3  H   UNL     1       4.114   1.830  18.803  0.00  0.00    +0.000 HD
ENDBRANCH   1   2
BRANCH   1   4
ATOM      4  C   UNL     1       3.863   3.920  17.224  0.00  0.00    +0.000 C 
BRANCH   4   5
ATOM      5  O   UNL     1       2.682   4.111  17.903  0.00  0.00    +0.000 OA
BRANCH   5   6
ATOM      6  C   UNL     1       2.378   5.149  18.735  0.00  0.00    +0.000 A 
ATOM      7  C   UNL     1       2.569   6.441  18.217  0.00  0.00    +0.000 A 
ATOM      8  C   UNL     1       2.284   7.575  18.982  0.00  0.00    +0.000 A 
ATOM      9  C   UNL     1       1.803   7.439  20.280  0.00  0.00    +0.000 A 
ATOM     10  C   UNL     1       1.607   6.172  20.820  0.00  0.00    +0.000 A 
ATOM     11  C   UNL     1       1.884   5.019  20.075  0.00  0.00    +0.000 A 
ATOM     12 BR   UNL     1       1.535   3.379  21.021  0.00  0.00    +0.000 Br
ENDBRANCH   5   6
ENDBRANCH   4   5
ENDBRANCH   1   4
BRANCH   1  13
ATOM     13  C   UNL     1       5.710   4.673  18.712  0.00  0.00    +0.000 C 
BRANCH  13  14
ATOM     14  N   UNL     1       7.164   4.698  18.422  0.00  0.00    +0.000 NA
ATOM     15  C   UNL     1       7.511   4.442  17.008  0.00  0.00    +0.000 C 
ATOM     16  C   UNL     1       7.063   5.595  16.100  0.00  0.00    +0.000 C 
ATOM     17  N   UNL     1       7.684   6.851  16.543  0.00  0.00    +0.000 NA
ATOM     18  C   UNL     1       7.354   7.146  17.943  0.00  0.00    +0.000 C 
ATOM     19  C   UNL     1       7.778   5.975  18.853  0.00  0.00    +0.000 C 
ATOM     20  H   UNL     1       7.328   7.630  15.942  0.00  0.00    +0.000 HD
ENDBRANCH  13  14
ENDBRANCH   1  13
TORSDOF 6
ENDMDL
MODEL 6
REMARK VINA RESULT:      -6.1      2.336      3.458
REMARK  Name = 
REMARK  6 active torsions:
REMARK  status: ('A' for Active; 'I' for Inactive)
REMARK    1  A    between atoms: O_1  and  C_2
REMARK    2  A    between atoms: C_2  and  C_3
REMARK    3  A    between atoms: C_2  and  C_12
REMARK    4  A    between atoms: C_3  and  O_4
REMARK    5  A    between atoms: O_4  and  C_5
REMARK    6  A    between atoms: C_12  and  N_13
REMARK                            x       y       z     vdW  Elec       q    Type
REMARK                         _______ _______ _______ _____ _____    ______ ____
ROOT
ATOM      1  C   UNL     1       4.751   3.676  18.274  0.00  0.00    +0.000 C 
ENDROOT
BRANCH   1   2
ATOM      2  O   UNL     1       4.551   2.644  19.202  0.00  0.00    +0.000 OA
ATOM      3  H   UNL     1       5.356   2.613  19.783  0.00  0.00    +0.000 HD
ENDBRANCH   1   2
BRANCH   1   4
ATOM      4  C   UNL     1       3.417   4.350  17.941  0.00  0.00    +0.000 C 
BRANCH   4   5
ATOM      5  O   UNL     1       3.551   5.708  17.767  0.00  0.00    +0.000 OA
BRANCH   5   6
ATOM      6  C   UNL     1       2.856   6.687  18.416  0.00  0.00    +0.000 A 
ATOM      7  C   UNL     1       2.718   7.910  17.736  0.00  0.00    +0.000 A 
ATOM      8  C   UNL     1       2.020   8.977  18.307  0.00  0.00    +0.000 A 
ATOM      9  C   UNL     1       1.448   8.844  19.568  0.00  0.00    +0.000 A 
ATOM     10  C   UNL     1       1.571   7.645  20.264  0.00  0.00    +0.000 A 
ATOM     11  C   UNL     1       2.264   6.560  19.715  0.00  0.00    +0.000 A 
ATOM     12 BR   UNL     1       2.304   5.007  20.853  0.00  0.00    +0.000 Br
ENDBRANCH   5   6
ENDBRANCH   4   5
ENDBRANCH   1   4
BRANCH   1  13
ATOM     13  C   UNL     1       5.691   4.741  18.872  0.00  0.00    +0.000 C 
BRANCH  13  14
ATOM     14  N   UNL     1       7.095   4.624  18.410  0.00  0.00    +0.000 NA
ATOM     15  C   UNL     1       7.246   4.438  16.952  0.00  0.00    +0.000 C 
ATOM     16  C   UNL     1       6.841   5.699  16.177  0.00  0.00    +0.000 C 
ATOM     17  N   UNL     1       7.654   6.840  16.618  0.00  0.00    +0.000 NA
ATOM     18  C   UNL     1       7.523   7.064  18.064  0.00  0.00    +0.000 C 
ATOM     19  C   UNL     1       7.903   5.787  18.842  0.00  0.00    +0.000 C 
ATOM     20  H   UNL     1       7.329   7.697  16.114  0.00  0.00    +0.000 HD
ENDBRANCH  13  14
ENDBRANCH   1  13
TORSDOF 6
ENDMDL
MODEL 7
REMARK VINA RESULT:      -5.8      0.895      1.488
REMARK  Name = 
REMARK  6 active torsions:
REMARK  status: ('A' for Active; 'I' for Inactive)
REMARK    1  A    between atoms: O_1  and  C_2
REMARK    2  A    between atoms: C_2  and  C_3
REMARK    3  A    between atoms: C_2  and  C_12
REMARK    4  A    between atoms: C_3  and  O_4
REMARK    5  A    between atoms: O_4  and  C_5
REMARK    6  A    between atoms: C_12  and  N_13
REMARK                            x       y       z     vdW  Elec       q    Type
REMARK                         _______ _______ _______ _____ _____    ______ ____
ROOT
ATOM      1  C   UNL     1       4.933   4.339  15.958  0.00  0.00    +0.000 C 
ENDROOT
BRANCH   1   2
ATOM      2  O   UNL     1       5.888   3.678  15.172  0.00  0.00    +0.000 OA
ATOM      3  H   UNL     1       5.693   3.902  14.225  0.00  0.00    +0.000 HD
ENDBRANCH   1   2
BRANCH   1   4
ATOM      4  C   UNL     1       4.221   3.338  16.872  0.00  0.00    +0.000 C 
BRANCH   4   5
ATOM      5  O   UNL     1       2.961   3.765  17.226  0.00  0.00    +0.000 OA
BRANCH   5   6
ATOM      6  C   UNL     1       2.426   3.774  18.482  0.00  0.00    +0.000 A 
ATOM      7  C   UNL     1       2.050   2.526  19.009  0.00  0.00    +0.000 A 
ATOM      8  C   UNL     1       1.498   2.420  20.288  0.00  0.00    +0.000 A 
ATOM      9  C   UNL     1       1.308   3.559  21.064  0.00  0.00    +0.000 A 
ATOM     10  C   UNL     1       1.668   4.808  20.566  0.00  0.00    +0.000 A 
ATOM     11  C   UNL     1       2.225   4.942  19.289  0.00  0.00    +0.000 A 
ATOM     12 BR   UNL     1       2.649   6.759  18.811  0.00  0.00    +0.000 Br
ENDBRANCH   5   6
ENDBRANCH   4   5
ENDBRANCH   1   4
BRANCH   1  13
ATOM     13  C   UNL     1       5.626   5.391  16.845  0.00  0.00    +0.000 C 
BRANCH  13  14
ATOM     14  N   UNL     1       7.103   5.406  16.710  0.00  0.00    +0.000 NA
ATOM     15  C   UNL     1       7.688   6.751  16.530  0.00  0.00    +0.000 C 
ATOM     16  C   UNL     1       7.553   7.600  17.802  0.00  0.00    +0.000 C 
ATOM     17  N   UNL     1       8.208   6.921  18.927  0.00  0.00    +0.000 NA
ATOM     18  C   UNL     1       7.647   5.581  19.145  0.00  0.00    +0.000 C 
ATOM     19  C   UNL     1       7.756   4.738  17.859  0.00  0.00    +0.000 C 
ATOM     20  H   UNL     1       8.063   7.492  19.792  0.00  0.00    +0.000 HD
ENDBRANCH  13  14
ENDBRANCH   1  13
TORSDOF 6
ENDMDL
MODEL 8
REMARK VINA RESULT:      -5.8      2.220      3.166
REMARK  Name = 
REMARK  6 active torsions:
REMARK  status: ('A' for Active; 'I' for Inactive)
REMARK    1  A    between atoms: O_1  and  C_2
REMARK    2  A    between atoms: C_2  and  C_3
REMARK    3  A    between atoms: C_2  and  C_12
REMARK    4  A    between atoms: C_3  and  O_4
REMARK    5  A    between atoms: O_4  and  C_5
REMARK    6  A    between atoms: C_12  and  N_13
REMARK                            x       y       z     vdW  Elec       q    Type
REMARK                         _______ _______ _______ _____ _____    ______ ____
ROOT
ATOM      1  C   UNL     1       3.978   7.341  17.685  0.00  0.00    +0.000 C 
ENDROOT
BRANCH   1   2
ATOM      2  O   UNL     1       3.001   8.099  17.024  0.00  0.00    +0.000 OA
ATOM      3  H   UNL     1       3.243   8.113  16.061  0.00  0.00    +0.000 HD
ENDBRANCH   1   2
BRANCH   1   4
ATOM      4  C   UNL     1       3.365   6.632  18.895  0.00  0.00    +0.000 C 
BRANCH   4   5
ATOM      5  O   UNL     1       3.604   5.277  18.878  0.00  0.00    +0.000 OA
BRANCH   5   6
ATOM      6  C   UNL     1       2.913   4.317  19.559  0.00  0.00    +0.000 A 
ATOM      7  C   UNL     1       2.570   4.621  20.888  0.00  0.00    +0.000 A 
ATOM      8  C   UNL     1       1.857   3.712  21.675  0.00  0.00    +0.000 A 
ATOM      9  C   UNL     1       1.475   2.482  21.149  0.00  0.00    +0.000 A 
ATOM     10  C   UNL     1       1.803   2.155  19.837  0.00  0.00    +0.000 A 
ATOM     11  C   UNL     1       2.516   3.047  19.027  0.00  0.00    +0.000 A 
ATOM     12 BR   UNL     1       2.854   2.384  17.251  0.00  0.00    +0.000 Br
ENDBRANCH   5   6
ENDBRANCH   4   5
ENDBRANCH   1   4
BRANCH   1  13
ATOM     13  C   UNL     1       4.538   6.268  16.731  0.00  0.00    +0.000 C 
BRANCH  13  14
ATOM     14  N   UNL     1       5.917   6.549  16.261  0.00  0.00    +0.000 NA
ATOM     15  C   UNL     1       6.898   6.778  17.343  0.00  0.00    +0.000 C 
ATOM     16  C   UNL     1       7.170   5.494  18.139  0.00  0.00    +0.000 C 
ATOM     17  N   UNL     1       7.662   4.443  17.239  0.00  0.00    +0.000 NA
ATOM     18  C   UNL     1       6.708   4.178  16.153  0.00  0.00    +0.000 C 
ATOM     19  C   UNL     1       6.412   5.474  15.371  0.00  0.00    +0.000 C 
ATOM     20  H   UNL     1       7.794   3.565  17.792  0.00  0.00    +0.000 HD
ENDBRANCH  13  14
ENDBRANCH   1  13
TORSDOF 6
ENDMDL
MODEL 9
REMARK VINA RESULT:      -5.8      3.039      5.775
REMARK  Name = 
REMARK  6 active torsions:
REMARK  status: ('A' for Active; 'I' for Inactive)
REMARK    1  A    between atoms: O_1  and  C_2
REMARK    2  A    between atoms: C_2  and  C_3
REMARK    3  A    between atoms: C_2  and  C_12
REMARK    4  A    between atoms: C_3  and  O_4
REMARK    5  A    between atoms: O_4  and  C_5
REMARK    6  A    between atoms: C_12  and  N_13
REMARK                            x       y       z     vdW  Elec       q    Type
REMARK                         _______ _______ _______ _____ _____    ______ ____
ROOT
ATOM      1  C   UNL     1       4.397   2.470  20.012  0.00  0.00    +0.000 C 
ENDROOT
BRANCH   1   2
ATOM      2  O   UNL     1       5.264   1.379  20.170  0.00  0.00    +0.000 OA
ATOM      3  H   UNL     1       5.325   0.924  19.289  0.00  0.00    +0.000 HD
ENDBRANCH   1   2
BRANCH   1   4
ATOM      4  C   UNL     1       5.175   3.693  19.519  0.00  0.00    +0.000 C 
BRANCH   4   5
ATOM      5  O   UNL     1       4.702   4.156  18.313  0.00  0.00    +0.000 OA
BRANCH   5   6
ATOM      6  C   UNL     1       5.439   4.418  17.194  0.00  0.00    +0.000 A 
ATOM      7  C   UNL     1       4.932   3.920  15.982  0.00  0.00    +0.000 A 
ATOM      8  C   UNL     1       5.603   4.136  14.775  0.00  0.00    +0.000 A 
ATOM      9  C   UNL     1       6.795   4.853  14.758  0.00  0.00    +0.000 A 
ATOM     10  C   UNL     1       7.322   5.355  15.944  0.00  0.00    +0.000 A 
ATOM     11  C   UNL     1       6.669   5.154  17.166  0.00  0.00    +0.000 A 
ATOM     12 BR   UNL     1       7.577   5.940  18.672  0.00  0.00    +0.000 Br
ENDBRANCH   5   6
ENDBRANCH   4   5
ENDBRANCH   1   4
BRANCH   1  13
ATOM     13  C   UNL     1       3.319   2.131  18.964  0.00  0.00    +0.000 C 
BRANCH  13  14
ATOM     14  N   UNL     1       1.946   2.063  19.521  0.00  0.00    +0.000 NA
ATOM     15  C   UNL     1       1.848   2.422  20.952  0.00  0.00    +0.000 C 
ATOM     16  C   UNL     1       2.127   3.913  21.180  0.00  0.00    +0.000 C 
ATOM     17  N   UNL     1       1.183   4.724  20.400  0.00  0.00    +0.000 NA
ATOM     18  C   UNL     1       1.258   4.403  18.968  0.00  0.00    +0.000 C 
ATOM     19  C   UNL     1       1.006   2.899  18.741  0.00  0.00    +0.000 C 
ATOM     20  H   UNL     1       1.422   5.734  20.531  0.00  0.00    +0.000 HD
ENDBRANCH  13  14
ENDBRANCH   1  13
TORSDOF 6
ENDMDL
