MODEL 1
REMARK VINA RESULT:      -7.9      0.000      0.000
REMARK  Name = 
REMARK  6 active torsions:
REMARK  status: ('A' for Active; 'I' for Inactive)
REMARK    1  A    between atoms: C_2  and  O_3
REMARK    2  A    between atoms: C_2  and  C_4
REMARK    3  A    between atoms: C_4  and  C_5
REMARK    4  A    between atoms: C_5  and  C_6
REMARK    5  A    between atoms: C_6  and  N_7
REMARK    6  A    between atoms: C_9  and  C_10
REMARK                            x       y       z     vdW  Elec       q    Type
REMARK                         _______ _______ _______ _____ _____    ______ ____
ROOT
ATOM      1  N   UNL     1       4.399   5.254  16.894  0.00  0.00    +0.000 N 
ATOM      2  N   UNL     1       4.039   6.503  17.246  0.00  0.00    +0.000 NA
ATOM      3  C   UNL     1       2.948   6.341  18.015  0.00  0.00    +0.000 A 
ATOM      4  C   UNL     1       2.603   4.954  18.117  0.00  0.00    +0.000 A 
ATOM      5  C   UNL     1       1.580   4.206  18.738  0.00  0.00    +0.000 A 
ATOM      6  C   UNL     1       1.586   2.811  18.643  0.00  0.00    +0.000 A 
ATOM      7  C   UNL     1       2.583   2.157  17.928  0.00  0.00    +0.000 A 
ATOM      8  C   UNL     1       3.598   2.874  17.286  0.00  0.00    +0.000 A 
ATOM      9  C   UNL     1       3.580   4.273  17.393  0.00  0.00    +0.000 A 
ENDROOT
BRANCH   3  10
ATOM     10  C   UNL     1       2.283   7.493  18.634  0.00  0.00    +0.000 A 
ATOM     11  C   UNL     1       1.993   7.496  20.004  0.00  0.00    +0.000 A 
ATOM     12  C   UNL     1       1.365   8.597  20.598  0.00  0.00    +0.000 A 
ATOM     13  C   UNL     1       1.021   9.705  19.824  0.00  0.00    +0.000 A 
ATOM     14  C   UNL     1       1.293   9.711  18.460  0.00  0.00    +0.000 A 
ATOM     15  C   UNL     1       1.908   8.606  17.868  0.00  0.00    +0.000 A 
ENDBRANCH   3  10
BRANCH   1  16
ATOM     16  C   UNL     1       5.612   5.073  16.117  0.00  0.00    +0.000 C 
BRANCH  16  17
ATOM     17  C   UNL     1       6.854   5.686  16.778  0.00  0.00    +0.000 C 
BRANCH  17  18
ATOM     18  C   UNL     1       7.262   5.005  18.087  0.00  0.00    +0.000 C 
BRANCH  18  20
ATOM     19  O   UNL     1       8.268   7.096  18.774  0.00  0.00    +0.000 OA
ATOM     20  C   UNL     1       7.877   5.975  19.066  0.00  0.00    +0.000 C 
BRANCH  20  21
ATOM     21  O   UNL     1       7.949   5.493  20.325  0.00  0.00    +0.000 OA
ATOM     22  H   UNL     1       7.678   6.130  21.016  0.00  0.00    +0.000 HD
ENDBRANCH  20  21
ENDBRANCH  18  20
ENDBRANCH  17  18
ENDBRANCH  16  17
ENDBRANCH   1  16
TORSDOF 6
ENDMDL
MODEL 2
REMARK VINA RESULT:      -7.8      0.633      1.312
REMARK  Name = 
REMARK  6 active torsions:
REMARK  status: ('A' for Active; 'I' for Inactive)
REMARK    1  A    between atoms: C_2  and  O_3
REMARK    2  A    between atoms: C_2  and  C_4
REMARK    3  A    between atoms: C_4  and  C_5
REMARK    4  A    between atoms: C_5  and  C_6
REMARK    5  A    between atoms: C_6  and  N_7
REMARK    6  A    between atoms: C_9  and  C_10
REMARK                            x       y       z     vdW  Elec       q    Type
REMARK                         _______ _______ _______ _____ _____    ______ ____
ROOT
ATOM      1  N   UNL     1       4.494   5.297  16.935  0.00  0.00    +0.000 N 
ATOM      2  N   UNL     1       4.126   6.536  17.312  0.00  0.00    +0.000 NA
ATOM      3  C   UNL     1       2.981   6.360  17.996  0.00  0.00    +0.000 A 
ATOM      4  C   UNL     1       2.613   4.976  18.016  0.00  0.00    +0.000 A 
ATOM      5  C   UNL     1       1.540   4.219  18.534  0.00  0.00    +0.000 A 
ATOM      6  C   UNL     1       1.536   2.829  18.382  0.00  0.00    +0.000 A 
ATOM      7  C   UNL     1       2.573   2.189  17.712  0.00  0.00    +0.000 A 
ATOM      8  C   UNL     1       3.639   2.916  17.173  0.00  0.00    +0.000 A 
ATOM      9  C   UNL     1       3.630   4.310  17.335  0.00  0.00    +0.000 A 
ENDROOT
BRANCH   3  10
ATOM     10  C   UNL     1       2.289   7.496  18.613  0.00  0.00    +0.000 A 
ATOM     11  C   UNL     1       1.910   8.603  17.844  0.00  0.00    +0.000 A 
ATOM     12  C   UNL     1       1.243   9.686  18.429  0.00  0.00    +0.000 A 
ATOM     13  C   UNL     1       0.950   9.668  19.793  0.00  0.00    +0.000 A 
ATOM     14  C   UNL     1       1.329   8.581  20.571  0.00  0.00    +0.000 A 
ATOM     15  C   UNL     1       2.006   7.508  19.987  0.00  0.00    +0.000 A 
ENDBRANCH   3  10
BRANCH   1  16
ATOM     16  C   UNL     1       5.757   5.129  16.238  0.00  0.00    +0.000 C 
BRANCH  16  17
ATOM     17  C   UNL     1       6.886   4.615  17.140  0.00  0.00    +0.000 C 
BRANCH  17  18
ATOM     18  C   UNL     1       7.521   5.696  18.020  0.00  0.00    +0.000 C 
BRANCH  18  20
ATOM     19  O   UNL     1       8.074   5.393  20.356  0.00  0.00    +0.000 OA
ATOM     20  C   UNL     1       7.222   5.485  19.485  0.00  0.00    +0.000 C 
BRANCH  20  21
ATOM     21  O   UNL     1       5.902   5.420  19.759  0.00  0.00    +0.000 OA
ATOM     22  H   UNL     1       5.335   5.270  18.976  0.00  0.00    +0.000 HD
ENDBRANCH  20  21
ENDBRANCH  18  20
ENDBRANCH  17  18
ENDBRANCH  16  17
ENDBRANCH   1  16
TORSDOF 6
ENDMDL
MODEL 3
REMARK VINA RESULT:      -7.8      2.097      2.537
REMARK  Name = 
REMARK  6 active torsions:
REMARK  status: ('A' for Active; 'I' for Inactive)
REMARK    1  A    between atoms: C_2  and  O_3
REMARK    2  A    between atoms: C_2  and  C_4
REMARK    3  A    between atoms: C_4  and  C_5
REMARK    4  A    between atoms: C_5  and  C_6
REMARK    5  A    between atoms: C_6  and  N_7
REMARK    6  A    between atoms: C_9  and  C_10
REMARK                            x       y       z     vdW  Elec       q    Type
REMARK                         _______ _______ _______ _____ _____    ______ ____
ROOT
ATOM      1  N   UNL     1       4.821   4.892  17.980  0.00  0.00    +0.000 N 
ATOM      2  N   UNL     1       4.466   6.174  18.187  0.00  0.00    +0.000 NA
ATOM      3  C   UNL     1       3.149   6.126  18.456  0.00  0.00    +0.000 A 
ATOM      4  C   UNL     1       2.668   4.778  18.383  0.00  0.00    +0.000 A 
ATOM      5  C   UNL     1       1.419   4.137  18.532  0.00  0.00    +0.000 A 
ATOM      6  C   UNL     1       1.336   2.747  18.418  0.00  0.00    +0.000 A 
ATOM      7  C   UNL     1       2.471   1.992  18.144  0.00  0.00    +0.000 A 
ATOM      8  C   UNL     1       3.718   2.602  17.973  0.00  0.00    +0.000 A 
ATOM      9  C   UNL     1       3.786   3.999  18.093  0.00  0.00    +0.000 A 
ENDROOT
BRANCH   3  10
ATOM     10  C   UNL     1       2.401   7.344  18.784  0.00  0.00    +0.000 A 
ATOM     11  C   UNL     1       1.938   7.566  20.087  0.00  0.00    +0.000 A 
ATOM     12  C   UNL     1       1.230   8.731  20.404  0.00  0.00    +0.000 A 
ATOM     13  C   UNL     1       0.978   9.684  19.417  0.00  0.00    +0.000 A 
ATOM     14  C   UNL     1       1.423   9.472  18.117  0.00  0.00    +0.000 A 
ATOM     15  C   UNL     1       2.117   8.303  17.801  0.00  0.00    +0.000 A 
ENDBRANCH   3  10
BRANCH   1  16
ATOM     16  C   UNL     1       6.221   4.588  17.745  0.00  0.00    +0.000 C 
BRANCH  16  17
ATOM     17  C   UNL     1       6.749   5.143  16.416  0.00  0.00    +0.000 C 
BRANCH  17  18
ATOM     18  C   UNL     1       5.865   4.815  15.209  0.00  0.00    +0.000 C 
BRANCH  18  20
ATOM     19  O   UNL     1       7.526   5.298  13.517  0.00  0.00    +0.000 OA
ATOM     20  C   UNL     1       6.677   4.543  13.966  0.00  0.00    +0.000 C 
BRANCH  20  21
ATOM     21  O   UNL     1       6.387   3.360  13.385  0.00  0.00    +0.000 OA
ATOM     22  H   UNL     1       5.785   2.792  13.906  0.00  0.00    +0.000 HD
ENDBRANCH  20  21
ENDBRANCH  18  20
ENDBRANCH  17  18
ENDBRANCH  16  17
ENDBRANCH   1  16
TORSDOF 6
ENDMDL
MODEL 4
REMARK VINA RESULT:      -7.7      2.036      2.751
REMARK  Name = 
REMARK  6 active torsions:
REMARK  status: ('A' for Active; 'I' for Inactive)
REMARK    1  A    between atoms: C_2  and  O_3
REMARK    2  A    between atoms: C_2  and  C_4
REMARK    3  A    between atoms: C_4  and  C_5
REMARK    4  A    between atoms: C_5  and  C_6
REMARK    5  A    between atoms: C_6  and  N_7
REMARK    6  A    between atoms: C_9  and  C_10
REMARK                            x       y       z     vdW  Elec       q    Type
REMARK                         _______ _______ _______ _____ _____    ______ ____
ROOT
ATOM      1  N   UNL     1       4.859   5.025  17.822  0.00  0.00    +0.000 N 
ATOM      2  N   UNL     1       4.479   6.295  18.058  0.00  0.00    +0.000 NA
ATOM      3  C   UNL     1       3.173   6.211  18.363  0.00  0.00    +0.000 A 
ATOM      4  C   UNL     1       2.722   4.853  18.283  0.00  0.00    +0.000 A 
ATOM      5  C   UNL     1       1.494   4.179  18.457  0.00  0.00    +0.000 A 
ATOM      6  C   UNL     1       1.441   2.789  18.323  0.00  0.00    +0.000 A 
ATOM      7  C   UNL     1       2.586   2.067  18.006  0.00  0.00    +0.000 A 
ATOM      8  C   UNL     1       3.812   2.710  17.809  0.00  0.00    +0.000 A 
ATOM      9  C   UNL     1       3.850   4.106  17.949  0.00  0.00    +0.000 A 
ENDROOT
BRANCH   3  10
ATOM     10  C   UNL     1       2.405   7.405  18.731  0.00  0.00    +0.000 A 
ATOM     11  C   UNL     1       2.112   8.386  17.775  0.00  0.00    +0.000 A 
ATOM     12  C   UNL     1       1.373   9.523  18.122  0.00  0.00    +0.000 A 
ATOM     13  C   UNL     1       0.921   9.688  19.431  0.00  0.00    +0.000 A 
ATOM     14  C   UNL     1       1.214   8.728  20.392  0.00  0.00    +0.000 A 
ATOM     15  C   UNL     1       1.962   7.601  20.047  0.00  0.00    +0.000 A 
ENDBRANCH   3  10
BRANCH   1  16
ATOM     16  C   UNL     1       6.259   4.760  17.542  0.00  0.00    +0.000 C 
BRANCH  16  17
ATOM     17  C   UNL     1       6.769   5.455  16.273  0.00  0.00    +0.000 C 
BRANCH  17  18
ATOM     18  C   UNL     1       5.974   5.108  15.011  0.00  0.00    +0.000 C 
BRANCH  18  20
ATOM     19  O   UNL     1       6.623   3.906  13.013  0.00  0.00    +0.000 OA
ATOM     20  C   UNL     1       6.874   4.761  13.850  0.00  0.00    +0.000 C 
BRANCH  20  21
ATOM     21  O   UNL     1       8.001   5.503  13.804  0.00  0.00    +0.000 OA
ATOM     22  H   UNL     1       8.297   5.731  12.901  0.00  0.00    +0.000 HD
ENDBRANCH  20  21
ENDBRANCH  18  20
ENDBRANCH  17  18
ENDBRANCH  16  17
ENDBRANCH   1  16
TORSDOF 6
ENDMDL
MODEL 5
REMARK VINA RESULT:      -7.7      1.872      2.293
REMARK  Name = 
REMARK  6 active torsions:
REMARK  status: ('A' for Active; 'I' for Inactive)
REMARK    1  A    between atoms: C_2  and  O_3
REMARK    2  A    between atoms: C_2  and  C_4
REMARK    3  A    between atoms: C_4  and  C_5
REMARK    4  A    between atoms: C_5  and  C_6
REMARK    5  A    between atoms: C_6  and  N_7
REMARK    6  A    between atoms: C_9  and  C_10
REMARK                            x       y       z     vdW  Elec       q    Type
REMARK                         _______ _______ _______ _____ _____    ______ ____
ROOT
ATOM      1  N   UNL     1       4.387   4.916  19.100  0.00  0.00    +0.000 N 
ATOM      2  N   UNL     1       4.045   6.194  18.847  0.00  0.00    +0.000 NA
ATOM      3  C   UNL     1       2.799   6.318  19.338  0.00  0.00    +0.000 A 
ATOM      4  C   UNL     1       2.345   5.074  19.883  0.00  0.00    +0.000 A 
ATOM      5  C   UNL     1       1.158   4.603  20.486  0.00  0.00    +0.000 A 
ATOM      6  C   UNL     1       1.088   3.283  20.941  0.00  0.00    +0.000 A 
ATOM      7  C   UNL     1       2.174   2.427  20.791  0.00  0.00    +0.000 A 
ATOM      8  C   UNL     1       3.355   2.861  20.181  0.00  0.00    +0.000 A 
ATOM      9  C   UNL     1       3.410   4.189  19.731  0.00  0.00    +0.000 A 
ENDROOT
BRANCH   3  10
ATOM     10  C   UNL     1       2.093   7.603  19.288  0.00  0.00    +0.000 A 
ATOM     11  C   UNL     1       1.977   8.305  18.082  0.00  0.00    +0.000 A 
ATOM     12  C   UNL     1       1.297   9.528  18.031  0.00  0.00    +0.000 A 
ATOM     13  C   UNL     1       0.729  10.059  19.188  0.00  0.00    +0.000 A 
ATOM     14  C   UNL     1       0.846   9.378  20.395  0.00  0.00    +0.000 A 
ATOM     15  C   UNL     1       1.535   8.165  20.446  0.00  0.00    +0.000 A 
ENDBRANCH   3  10
BRANCH   1  16
ATOM     16  C   UNL     1       5.729   4.477  18.763  0.00  0.00    +0.000 C 
BRANCH  16  17
ATOM     17  C   UNL     1       6.814   5.496  19.134  0.00  0.00    +0.000 C 
BRANCH  17  18
ATOM     18  C   UNL     1       7.698   5.920  17.958  0.00  0.00    +0.000 C 
BRANCH  18  20
ATOM     19  O   UNL     1       7.772   8.267  17.371  0.00  0.00    +0.000 OA
ATOM     20  C   UNL     1       7.204   7.187  17.302  0.00  0.00    +0.000 C 
BRANCH  20  21
ATOM     21  O   UNL     1       6.060   7.019  16.606  0.00  0.00    +0.000 OA
ATOM     22  H   UNL     1       5.255   7.313  17.077  0.00  0.00    +0.000 HD
ENDBRANCH  20  21
ENDBRANCH  18  20
ENDBRANCH  17  18
ENDBRANCH  16  17
ENDBRANCH   1  16
TORSDOF 6
ENDMDL
MODEL 6
REMARK VINA RESULT:      -7.7      1.918      2.187
REMARK  Name = 
REMARK  6 active torsions:
REMARK  status: ('A' for Active; 'I' for Inactive)
REMARK    1  A    between atoms: C_2  and  O_3
REMARK    2  A    between atoms: C_2  and  C_4
REMARK    3  A    between atoms: C_4  and  C_5
REMARK    4  A    between atoms: C_5  and  C_6
REMARK    5  A    between atoms: C_6  and  N_7
REMARK    6  A    between atoms: C_9  and  C_10
REMARK                            x       y       z     vdW  Elec       q    Type
REMARK                         _______ _______ _______ _____ _____    ______ ____
ROOT
ATOM      1  N   UNL     1       4.471   4.963  19.045  0.00  0.00    +0.000 N 
ATOM      2  N   UNL     1       4.108   6.232  18.777  0.00  0.00    +0.000 NA
ATOM      3  C   UNL     1       2.869   6.349  19.286  0.00  0.00    +0.000 A 
ATOM      4  C   UNL     1       2.440   5.108  19.860  0.00  0.00    +0.000 A 
ATOM      5  C   UNL     1       1.270   4.632  20.490  0.00  0.00    +0.000 A 
ATOM      6  C   UNL     1       1.225   3.319  20.968  0.00  0.00    +0.000 A 
ATOM      7  C   UNL     1       2.319   2.475  20.814  0.00  0.00    +0.000 A 
ATOM      8  C   UNL     1       3.484   2.914  20.177  0.00  0.00    +0.000 A 
ATOM      9  C   UNL     1       3.515   4.234  19.704  0.00  0.00    +0.000 A 
ENDROOT
BRANCH   3  10
ATOM     10  C   UNL     1       2.146   7.623  19.227  0.00  0.00    +0.000 A 
ATOM     11  C   UNL     1       1.560   8.164  20.378  0.00  0.00    +0.000 A 
ATOM     12  C   UNL     1       0.875   9.384  20.326  0.00  0.00    +0.000 A 
ATOM     13  C   UNL     1       0.771  10.073  19.118  0.00  0.00    +0.000 A 
ATOM     14  C   UNL     1       1.339   9.543  17.965  0.00  0.00    +0.000 A 
ATOM     15  C   UNL     1       2.010   8.320  18.017  0.00  0.00    +0.000 A 
ENDBRANCH   3  10
BRANCH   1  16
ATOM     16  C   UNL     1       5.813   4.535  18.693  0.00  0.00    +0.000 C 
BRANCH  16  17
ATOM     17  C   UNL     1       6.908   5.476  19.212  0.00  0.00    +0.000 C 
BRANCH  17  18
ATOM     18  C   UNL     1       7.554   6.340  18.125  0.00  0.00    +0.000 C 
BRANCH  18  20
ATOM     19  O   UNL     1       7.581   5.055  16.074  0.00  0.00    +0.000 OA
ATOM     20  C   UNL     1       7.090   5.953  16.741  0.00  0.00    +0.000 C 
BRANCH  20  21
ATOM     21  O   UNL     1       6.053   6.694  16.297  0.00  0.00    +0.000 OA
ATOM     22  H   UNL     1       5.374   6.883  16.975  0.00  0.00    +0.000 HD
ENDBRANCH  20  21
ENDBRANCH  18  20
ENDBRANCH  17  18
ENDBRANCH  16  17
ENDBRANCH   1  16
TORSDOF 6
ENDMDL
MODEL 7
REMARK VINA RESULT:      -7.6      2.575      4.121
REMARK  Name = 
REMARK  6 active torsions:
REMARK  status: ('A' for Active; 'I' for Inactive)
REMARK    1  A    between atoms: C_2  and  O_3
REMARK    2  A    between atoms: C_2  and  C_4
REMARK    3  A    between atoms: C_4  and  C_5
REMARK    4  A    between atoms: C_5  and  C_6
REMARK    5  A    between atoms: C_6  and  N_7
REMARK    6  A    between atoms: C_9  and  C_10
REMARK                            x       y       z     vdW  Elec       q    Type
REMARK                         _______ _______ _______ _____ _____    ______ ____
ROOT
ATOM      1  N   UNL     1       2.927   4.137  17.642  0.00  0.00    +0.000 N 
ATOM      2  N   UNL     1       2.113   5.049  18.205  0.00  0.00    +0.000 NA
ATOM      3  C   UNL     1       2.799   6.204  18.147  0.00  0.00    +0.000 A 
ATOM      4  C   UNL     1       4.088   5.995  17.559  0.00  0.00    +0.000 A 
ATOM      5  C   UNL     1       5.216   6.796  17.274  0.00  0.00    +0.000 A 
ATOM      6  C   UNL     1       6.326   6.230  16.640  0.00  0.00    +0.000 A 
ATOM      7  C   UNL     1       6.333   4.882  16.301  0.00  0.00    +0.000 A 
ATOM      8  C   UNL     1       5.238   4.061  16.588  0.00  0.00    +0.000 A 
ATOM      9  C   UNL     1       4.131   4.643  17.223  0.00  0.00    +0.000 A 
ENDROOT
BRANCH   3  10
ATOM     10  C   UNL     1       2.211   7.457  18.632  0.00  0.00    +0.000 A 
ATOM     11  C   UNL     1       1.854   7.602  19.978  0.00  0.00    +0.000 A 
ATOM     12  C   UNL     1       1.299   8.799  20.445  0.00  0.00    +0.000 A 
ATOM     13  C   UNL     1       1.096   9.862  19.566  0.00  0.00    +0.000 A 
ATOM     14  C   UNL     1       1.435   9.728  18.225  0.00  0.00    +0.000 A 
ATOM     15  C   UNL     1       1.976   8.529  17.759  0.00  0.00    +0.000 A 
ENDBRANCH   3  10
BRANCH   1  16
ATOM     16  C   UNL     1       2.439   2.780  17.473  0.00  0.00    +0.000 C 
BRANCH  16  17
ATOM     17  C   UNL     1       2.034   2.110  18.792  0.00  0.00    +0.000 C 
BRANCH  17  18
ATOM     18  C   UNL     1       2.865   2.558  19.998  0.00  0.00    +0.000 C 
BRANCH  18  20
ATOM     19  O   UNL     1       2.334   3.058  22.305  0.00  0.00    +0.000 OA
ATOM     20  C   UNL     1       2.001   3.061  21.129  0.00  0.00    +0.000 C 
BRANCH  20  21
ATOM     21  O   UNL     1       0.806   3.537  20.721  0.00  0.00    +0.000 OA
ATOM     22  H   UNL     1       0.132   3.594  21.427  0.00  0.00    +0.000 HD
ENDBRANCH  20  21
ENDBRANCH  18  20
ENDBRANCH  17  18
ENDBRANCH  16  17
ENDBRANCH   1  16
TORSDOF 6
ENDMDL
MODEL 8
REMARK VINA RESULT:      -7.6      1.089      1.644
REMARK  Name = 
REMARK  6 active torsions:
REMARK  status: ('A' for Active; 'I' for Inactive)
REMARK    1  A    between atoms: C_2  and  O_3
REMARK    2  A    between atoms: C_2  and  C_4
REMARK    3  A    between atoms: C_4  and  C_5
REMARK    4  A    between atoms: C_5  and  C_6
REMARK    5  A    between atoms: C_6  and  N_7
REMARK    6  A    between atoms: C_9  and  C_10
REMARK                            x       y       z     vdW  Elec       q    Type
REMARK                         _______ _______ _______ _____ _____    ______ ____
ROOT
ATOM      1  N   UNL     1       4.471   6.010  16.953  0.00  0.00    +0.000 N 
ATOM      2  N   UNL     1       4.020   7.192  17.413  0.00  0.00    +0.000 NA
ATOM      3  C   UNL     1       2.896   6.891  18.087  0.00  0.00    +0.000 A 
ATOM      4  C   UNL     1       2.626   5.486  18.015  0.00  0.00    +0.000 A 
ATOM      5  C   UNL     1       1.612   4.622  18.484  0.00  0.00    +0.000 A 
ATOM      6  C   UNL     1       1.704   3.249  18.239  0.00  0.00    +0.000 A 
ATOM      7  C   UNL     1       2.778   2.730  17.524  0.00  0.00    +0.000 A 
ATOM      8  C   UNL     1       3.787   3.564  17.032  0.00  0.00    +0.000 A 
ATOM      9  C   UNL     1       3.682   4.940  17.287  0.00  0.00    +0.000 A 
ENDROOT
BRANCH   3  10
ATOM     10  C   UNL     1       2.131   7.931  18.781  0.00  0.00    +0.000 A 
ATOM     11  C   UNL     1       1.683   9.065  18.093  0.00  0.00    +0.000 A 
ATOM     12  C   UNL     1       0.946  10.056  18.751  0.00  0.00    +0.000 A 
ATOM     13  C   UNL     1       0.651   9.920  20.108  0.00  0.00    +0.000 A 
ATOM     14  C   UNL     1       1.099   8.805  20.807  0.00  0.00    +0.000 A 
ATOM     15  C   UNL     1       1.845   7.824  20.150  0.00  0.00    +0.000 A 
ENDBRANCH   3  10
BRANCH   1  16
ATOM     16  C   UNL     1       5.737   5.979  16.242  0.00  0.00    +0.000 C 
BRANCH  16  17
ATOM     17  C   UNL     1       6.799   6.906  16.849  0.00  0.00    +0.000 C 
BRANCH  17  18
ATOM     18  C   UNL     1       7.481   6.337  18.096  0.00  0.00    +0.000 C 
BRANCH  18  20
ATOM     19  O   UNL     1       6.589   4.251  18.940  0.00  0.00    +0.000 OA
ATOM     20  C   UNL     1       7.349   4.835  18.182  0.00  0.00    +0.000 C 
BRANCH  20  21
ATOM     21  O   UNL     1       8.153   4.177  17.321  0.00  0.00    +0.000 OA
ATOM     22  H   UNL     1       9.094   4.439  17.367  0.00  0.00    +0.000 HD
ENDBRANCH  20  21
ENDBRANCH  18  20
ENDBRANCH  17  18
ENDBRANCH  16  17
ENDBRANCH   1  16
TORSDOF 6
ENDMDL
MODEL 9
REMARK VINA RESULT:      -7.6      1.916      2.377
REMARK  Name = 
REMARK  6 active torsions:
REMARK  status: ('A' for Active; 'I' for Inactive)
REMARK    1  A    between atoms: C_2  and  O_3
REMARK    2  A    between atoms: C_2  and  C_4
REMARK    3  A    between atoms: C_4  and  C_5
REMARK    4  A    between atoms: C_5  and  C_6
REMARK    5  A    between atoms: C_6  and  N_7
REMARK    6  A    between atoms: C_9  and  C_10
REMARK                            x       y       z     vdW  Elec       q    Type
REMARK                         _______ _______ _______ _____ _____    ______ ____
ROOT
ATOM      1  N   UNL     1       4.399   4.941  19.004  0.00  0.00    +0.000 N 
ATOM      2  N   UNL     1       4.046   6.218  18.765  0.00  0.00    +0.000 NA
ATOM      3  C   UNL     1       2.819   6.340  19.302  0.00  0.00    +0.000 A 
ATOM      4  C   UNL     1       2.387   5.094  19.862  0.00  0.00    +0.000 A 
ATOM      5  C   UNL     1       1.224   4.620  20.507  0.00  0.00    +0.000 A 
ATOM      6  C   UNL     1       1.174   3.300  20.963  0.00  0.00    +0.000 A 
ATOM      7  C   UNL     1       2.254   2.446  20.771  0.00  0.00    +0.000 A 
ATOM      8  C   UNL     1       3.411   2.882  20.118  0.00  0.00    +0.000 A 
ATOM      9  C   UNL     1       3.448   4.211  19.669  0.00  0.00    +0.000 A 
ENDROOT
BRANCH   3  10
ATOM     10  C   UNL     1       2.110   7.624  19.281  0.00  0.00    +0.000 A 
ATOM     11  C   UNL     1       2.000   8.357  18.092  0.00  0.00    +0.000 A 
ATOM     12  C   UNL     1       1.318   9.579  18.068  0.00  0.00    +0.000 A 
ATOM     13  C   UNL     1       0.739  10.078  19.234  0.00  0.00    +0.000 A 
ATOM     14  C   UNL     1       0.850   9.366  20.424  0.00  0.00    +0.000 A 
ATOM     15  C   UNL     1       1.543   8.154  20.448  0.00  0.00    +0.000 A 
ENDBRANCH   3  10
BRANCH   1  16
ATOM     16  C   UNL     1       5.729   4.504  18.616  0.00  0.00    +0.000 C 
BRANCH  16  17
ATOM     17  C   UNL     1       6.838   5.469  19.055  0.00  0.00    +0.000 C 
BRANCH  17  18
ATOM     18  C   UNL     1       7.498   6.225  17.898  0.00  0.00    +0.000 C 
BRANCH  18  20
ATOM     19  O   UNL     1       6.198   6.141  15.858  0.00  0.00    +0.000 OA
ATOM     20  C   UNL     1       7.090   5.676  16.552  0.00  0.00    +0.000 C 
BRANCH  20  21
ATOM     21  O   UNL     1       7.821   4.609  16.165  0.00  0.00    +0.000 OA
ATOM     22  H   UNL     1       7.506   3.754  16.520  0.00  0.00    +0.000 HD
ENDBRANCH  20  21
ENDBRANCH  18  20
ENDBRANCH  17  18
ENDBRANCH  16  17
ENDBRANCH   1  16
TORSDOF 6
ENDMDL
