MODEL 1
REMARK VINA RESULT:      -6.7      0.000      0.000
REMARK  Name = 
REMARK  8 active torsions:
REMARK  status: ('A' for Active; 'I' for Inactive)
REMARK    1  A    between atoms: C_1  and  C_2
REMARK    2  A    between atoms: C_2  and  C_3
REMARK    3  A    between atoms: C_6  and  C_7
REMARK    4  A    between atoms: C_8  and  C_9
REMARK    5  A    between atoms: N_14  and  S_15
REMARK    6  A    between atoms: S_15  and  C_18
REMARK    7  A    between atoms: C_21  and  C_22
REMARK    8  A    between atoms: C_22  and  C_23
REMARK                            x       y       z     vdW  Elec       q    Type
REMARK                         _______ _______ _______ _____ _____    ______ ____
ROOT
ATOM      1  C   UNL     1      -4.028  14.108  20.808  0.00  0.00    +0.000 C 
ATOM      2  O   UNL     1      -4.031  15.345  20.840  0.00  0.00    +0.000 OA
ATOM      3  N   UNL     1      -2.876  13.430  20.383  0.00  0.00    +0.000 N 
ATOM      4  C   UNL     1      -2.857  11.997  20.144  0.00  0.00    +0.000 C 
ATOM      5  C   UNL     1      -1.848  11.473  19.142  0.00  0.00    +0.000 C 
ATOM      6  N   UNL     1      -0.504  12.026  19.424  0.00  0.00    +0.000 NA
ATOM      7  C   UNL     1      -0.584  13.529  19.471  0.00  0.00    +0.000 C 
ATOM      8  C   UNL     1      -1.552  14.020  20.564  0.00  0.00    +0.000 C 
ENDROOT
BRANCH   1  14
ATOM      9  C   UNL     1      -5.583  12.928  22.512  0.00  0.00    +0.000 A 
ATOM     10  N   UNL     1      -6.717  12.222  22.526  0.00  0.00    +0.000 NA
ATOM     11  O   UNL     1      -7.146  12.164  21.224  0.00  0.00    +0.000 OA
ATOM     12  C   UNL     1      -6.275  12.828  20.424  0.00  0.00    +0.000 A 
ATOM     13  C   UNL     1      -6.709  12.797  19.001  0.00  0.00    +0.000 C 
ATOM     14  C   UNL     1      -5.231  13.351  21.182  0.00  0.00    +0.000 A 
BRANCH   9  16
ATOM     15  C   UNL     1      -3.587  12.414  23.923  0.00  0.00    +0.000 C 
ATOM     16  C   UNL     1      -4.900  13.171  23.809  0.00  0.00    +0.000 C 
ENDBRANCH   9  16
ENDBRANCH   1  14
BRANCH   6  17
ATOM     17  S   UNL     1       0.379  11.269  20.704  0.00  0.00    +0.000 S 
ATOM     18  O   UNL     1       1.441  12.166  21.086  0.00  0.00    +0.000 OA
ATOM     19  O   UNL     1      -0.574  10.772  21.681  0.00  0.00    +0.000 OA
BRANCH  17  20
ATOM     20  C   UNL     1       1.113   9.863  19.899  0.00  0.00    +0.000 A 
ATOM     21  C   UNL     1       1.316   8.695  20.641  0.00  0.00    +0.000 A 
ATOM     22  C   UNL     1       1.915   7.577  20.044  0.00  0.00    +0.000 A 
ATOM     23  C   UNL     1       2.270   7.617  18.686  0.00  0.00    +0.000 A 
ATOM     24  C   UNL     1       2.034   8.783  17.948  0.00  0.00    +0.000 A 
ATOM     25  C   UNL     1       1.458   9.910  18.545  0.00  0.00    +0.000 A 
BRANCH  23  26
ATOM     26  C   UNL     1       2.946   6.477  17.996  0.00  0.00    +0.000 C 
ATOM     27  C   UNL     1       2.338   5.099  18.016  0.00  0.00    +0.000 C 
ATOM     28  O   UNL     1       3.992   6.692  17.389  0.00  0.00    +0.000 OA
ENDBRANCH  23  26
ENDBRANCH  17  20
ENDBRANCH   6  17
TORSDOF 5
ENDMDL
MODEL 2
REMARK VINA RESULT:      -6.5      2.470      3.782
REMARK  Name = 
REMARK  8 active torsions:
REMARK  status: ('A' for Active; 'I' for Inactive)
REMARK    1  A    between atoms: C_1  and  C_2
REMARK    2  A    between atoms: C_2  and  C_3
REMARK    3  A    between atoms: C_6  and  C_7
REMARK    4  A    between atoms: C_8  and  C_9
REMARK    5  A    between atoms: N_14  and  S_15
REMARK    6  A    between atoms: S_15  and  C_18
REMARK    7  A    between atoms: C_21  and  C_22
REMARK    8  A    between atoms: C_22  and  C_23
REMARK                            x       y       z     vdW  Elec       q    Type
REMARK                         _______ _______ _______ _____ _____    ______ ____
ROOT
ATOM      1  C   UNL     1      -2.498  12.423  19.635  0.00  0.00    +0.000 C 
ATOM      2  O   UNL     1      -2.504  13.563  20.116  0.00  0.00    +0.000 OA
ATOM      3  N   UNL     1      -1.353  11.623  19.770  0.00  0.00    +0.000 N 
ATOM      4  C   UNL     1      -1.203  10.355  19.079  0.00  0.00    +0.000 C 
ATOM      5  C   UNL     1       0.209   9.892  18.775  0.00  0.00    +0.000 C 
ATOM      6  N   UNL     1       1.057   9.992  19.983  0.00  0.00    +0.000 NA
ATOM      7  C   UNL     1       0.985  11.394  20.528  0.00  0.00    +0.000 C 
ATOM      8  C   UNL     1      -0.454  11.791  20.909  0.00  0.00    +0.000 C 
ENDROOT
BRANCH   1  14
ATOM      9  C   UNL     1      -3.677  11.484  17.528  0.00  0.00    +0.000 A 
ATOM     10  N   UNL     1      -4.899  11.118  17.132  0.00  0.00    +0.000 NA
ATOM     11  O   UNL     1      -5.719  11.291  18.218  0.00  0.00    +0.000 OA
ATOM     12  C   UNL     1      -5.000  11.763  19.266  0.00  0.00    +0.000 A 
ATOM     13  C   UNL     1      -5.852  11.957  20.471  0.00  0.00    +0.000 C 
ATOM     14  C   UNL     1      -3.666  11.918  18.901  0.00  0.00    +0.000 A 
BRANCH   9  16
ATOM     15  C   UNL     1      -2.960  10.583  15.312  0.00  0.00    +0.000 C 
ATOM     16  C   UNL     1      -2.567  11.376  16.546  0.00  0.00    +0.000 C 
ENDBRANCH   9  16
ENDBRANCH   1  14
BRANCH   6  17
ATOM     17  S   UNL     1       0.893   8.716  21.139  0.00  0.00    +0.000 S 
ATOM     18  O   UNL     1       1.700   9.060  22.283  0.00  0.00    +0.000 OA
ATOM     19  O   UNL     1      -0.521   8.413  21.282  0.00  0.00    +0.000 OA
BRANCH  17  20
ATOM     20  C   UNL     1       1.663   7.339  20.319  0.00  0.00    +0.000 A 
ATOM     21  C   UNL     1       2.384   7.575  19.145  0.00  0.00    +0.000 A 
ATOM     22  C   UNL     1       2.983   6.508  18.460  0.00  0.00    +0.000 A 
ATOM     23  C   UNL     1       2.894   5.207  18.980  0.00  0.00    +0.000 A 
ATOM     24  C   UNL     1       2.194   4.991  20.172  0.00  0.00    +0.000 A 
ATOM     25  C   UNL     1       1.575   6.048  20.847  0.00  0.00    +0.000 A 
BRANCH  23  26
ATOM     26  C   UNL     1       3.475   4.019  18.284  0.00  0.00    +0.000 C 
ATOM     27  C   UNL     1       4.207   4.179  16.977  0.00  0.00    +0.000 C 
ATOM     28  O   UNL     1       3.367   2.915  18.811  0.00  0.00    +0.000 OA
ENDBRANCH  23  26
ENDBRANCH  17  20
ENDBRANCH   6  17
TORSDOF 5
ENDMDL
MODEL 3
REMARK VINA RESULT:      -6.5      2.421      3.310
REMARK  Name = 
REMARK  8 active torsions:
REMARK  status: ('A' for Active; 'I' for Inactive)
REMARK    1  A    between atoms: C_1  and  C_2
REMARK    2  A    between atoms: C_2  and  C_3
REMARK    3  A    between atoms: C_6  and  C_7
REMARK    4  A    between atoms: C_8  and  C_9
REMARK    5  A    between atoms: N_14  and  S_15
REMARK    6  A    between atoms: S_15  and  C_18
REMARK    7  A    between atoms: C_21  and  C_22
REMARK    8  A    between atoms: C_22  and  C_23
REMARK                            x       y       z     vdW  Elec       q    Type
REMARK                         _______ _______ _______ _____ _____    ______ ____
ROOT
ATOM      1  C   UNL     1      -2.616  12.356  19.638  0.00  0.00    +0.000 C 
ATOM      2  O   UNL     1      -2.724  13.460  20.186  0.00  0.00    +0.000 OA
ATOM      3  N   UNL     1      -1.439  11.613  19.809  0.00  0.00    +0.000 N 
ATOM      4  C   UNL     1      -1.164  10.402  19.055  0.00  0.00    +0.000 C 
ATOM      5  C   UNL     1       0.291  10.038  18.831  0.00  0.00    +0.000 C 
ATOM      6  N   UNL     1       1.042  10.104  20.104  0.00  0.00    +0.000 NA
ATOM      7  C   UNL     1       0.848  11.461  20.726  0.00  0.00    +0.000 C 
ATOM      8  C   UNL     1      -0.635  11.753  21.021  0.00  0.00    +0.000 C 
ENDROOT
BRANCH   1  14
ATOM      9  C   UNL     1      -5.071  11.669  19.178  0.00  0.00    +0.000 A 
ATOM     10  N   UNL     1      -5.806  11.138  18.198  0.00  0.00    +0.000 NA
ATOM     11  O   UNL     1      -4.951  10.948  17.142  0.00  0.00    +0.000 OA
ATOM     12  C   UNL     1      -3.704  11.358  17.481  0.00  0.00    +0.000 A 
ATOM     13  C   UNL     1      -2.745  11.178  16.357  0.00  0.00    +0.000 C 
ATOM     14  C   UNL     1      -3.696  11.838  18.787  0.00  0.00    +0.000 A 
BRANCH   9  16
ATOM     15  C   UNL     1      -7.077  11.274  20.614  0.00  0.00    +0.000 C 
ATOM     16  C   UNL     1      -5.754  12.005  20.455  0.00  0.00    +0.000 C 
ENDBRANCH   9  16
ENDBRANCH   1  14
BRANCH   6  17
ATOM     17  S   UNL     1       0.870   8.747  21.163  0.00  0.00    +0.000 S 
ATOM     18  O   UNL     1       1.691   8.996  22.322  0.00  0.00    +0.000 OA
ATOM     19  O   UNL     1      -0.546   8.452  21.295  0.00  0.00    +0.000 OA
BRANCH  17  20
ATOM     20  C   UNL     1       1.616   7.426  20.237  0.00  0.00    +0.000 A 
ATOM     21  C   UNL     1       2.271   7.732  19.040  0.00  0.00    +0.000 A 
ATOM     22  C   UNL     1       2.848   6.710  18.272  0.00  0.00    +0.000 A 
ATOM     23  C   UNL     1       2.806   5.384  18.731  0.00  0.00    +0.000 A 
ATOM     24  C   UNL     1       2.172   5.097  19.946  0.00  0.00    +0.000 A 
ATOM     25  C   UNL     1       1.575   6.109  20.704  0.00  0.00    +0.000 A 
BRANCH  23  26
ATOM     26  C   UNL     1       3.366   4.242  17.947  0.00  0.00    +0.000 C 
ATOM     27  C   UNL     1       4.538   4.448  17.023  0.00  0.00    +0.000 C 
ATOM     28  O   UNL     1       2.870   3.127  18.091  0.00  0.00    +0.000 OA
ENDBRANCH  23  26
ENDBRANCH  17  20
ENDBRANCH   6  17
TORSDOF 5
ENDMDL
MODEL 4
REMARK VINA RESULT:      -6.5      2.365      3.161
REMARK  Name = 
REMARK  8 active torsions:
REMARK  status: ('A' for Active; 'I' for Inactive)
REMARK    1  A    between atoms: C_1  and  C_2
REMARK    2  A    between atoms: C_2  and  C_3
REMARK    3  A    between atoms: C_6  and  C_7
REMARK    4  A    between atoms: C_8  and  C_9
REMARK    5  A    between atoms: N_14  and  S_15
REMARK    6  A    between atoms: S_15  and  C_18
REMARK    7  A    between atoms: C_21  and  C_22
REMARK    8  A    between atoms: C_22  and  C_23
REMARK                            x       y       z     vdW  Elec       q    Type
REMARK                         _______ _______ _______ _____ _____    ______ ____
ROOT
ATOM      1  C   UNL     1      -2.573  12.379  19.570  0.00  0.00    +0.000 C 
ATOM      2  O   UNL     1      -2.661  13.495  20.097  0.00  0.00    +0.000 OA
ATOM      3  N   UNL     1      -1.405  11.622  19.748  0.00  0.00    +0.000 N 
ATOM      4  C   UNL     1      -1.154  10.393  19.015  0.00  0.00    +0.000 C 
ATOM      5  C   UNL     1       0.294  10.004  18.788  0.00  0.00    +0.000 C 
ATOM      6  N   UNL     1       1.055  10.083  20.054  0.00  0.00    +0.000 NA
ATOM      7  C   UNL     1       0.886  11.455  20.652  0.00  0.00    +0.000 C 
ATOM      8  C   UNL     1      -0.591  11.774  20.951  0.00  0.00    +0.000 C 
ENDROOT
BRANCH   1  14
ATOM      9  C   UNL     1      -5.033  11.684  19.153  0.00  0.00    +0.000 A 
ATOM     10  N   UNL     1      -5.784  11.155  18.184  0.00  0.00    +0.000 NA
ATOM     11  O   UNL     1      -4.949  10.974  17.111  0.00  0.00    +0.000 OA
ATOM     12  C   UNL     1      -3.697  11.388  17.429  0.00  0.00    +0.000 A 
ATOM     13  C   UNL     1      -2.759  11.218  16.286  0.00  0.00    +0.000 C 
ATOM     14  C   UNL     1      -3.666  11.861  18.738  0.00  0.00    +0.000 A 
BRANCH   9  16
ATOM     15  C   UNL     1      -7.068  11.374  20.569  0.00  0.00    +0.000 C 
ATOM     16  C   UNL     1      -5.693  12.010  20.445  0.00  0.00    +0.000 C 
ENDBRANCH   9  16
ENDBRANCH   1  14
BRANCH   6  17
ATOM     17  S   UNL     1       0.871   8.750  21.141  0.00  0.00    +0.000 S 
ATOM     18  O   UNL     1       1.651   9.040  22.319  0.00  0.00    +0.000 OA
ATOM     19  O   UNL     1      -0.544   8.434  21.235  0.00  0.00    +0.000 OA
BRANCH  17  20
ATOM     20  C   UNL     1       1.667   7.419  20.272  0.00  0.00    +0.000 A 
ATOM     21  C   UNL     1       1.563   6.123  20.787  0.00  0.00    +0.000 A 
ATOM     22  C   UNL     1       2.200   5.055  20.140  0.00  0.00    +0.000 A 
ATOM     23  C   UNL     1       2.906   5.282  18.948  0.00  0.00    +0.000 A 
ATOM     24  C   UNL     1       2.978   6.580  18.428  0.00  0.00    +0.000 A 
ATOM     25  C   UNL     1       2.364   7.653  19.083  0.00  0.00    +0.000 A 
BRANCH  23  26
ATOM     26  C   UNL     1       3.640   4.198  18.227  0.00  0.00    +0.000 C 
ATOM     27  C   UNL     1       3.156   2.773  18.287  0.00  0.00    +0.000 C 
ATOM     28  O   UNL     1       4.629   4.496  17.562  0.00  0.00    +0.000 OA
ENDBRANCH  23  26
ENDBRANCH  17  20
ENDBRANCH   6  17
TORSDOF 5
ENDMDL
MODEL 5
REMARK VINA RESULT:      -6.4      0.610      1.114
REMARK  Name = 
REMARK  8 active torsions:
REMARK  status: ('A' for Active; 'I' for Inactive)
REMARK    1  A    between atoms: C_1  and  C_2
REMARK    2  A    between atoms: C_2  and  C_3
REMARK    3  A    between atoms: C_6  and  C_7
REMARK    4  A    between atoms: C_8  and  C_9
REMARK    5  A    between atoms: N_14  and  S_15
REMARK    6  A    between atoms: S_15  and  C_18
REMARK    7  A    between atoms: C_21  and  C_22
REMARK    8  A    between atoms: C_22  and  C_23
REMARK                            x       y       z     vdW  Elec       q    Type
REMARK                         _______ _______ _______ _____ _____    ______ ____
ROOT
ATOM      1  C   UNL     1      -3.544  14.293  20.884  0.00  0.00    +0.000 C 
ATOM      2  O   UNL     1      -3.399  15.521  20.849  0.00  0.00    +0.000 OA
ATOM      3  N   UNL     1      -2.502  13.462  20.448  0.00  0.00    +0.000 N 
ATOM      4  C   UNL     1      -2.664  12.027  20.287  0.00  0.00    +0.000 C 
ATOM      5  C   UNL     1      -1.774  11.337  19.272  0.00  0.00    +0.000 C 
ATOM      6  N   UNL     1      -0.363  11.737  19.466  0.00  0.00    +0.000 NA
ATOM      7  C   UNL     1      -0.262  13.239  19.435  0.00  0.00    +0.000 C 
ATOM      8  C   UNL     1      -1.111  13.896  20.540  0.00  0.00    +0.000 C 
ENDROOT
BRANCH   1  14
ATOM      9  C   UNL     1      -5.007  13.004  22.590  0.00  0.00    +0.000 A 
ATOM     10  N   UNL     1      -6.258  12.551  22.712  0.00  0.00    +0.000 NA
ATOM     11  O   UNL     1      -6.916  12.941  21.572  0.00  0.00    +0.000 OA
ATOM     12  C   UNL     1      -6.068  13.623  20.763  0.00  0.00    +0.000 A 
ATOM     13  C   UNL     1      -6.746  14.073  19.517  0.00  0.00    +0.000 C 
ATOM     14  C   UNL     1      -4.808  13.706  21.349  0.00  0.00    +0.000 A 
BRANCH   9  16
ATOM     15  C   UNL     1      -3.749  13.995  24.507  0.00  0.00    +0.000 C 
ATOM     16  C   UNL     1      -4.062  12.741  23.707  0.00  0.00    +0.000 C 
ENDBRANCH   9  16
ENDBRANCH   1  14
BRANCH   6  17
ATOM     17  S   UNL     1       0.487  10.942  20.746  0.00  0.00    +0.000 S 
ATOM     18  O   UNL     1       1.564  11.809  21.155  0.00  0.00    +0.000 OA
ATOM     19  O   UNL     1      -0.490  10.454  21.704  0.00  0.00    +0.000 OA
BRANCH  17  20
ATOM     20  C   UNL     1       1.199   9.532  19.931  0.00  0.00    +0.000 A 
ATOM     21  C   UNL     1       1.467   9.612  18.560  0.00  0.00    +0.000 A 
ATOM     22  C   UNL     1       2.005   8.510  17.882  0.00  0.00    +0.000 A 
ATOM     23  C   UNL     1       2.316   7.338  18.590  0.00  0.00    +0.000 A 
ATOM     24  C   UNL     1       2.069   7.282  19.967  0.00  0.00    +0.000 A 
ATOM     25  C   UNL     1       1.511   8.371  20.645  0.00  0.00    +0.000 A 
BRANCH  23  26
ATOM     26  C   UNL     1       2.855   6.113  17.926  0.00  0.00    +0.000 C 
ATOM     27  C   UNL     1       2.041   4.847  17.876  0.00  0.00    +0.000 C 
ATOM     28  O   UNL     1       3.962   6.168  17.396  0.00  0.00    +0.000 OA
ENDBRANCH  23  26
ENDBRANCH  17  20
ENDBRANCH   6  17
TORSDOF 5
ENDMDL
MODEL 6
REMARK VINA RESULT:      -6.2      4.937     11.304
REMARK  Name = 
REMARK  8 active torsions:
REMARK  status: ('A' for Active; 'I' for Inactive)
REMARK    1  A    between atoms: C_1  and  C_2
REMARK    2  A    between atoms: C_2  and  C_3
REMARK    3  A    between atoms: C_6  and  C_7
REMARK    4  A    between atoms: C_8  and  C_9
REMARK    5  A    between atoms: N_14  and  S_15
REMARK    6  A    between atoms: S_15  and  C_18
REMARK    7  A    between atoms: C_21  and  C_22
REMARK    8  A    between atoms: C_22  and  C_23
REMARK                            x       y       z     vdW  Elec       q    Type
REMARK                         _______ _______ _______ _____ _____    ______ ____
ROOT
ATOM      1  C   UNL     1       5.138   3.066  16.327  0.00  0.00    +0.000 C 
ATOM      2  O   UNL     1       5.256   1.835  16.264  0.00  0.00    +0.000 OA
ATOM      3  N   UNL     1       4.130   3.623  17.128  0.00  0.00    +0.000 N 
ATOM      4  C   UNL     1       3.814   5.040  17.109  0.00  0.00    +0.000 C 
ATOM      5  C   UNL     1       2.398   5.441  17.477  0.00  0.00    +0.000 C 
ATOM      6  N   UNL     1       1.982   4.777  18.732  0.00  0.00    +0.000 NA
ATOM      7  C   UNL     1       2.173   3.290  18.595  0.00  0.00    +0.000 C 
ATOM      8  C   UNL     1       3.641   2.920  18.312  0.00  0.00    +0.000 C 
ENDROOT
BRANCH   1  14
ATOM      9  C   UNL     1       7.014   4.836  16.085  0.00  0.00    +0.000 A 
ATOM     10  N   UNL     1       7.634   5.527  15.125  0.00  0.00    +0.000 NA
ATOM     11  O   UNL     1       7.086   5.108  13.939  0.00  0.00    +0.000 OA
ATOM     12  C   UNL     1       6.136   4.171  14.179  0.00  0.00    +0.000 A 
ATOM     13  C   UNL     1       5.520   3.681  12.915  0.00  0.00    +0.000 C 
ATOM     14  C   UNL     1       6.025   3.939  15.547  0.00  0.00    +0.000 A 
BRANCH   9  16
ATOM     15  C   UNL     1       7.449   6.551  17.848  0.00  0.00    +0.000 C 
ATOM     16  C   UNL     1       7.429   5.074  17.492  0.00  0.00    +0.000 C 
ENDBRANCH   9  16
ENDBRANCH   1  14
BRANCH   6  17
ATOM     17  S   UNL     1       2.561   5.487  20.199  0.00  0.00    +0.000 S 
ATOM     18  O   UNL     1       1.958   4.770  21.295  0.00  0.00    +0.000 OA
ATOM     19  O   UNL     1       4.003   5.629  20.097  0.00  0.00    +0.000 OA
BRANCH  17  20
ATOM     20  C   UNL     1       1.851   7.117  20.155  0.00  0.00    +0.000 A 
ATOM     21  C   UNL     1       1.098   7.551  21.251  0.00  0.00    +0.000 A 
ATOM     22  C   UNL     1       0.504   8.820  21.238  0.00  0.00    +0.000 A 
ATOM     23  C   UNL     1       0.703   9.674  20.141  0.00  0.00    +0.000 A 
ATOM     24  C   UNL     1       1.484   9.237  19.064  0.00  0.00    +0.000 A 
ATOM     25  C   UNL     1       2.060   7.962  19.062  0.00  0.00    +0.000 A 
BRANCH  23  26
ATOM     26  C   UNL     1       0.070  11.023  20.044  0.00  0.00    +0.000 C 
ATOM     27  C   UNL     1      -1.205  11.217  19.265  0.00  0.00    +0.000 C 
ATOM     28  O   UNL     1       0.593  11.965  20.633  0.00  0.00    +0.000 OA
ENDBRANCH  23  26
ENDBRANCH  17  20
ENDBRANCH   6  17
TORSDOF 5
ENDMDL
MODEL 7
REMARK VINA RESULT:      -6.2      4.845     11.537
REMARK  Name = 
REMARK  8 active torsions:
REMARK  status: ('A' for Active; 'I' for Inactive)
REMARK    1  A    between atoms: C_1  and  C_2
REMARK    2  A    between atoms: C_2  and  C_3
REMARK    3  A    between atoms: C_6  and  C_7
REMARK    4  A    between atoms: C_8  and  C_9
REMARK    5  A    between atoms: N_14  and  S_15
REMARK    6  A    between atoms: S_15  and  C_18
REMARK    7  A    between atoms: C_21  and  C_22
REMARK    8  A    between atoms: C_22  and  C_23
REMARK                            x       y       z     vdW  Elec       q    Type
REMARK                         _______ _______ _______ _____ _____    ______ ____
ROOT
ATOM      1  C   UNL     1       5.157   3.463  16.364  0.00  0.00    +0.000 C 
ATOM      2  O   UNL     1       5.240   2.245  16.161  0.00  0.00    +0.000 OA
ATOM      3  N   UNL     1       4.107   3.962  17.149  0.00  0.00    +0.000 N 
ATOM      4  C   UNL     1       3.838   5.384  17.278  0.00  0.00    +0.000 C 
ATOM      5  C   UNL     1       2.412   5.796  17.585  0.00  0.00    +0.000 C 
ATOM      6  N   UNL     1       1.878   5.007  18.716  0.00  0.00    +0.000 NA
ATOM      7  C   UNL     1       2.031   3.539  18.415  0.00  0.00    +0.000 C 
ATOM      8  C   UNL     1       3.504   3.146  18.199  0.00  0.00    +0.000 C 
ENDROOT
BRANCH   1  14
ATOM      9  C   UNL     1       6.398   4.529  14.355  0.00  0.00    +0.000 A 
ATOM     10  N   UNL     1       7.366   5.420  14.122  0.00  0.00    +0.000 NA
ATOM     11  O   UNL     1       7.756   5.888  15.351  0.00  0.00    +0.000 OA
ATOM     12  C   UNL     1       7.033   5.283  16.324  0.00  0.00    +0.000 A 
ATOM     13  C   UNL     1       7.419   5.770  17.676  0.00  0.00    +0.000 C 
ATOM     14  C   UNL     1       6.130   4.385  15.763  0.00  0.00    +0.000 A 
BRANCH   9  16
ATOM     15  C   UNL     1       6.775   3.495  12.113  0.00  0.00    +0.000 C 
ATOM     16  C   UNL     1       5.764   3.869  13.184  0.00  0.00    +0.000 C 
ENDBRANCH   9  16
ENDBRANCH   1  14
BRANCH   6  17
ATOM     17  S   UNL     1       2.361   5.514  20.298  0.00  0.00    +0.000 S 
ATOM     18  O   UNL     1       1.676   4.676  21.250  0.00  0.00    +0.000 OA
ATOM     19  O   UNL     1       3.809   5.638  20.311  0.00  0.00    +0.000 OA
BRANCH  17  20
ATOM     20  C   UNL     1       1.675   7.150  20.414  0.00  0.00    +0.000 A 
ATOM     21  C   UNL     1       1.913   8.053  19.373  0.00  0.00    +0.000 A 
ATOM     22  C   UNL     1       1.408   9.359  19.445  0.00  0.00    +0.000 A 
ATOM     23  C   UNL     1       0.624   9.745  20.544  0.00  0.00    +0.000 A 
ATOM     24  C   UNL     1       0.370   8.821  21.564  0.00  0.00    +0.000 A 
ATOM     25  C   UNL     1       0.891   7.524  21.509  0.00  0.00    +0.000 A 
BRANCH  23  26
ATOM     26  C   UNL     1       0.086  11.130  20.704  0.00  0.00    +0.000 C 
ATOM     27  C   UNL     1      -0.885  11.696  19.701  0.00  0.00    +0.000 C 
ATOM     28  O   UNL     1       0.429  11.787  21.683  0.00  0.00    +0.000 OA
ENDBRANCH  23  26
ENDBRANCH  17  20
ENDBRANCH   6  17
TORSDOF 5
ENDMDL
MODEL 8
REMARK VINA RESULT:      -6.1      1.670      2.018
REMARK  Name = 
REMARK  8 active torsions:
REMARK  status: ('A' for Active; 'I' for Inactive)
REMARK    1  A    between atoms: C_1  and  C_2
REMARK    2  A    between atoms: C_2  and  C_3
REMARK    3  A    between atoms: C_6  and  C_7
REMARK    4  A    between atoms: C_8  and  C_9
REMARK    5  A    between atoms: N_14  and  S_15
REMARK    6  A    between atoms: S_15  and  C_18
REMARK    7  A    between atoms: C_21  and  C_22
REMARK    8  A    between atoms: C_22  and  C_23
REMARK                            x       y       z     vdW  Elec       q    Type
REMARK                         _______ _______ _______ _____ _____    ______ ____
ROOT
ATOM      1  C   UNL     1      -2.319  15.247  20.884  0.00  0.00    +0.000 C 
ATOM      2  O   UNL     1      -1.802  16.341  20.625  0.00  0.00    +0.000 OA
ATOM      3  N   UNL     1      -1.680  14.067  20.475  0.00  0.00    +0.000 N 
ATOM      4  C   UNL     1      -2.310  12.762  20.579  0.00  0.00    +0.000 C 
ATOM      5  C   UNL     1      -1.866  11.696  19.597  0.00  0.00    +0.000 C 
ATOM      6  N   UNL     1      -0.389  11.617  19.553  0.00  0.00    +0.000 NA
ATOM      7  C   UNL     1       0.174  12.982  19.257  0.00  0.00    +0.000 C 
ATOM      8  C   UNL     1      -0.227  14.015  20.328  0.00  0.00    +0.000 C 
ENDROOT
BRANCH   1  14
ATOM      9  C   UNL     1      -3.800  14.792  22.960  0.00  0.00    +0.000 A 
ATOM     10  N   UNL     1      -5.092  14.791  23.300  0.00  0.00    +0.000 NA
ATOM     11  O   UNL     1      -5.781  15.179  22.178  0.00  0.00    +0.000 OA
ATOM     12  C   UNL     1      -4.913  15.410  21.163  0.00  0.00    +0.000 A 
ATOM     13  C   UNL     1      -5.619  15.843  19.927  0.00  0.00    +0.000 C 
ATOM     14  C   UNL     1      -3.606  15.180  21.587  0.00  0.00    +0.000 A 
BRANCH   9  16
ATOM     15  C   UNL     1      -2.913  15.309  25.237  0.00  0.00    +0.000 C 
ATOM     16  C   UNL     1      -2.807  14.428  24.004  0.00  0.00    +0.000 C 
ENDBRANCH   9  16
ENDBRANCH   1  14
BRANCH   6  17
ATOM     17  S   UNL     1       0.368  10.744  20.840  0.00  0.00    +0.000 S 
ATOM     18  O   UNL     1       1.407  11.584  21.381  0.00  0.00    +0.000 OA
ATOM     19  O   UNL     1      -0.674  10.195  21.690  0.00  0.00    +0.000 OA
BRANCH  17  20
ATOM     20  C   UNL     1       1.146   9.388  19.993  0.00  0.00    +0.000 A 
ATOM     21  C   UNL     1       1.414   9.516  18.626  0.00  0.00    +0.000 A 
ATOM     22  C   UNL     1       2.004   8.456  17.922  0.00  0.00    +0.000 A 
ATOM     23  C   UNL     1       2.366   7.282  18.602  0.00  0.00    +0.000 A 
ATOM     24  C   UNL     1       2.118   7.180  19.976  0.00  0.00    +0.000 A 
ATOM     25  C   UNL     1       1.509   8.225  20.678  0.00  0.00    +0.000 A 
BRANCH  23  26
ATOM     26  C   UNL     1       2.963   6.101  17.909  0.00  0.00    +0.000 C 
ATOM     27  C   UNL     1       2.214   4.795  17.837  0.00  0.00    +0.000 C 
ATOM     28  O   UNL     1       4.062   6.223  17.375  0.00  0.00    +0.000 OA
ENDBRANCH  23  26
ENDBRANCH  17  20
ENDBRANCH   6  17
TORSDOF 5
ENDMDL
MODEL 9
REMARK VINA RESULT:      -6.1      1.805      2.128
REMARK  Name = 
REMARK  8 active torsions:
REMARK  status: ('A' for Active; 'I' for Inactive)
REMARK    1  A    between atoms: C_1  and  C_2
REMARK    2  A    between atoms: C_2  and  C_3
REMARK    3  A    between atoms: C_6  and  C_7
REMARK    4  A    between atoms: C_8  and  C_9
REMARK    5  A    between atoms: N_14  and  S_15
REMARK    6  A    between atoms: S_15  and  C_18
REMARK    7  A    between atoms: C_21  and  C_22
REMARK    8  A    between atoms: C_22  and  C_23
REMARK                            x       y       z     vdW  Elec       q    Type
REMARK                         _______ _______ _______ _____ _____    ______ ____
ROOT
ATOM      1  C   UNL     1      -2.795  14.380  21.038  0.00  0.00    +0.000 C 
ATOM      2  O   UNL     1      -3.033  15.500  20.569  0.00  0.00    +0.000 OA
ATOM      3  N   UNL     1      -1.956  13.502  20.336  0.00  0.00    +0.000 N 
ATOM      4  C   UNL     1      -1.778  12.114  20.727  0.00  0.00    +0.000 C 
ATOM      5  C   UNL     1      -1.403  11.129  19.637  0.00  0.00    +0.000 C 
ATOM      6  N   UNL     1      -0.273  11.649  18.836  0.00  0.00    +0.000 NA
ATOM      7  C   UNL     1      -0.619  13.019  18.318  0.00  0.00    +0.000 C 
ATOM      8  C   UNL     1      -0.904  14.013  19.460  0.00  0.00    +0.000 C 
ENDROOT
BRANCH   1  14
ATOM      9  C   UNL     1      -2.855  14.150  23.617  0.00  0.00    +0.000 A 
ATOM     10  N   UNL     1      -3.629  13.619  24.568  0.00  0.00    +0.000 NA
ATOM     11  O   UNL     1      -4.708  13.074  23.919  0.00  0.00    +0.000 OA
ATOM     12  C   UNL     1      -4.587  13.268  22.583  0.00  0.00    +0.000 A 
ATOM     13  C   UNL     1      -5.744  12.698  21.840  0.00  0.00    +0.000 C 
ATOM     14  C   UNL     1      -3.410  13.957  22.303  0.00  0.00    +0.000 A 
BRANCH   9  16
ATOM     15  C   UNL     1      -1.697  15.376  25.459  0.00  0.00    +0.000 C 
ATOM     16  C   UNL     1      -1.608  14.839  24.041  0.00  0.00    +0.000 C 
ENDBRANCH   9  16
ENDBRANCH   1  14
BRANCH   6  17
ATOM     17  S   UNL     1       1.301  11.473  19.532  0.00  0.00    +0.000 S 
ATOM     18  O   UNL     1       2.228  12.194  18.695  0.00  0.00    +0.000 OA
ATOM     19  O   UNL     1       1.201  11.749  20.955  0.00  0.00    +0.000 OA
BRANCH  17  20
ATOM     20  C   UNL     1       1.626   9.736  19.339  0.00  0.00    +0.000 A 
ATOM     21  C   UNL     1       1.445   8.892  20.440  0.00  0.00    +0.000 A 
ATOM     22  C   UNL     1       1.717   7.521  20.328  0.00  0.00    +0.000 A 
ATOM     23  C   UNL     1       2.128   6.989  19.095  0.00  0.00    +0.000 A 
ATOM     24  C   UNL     1       2.276   7.841  17.995  0.00  0.00    +0.000 A 
ATOM     25  C   UNL     1       2.029   9.213  18.107  0.00  0.00    +0.000 A 
BRANCH  23  26
ATOM     26  C   UNL     1       2.471   5.546  18.914  0.00  0.00    +0.000 C 
ATOM     27  C   UNL     1       1.861   4.748  17.792  0.00  0.00    +0.000 C 
ATOM     28  O   UNL     1       3.280   5.031  19.682  0.00  0.00    +0.000 OA
ENDBRANCH  23  26
ENDBRANCH  17  20
ENDBRANCH   6  17
TORSDOF 5
ENDMDL
