MODEL 1
REMARK VINA RESULT:      -8.2      0.000      0.000
REMARK  Name = 
REMARK  5 active torsions:
REMARK  status: ('A' for Active; 'I' for Inactive)
REMARK    1  A    between atoms: C_2  and  O_3
REMARK    2  A    between atoms: C_2  and  C_4
REMARK    3  A    between atoms: C_11  and  C_12
REMARK    4  A    between atoms: C_12  and  N_13
REMARK    5  A    between atoms: C_14  and  C_16
REMARK                            x       y       z     vdW  Elec       q    Type
REMARK                         _______ _______ _______ _____ _____    ______ ____
ROOT
ATOM      1  C   UNL     1      -0.041  10.516  21.602  0.00  0.00    +0.000 A 
ATOM      2  C   UNL     1      -0.280  11.735  20.938  0.00  0.00    +0.000 A 
ATOM      3  C   UNL     1       0.161  11.956  19.633  0.00  0.00    +0.000 A 
ATOM      4  C   UNL     1       0.852  10.960  18.940  0.00  0.00    +0.000 A 
ATOM      5  C   UNL     1       1.095   9.723  19.570  0.00  0.00    +0.000 A 
ATOM      6  C   UNL     1       1.718   8.509  19.188  0.00  0.00    +0.000 A 
ATOM      7 CL   UNL     1       2.418   8.209  17.667  0.00  0.00    +0.000 Cl
ATOM      8  C   UNL     1       1.630   7.649  20.261  0.00  0.00    +0.000 A 
ATOM      9  O   UNL     1       0.993   8.274  21.307  0.00  0.00    +0.000 OA
ATOM     10  C   UNL     1       0.652   9.535  20.879  0.00  0.00    +0.000 A 
ENDROOT
BRANCH   1  12
ATOM     11  O   UNL     1      -1.611  10.817  23.346  0.00  0.00    +0.000 OA
ATOM     12  C   UNL     1      -0.543  10.355  22.986  0.00  0.00    +0.000 C 
BRANCH  12  13
ATOM     13  O   UNL     1       0.266   9.664  23.818  0.00  0.00    +0.000 OA
ATOM     14  H   UNL     1      -0.029   8.752  24.012  0.00  0.00    +0.000 HD
ENDBRANCH  12  13
ENDBRANCH   1  12
BRANCH   8  15
ATOM     15  C   UNL     1       2.090   6.247  20.450  0.00  0.00    +0.000 C 
BRANCH  15  16
ATOM     16  N   UNL     1       3.398   6.083  19.870  0.00  0.00    +0.000 N 
ATOM     17  C   UNL     1       3.857   4.855  19.449  0.00  0.00    +0.000 C 
ATOM     18  O   UNL     1       3.227   3.818  19.613  0.00  0.00    +0.000 OA
ATOM     19  H   UNL     1       3.939   6.901  19.602  0.00  0.00    +0.000 HD
BRANCH  17  20
ATOM     20  C   UNL     1       5.148   4.870  18.787  0.00  0.00    +0.000 A 
ATOM     21  C   UNL     1       6.402   5.100  19.393  0.00  0.00    +0.000 A 
ATOM     22  N   UNL     1       7.422   5.048  18.536  0.00  0.00    +0.000 NA
ATOM     23  N   UNL     1       6.841   4.799  17.341  0.00  0.00    +0.000 N 
ATOM     24  C   UNL     1       7.469   4.676  16.106  0.00  0.00    +0.000 A 
ATOM     25  C   UNL     1       6.749   4.444  15.001  0.00  0.00    +0.000 A 
ATOM     26  C   UNL     1       5.281   4.322  15.217  0.00  0.00    +0.000 A 
ATOM     27  N   UNL     1       4.655   4.421  16.355  0.00  0.00    +0.000 NA
ATOM     28  C   UNL     1       5.448   4.676  17.450  0.00  0.00    +0.000 A 
ENDBRANCH  17  20
ENDBRANCH  15  16
ENDBRANCH   8  15
TORSDOF 5
ENDMDL
MODEL 2
REMARK VINA RESULT:      -8.1      3.404      7.829
REMARK  Name = 
REMARK  5 active torsions:
REMARK  status: ('A' for Active; 'I' for Inactive)
REMARK    1  A    between atoms: C_2  and  O_3
REMARK    2  A    between atoms: C_2  and  C_4
REMARK    3  A    between atoms: C_11  and  C_12
REMARK    4  A    between atoms: C_12  and  N_13
REMARK    5  A    between atoms: C_14  and  C_16
REMARK                            x       y       z     vdW  Elec       q    Type
REMARK                         _______ _______ _______ _____ _____    ______ ____
ROOT
ATOM      1  C   UNL     1       2.284   3.202  19.681  0.00  0.00    +0.000 A 
ATOM      2  C   UNL     1       2.635   1.857  19.450  0.00  0.00    +0.000 A 
ATOM      3  C   UNL     1       3.472   1.490  18.397  0.00  0.00    +0.000 A 
ATOM      4  C   UNL     1       3.998   2.459  17.538  0.00  0.00    +0.000 A 
ATOM      5  C   UNL     1       3.678   3.815  17.750  0.00  0.00    +0.000 A 
ATOM      6  C   UNL     1       4.030   5.037  17.124  0.00  0.00    +0.000 A 
ATOM      7 CL   UNL     1       5.066   5.183  15.784  0.00  0.00    +0.000 Cl
ATOM      8  C   UNL     1       3.392   6.046  17.811  0.00  0.00    +0.000 A 
ATOM      9  O   UNL     1       2.641   5.512  18.832  0.00  0.00    +0.000 OA
ATOM     10  C   UNL     1       2.829   4.151  18.805  0.00  0.00    +0.000 A 
ENDROOT
BRANCH   1  12
ATOM     11  O   UNL     1       1.545   3.011  21.921  0.00  0.00    +0.000 OA
ATOM     12  C   UNL     1       1.393   3.514  20.821  0.00  0.00    +0.000 C 
BRANCH  12  13
ATOM     13  O   UNL     1       0.401   4.392  20.558  0.00  0.00    +0.000 OA
ATOM     14  H   UNL     1      -0.498   4.072  20.769  0.00  0.00    +0.000 HD
ENDBRANCH  12  13
ENDBRANCH   1  12
BRANCH   8  15
ATOM     15  C   UNL     1       3.386   7.523  17.629  0.00  0.00    +0.000 C 
BRANCH  15  16
ATOM     16  N   UNL     1       2.405   8.114  18.501  0.00  0.00    +0.000 N 
ATOM     17  C   UNL     1       1.908   9.381  18.283  0.00  0.00    +0.000 C 
ATOM     18  O   UNL     1       2.324  10.113  17.393  0.00  0.00    +0.000 OA
ATOM     19  H   UNL     1       1.931   7.541  19.194  0.00  0.00    +0.000 HD
BRANCH  17  20
ATOM     20  C   UNL     1       0.848   9.794  19.182  0.00  0.00    +0.000 A 
ATOM     21  C   UNL     1      -0.328  10.491  18.832  0.00  0.00    +0.000 A 
ATOM     22  N   UNL     1      -1.129  10.733  19.870  0.00  0.00    +0.000 NA
ATOM     23  N   UNL     1      -0.473  10.206  20.928  0.00  0.00    +0.000 N 
ATOM     24  C   UNL     1      -0.873  10.216  22.260  0.00  0.00    +0.000 A 
ATOM     25  C   UNL     1      -0.099   9.664  23.203  0.00  0.00    +0.000 A 
ATOM     26  C   UNL     1       1.166   9.055  22.706  0.00  0.00    +0.000 A 
ATOM     27  N   UNL     1       1.573   9.016  21.469  0.00  0.00    +0.000 NA
ATOM     28  C   UNL     1       0.741   9.614  20.550  0.00  0.00    +0.000 A 
ENDBRANCH  17  20
ENDBRANCH  15  16
ENDBRANCH   8  15
TORSDOF 5
ENDMDL
MODEL 3
REMARK VINA RESULT:      -8.0      1.020      1.818
REMARK  Name = 
REMARK  5 active torsions:
REMARK  status: ('A' for Active; 'I' for Inactive)
REMARK    1  A    between atoms: C_2  and  O_3
REMARK    2  A    between atoms: C_2  and  C_4
REMARK    3  A    between atoms: C_11  and  C_12
REMARK    4  A    between atoms: C_12  and  N_13
REMARK    5  A    between atoms: C_14  and  C_16
REMARK                            x       y       z     vdW  Elec       q    Type
REMARK                         _______ _______ _______ _____ _____    ______ ____
ROOT
ATOM      1  C   UNL     1      -0.132  10.779  21.493  0.00  0.00    +0.000 A 
ATOM      2  C   UNL     1      -0.228  11.962  20.734  0.00  0.00    +0.000 A 
ATOM      3  C   UNL     1       0.325  12.060  19.458  0.00  0.00    +0.000 A 
ATOM      4  C   UNL     1       0.990  10.972  18.888  0.00  0.00    +0.000 A 
ATOM      5  C   UNL     1       1.092   9.769  19.615  0.00  0.00    +0.000 A 
ATOM      6  C   UNL     1       1.650   8.490  19.362  0.00  0.00    +0.000 A 
ATOM      7 CL   UNL     1       2.438   8.037  17.926  0.00  0.00    +0.000 Cl
ATOM      8  C   UNL     1       1.417   7.716  20.478  0.00  0.00    +0.000 A 
ATOM      9  O   UNL     1       0.751   8.455  21.427  0.00  0.00    +0.000 OA
ATOM     10  C   UNL     1       0.539   9.704  20.893  0.00  0.00    +0.000 A 
ENDROOT
BRANCH   1  12
ATOM     11  O   UNL     1      -1.170  11.757  23.381  0.00  0.00    +0.000 OA
ATOM     12  C   UNL     1      -0.747  10.750  22.839  0.00  0.00    +0.000 C 
BRANCH  12  13
ATOM     13  O   UNL     1      -0.805   9.534  23.424  0.00  0.00    +0.000 OA
ATOM     14  H   UNL     1      -1.622   9.362  23.932  0.00  0.00    +0.000 HD
ENDBRANCH  12  13
ENDBRANCH   1  12
BRANCH   8  15
ATOM     15  C   UNL     1       1.755   6.302  20.794  0.00  0.00    +0.000 C 
BRANCH  15  16
ATOM     16  N   UNL     1       2.842   5.865  19.956  0.00  0.00    +0.000 N 
ATOM     17  C   UNL     1       2.719   4.786  19.110  0.00  0.00    +0.000 C 
ATOM     18  O   UNL     1       1.717   4.082  19.073  0.00  0.00    +0.000 OA
ATOM     19  H   UNL     1       3.666   6.451  19.847  0.00  0.00    +0.000 HD
BRANCH  17  20
ATOM     20  C   UNL     1       3.862   4.537  18.252  0.00  0.00    +0.000 A 
ATOM     21  C   UNL     1       3.846   3.906  16.990  0.00  0.00    +0.000 A 
ATOM     22  N   UNL     1       5.050   3.819  16.425  0.00  0.00    +0.000 NA
ATOM     23  N   UNL     1       5.883   4.382  17.329  0.00  0.00    +0.000 N 
ATOM     24  C   UNL     1       7.264   4.520  17.233  0.00  0.00    +0.000 A 
ATOM     25  C   UNL     1       7.957   5.089  18.227  0.00  0.00    +0.000 A 
ATOM     26  C   UNL     1       7.142   5.551  19.384  0.00  0.00    +0.000 A 
ATOM     27  N   UNL     1       5.849   5.450  19.508  0.00  0.00    +0.000 NA
ATOM     28  C   UNL     1       5.196   4.842  18.461  0.00  0.00    +0.000 A 
ENDBRANCH  17  20
ENDBRANCH  15  16
ENDBRANCH   8  15
TORSDOF 5
ENDMDL
MODEL 4
REMARK VINA RESULT:      -8.0      3.865      8.088
REMARK  Name = 
REMARK  5 active torsions:
REMARK  status: ('A' for Active; 'I' for Inactive)
REMARK    1  A    between atoms: C_2  and  O_3
REMARK    2  A    between atoms: C_2  and  C_4
REMARK    3  A    between atoms: C_11  and  C_12
REMARK    4  A    between atoms: C_12  and  N_13
REMARK    5  A    between atoms: C_14  and  C_16
REMARK                            x       y       z     vdW  Elec       q    Type
REMARK                         _______ _______ _______ _____ _____    ______ ____
ROOT
ATOM      1  C   UNL     1       2.225   4.300  20.023  0.00  0.00    +0.000 A 
ATOM      2  C   UNL     1       2.788   3.686  18.886  0.00  0.00    +0.000 A 
ATOM      3  C   UNL     1       3.159   4.426  17.764  0.00  0.00    +0.000 A 
ATOM      4  C   UNL     1       2.989   5.813  17.741  0.00  0.00    +0.000 A 
ATOM      5  C   UNL     1       2.442   6.459  18.867  0.00  0.00    +0.000 A 
ATOM      6  C   UNL     1       2.154   7.805  19.208  0.00  0.00    +0.000 A 
ATOM      7 CL   UNL     1       2.439   9.147  18.205  0.00  0.00    +0.000 Cl
ATOM      8  C   UNL     1       1.628   7.799  20.481  0.00  0.00    +0.000 A 
ATOM      9  O   UNL     1       1.557   6.508  20.951  0.00  0.00    +0.000 OA
ATOM     10  C   UNL     1       2.070   5.692  19.970  0.00  0.00    +0.000 A 
ENDROOT
BRANCH   1  12
ATOM     11  O   UNL     1       2.599   3.297  22.133  0.00  0.00    +0.000 OA
ATOM     12  C   UNL     1       1.858   3.448  21.177  0.00  0.00    +0.000 C 
BRANCH  12  13
ATOM     13  O   UNL     1       0.650   2.850  21.095  0.00  0.00    +0.000 OA
ATOM     14  H   UNL     1       0.658   1.885  21.249  0.00  0.00    +0.000 HD
ENDBRANCH  12  13
ENDBRANCH   1  12
BRANCH   8  15
ATOM     15  C   UNL     1       1.153   8.898  21.365  0.00  0.00    +0.000 C 
BRANCH  15  16
ATOM     16  N   UNL     1      -0.019   9.508  20.792  0.00  0.00    +0.000 N 
ATOM     17  C   UNL     1      -0.121  10.872  20.628  0.00  0.00    +0.000 C 
ATOM     18  O   UNL     1       0.730  11.655  21.031  0.00  0.00    +0.000 OA
ATOM     19  H   UNL     1      -0.721   8.930  20.337  0.00  0.00    +0.000 HD
BRANCH  17  20
ATOM     20  C   UNL     1      -1.313  11.325  19.938  0.00  0.00    +0.000 A 
ATOM     21  C   UNL     1      -2.236  12.290  20.395  0.00  0.00    +0.000 A 
ATOM     22  N   UNL     1      -3.238  12.511  19.544  0.00  0.00    +0.000 NA
ATOM     23  N   UNL     1      -2.991  11.672  18.513  0.00  0.00    +0.000 N 
ATOM     24  C   UNL     1      -3.758  11.494  17.366  0.00  0.00    +0.000 A 
ATOM     25  C   UNL     1      -3.388  10.605  16.436  0.00  0.00    +0.000 A 
ATOM     26  C   UNL     1      -2.126   9.871  16.729  0.00  0.00    +0.000 A 
ATOM     27  N   UNL     1      -1.374  10.015  17.784  0.00  0.00    +0.000 NA
ATOM     28  C   UNL     1      -1.817  10.931  18.710  0.00  0.00    +0.000 A 
ENDBRANCH  17  20
ENDBRANCH  15  16
ENDBRANCH   8  15
TORSDOF 5
ENDMDL
MODEL 5
REMARK VINA RESULT:      -8.0      3.344      8.338
REMARK  Name = 
REMARK  5 active torsions:
REMARK  status: ('A' for Active; 'I' for Inactive)
REMARK    1  A    between atoms: C_2  and  O_3
REMARK    2  A    between atoms: C_2  and  C_4
REMARK    3  A    between atoms: C_11  and  C_12
REMARK    4  A    between atoms: C_12  and  N_13
REMARK    5  A    between atoms: C_14  and  C_16
REMARK                            x       y       z     vdW  Elec       q    Type
REMARK                         _______ _______ _______ _____ _____    ______ ____
ROOT
ATOM      1  C   UNL     1       2.680   3.557  20.196  0.00  0.00    +0.000 A 
ATOM      2  C   UNL     1       3.659   2.545  20.146  0.00  0.00    +0.000 A 
ATOM      3  C   UNL     1       4.832   2.698  19.407  0.00  0.00    +0.000 A 
ATOM      4  C   UNL     1       5.073   3.875  18.695  0.00  0.00    +0.000 A 
ATOM      5  C   UNL     1       4.120   4.912  18.735  0.00  0.00    +0.000 A 
ATOM      6  C   UNL     1       4.033   6.214  18.181  0.00  0.00    +0.000 A 
ATOM      7 CL   UNL     1       5.219   6.939  17.202  0.00  0.00    +0.000 Cl
ATOM      8  C   UNL     1       2.837   6.756  18.598  0.00  0.00    +0.000 A 
ATOM      9  O   UNL     1       2.160   5.846  19.377  0.00  0.00    +0.000 OA
ATOM     10  C   UNL     1       2.952   4.727  19.474  0.00  0.00    +0.000 A 
ENDROOT
BRANCH   1  12
ATOM     11  O   UNL     1       1.501   2.774  22.092  0.00  0.00    +0.000 OA
ATOM     12  C   UNL     1       1.462   3.323  21.004  0.00  0.00    +0.000 C 
BRANCH  12  13
ATOM     13  O   UNL     1       0.308   3.757  20.453  0.00  0.00    +0.000 OA
ATOM     14  H   UNL     1       0.301   3.773  19.476  0.00  0.00    +0.000 HD
ENDBRANCH  12  13
ENDBRANCH   1  12
BRANCH   8  15
ATOM     15  C   UNL     1       2.205   8.080  18.349  0.00  0.00    +0.000 C 
BRANCH  15  16
ATOM     16  N   UNL     1       1.679   8.604  19.583  0.00  0.00    +0.000 N 
ATOM     17  C   UNL     1       0.862   9.713  19.611  0.00  0.00    +0.000 C 
ATOM     18  O   UNL     1       0.599  10.370  18.611  0.00  0.00    +0.000 OA
ATOM     19  H   UNL     1       1.759   8.063  20.439  0.00  0.00    +0.000 HD
BRANCH  17  20
ATOM     20  C   UNL     1       0.324  10.053  20.914  0.00  0.00    +0.000 A 
ATOM     21  C   UNL     1       0.724   9.517  22.157  0.00  0.00    +0.000 A 
ATOM     22  N   UNL     1       0.055  10.023  23.193  0.00  0.00    +0.000 NA
ATOM     23  N   UNL     1      -0.814  10.895  22.635  0.00  0.00    +0.000 N 
ATOM     24  C   UNL     1      -1.766  11.672  23.286  0.00  0.00    +0.000 A 
ATOM     25  C   UNL     1      -2.572  12.481  22.587  0.00  0.00    +0.000 A 
ATOM     26  C   UNL     1      -2.350  12.477  21.115  0.00  0.00    +0.000 A 
ATOM     27  N   UNL     1      -1.466  11.773  20.468  0.00  0.00    +0.000 NA
ATOM     28  C   UNL     1      -0.679  10.950  21.240  0.00  0.00    +0.000 A 
ENDBRANCH  17  20
ENDBRANCH  15  16
ENDBRANCH   8  15
TORSDOF 5
ENDMDL
MODEL 6
REMARK VINA RESULT:      -8.0      2.811      7.728
REMARK  Name = 
REMARK  5 active torsions:
REMARK  status: ('A' for Active; 'I' for Inactive)
REMARK    1  A    between atoms: C_2  and  O_3
REMARK    2  A    between atoms: C_2  and  C_4
REMARK    3  A    between atoms: C_11  and  C_12
REMARK    4  A    between atoms: C_12  and  N_13
REMARK    5  A    between atoms: C_14  and  C_16
REMARK                            x       y       z     vdW  Elec       q    Type
REMARK                         _______ _______ _______ _____ _____    ______ ____
ROOT
ATOM      1  C   UNL     1       6.504   5.367  18.174  0.00  0.00    +0.000 A 
ATOM      2  C   UNL     1       6.923   4.814  16.948  0.00  0.00    +0.000 A 
ATOM      3  C   UNL     1       6.020   4.222  16.066  0.00  0.00    +0.000 A 
ATOM      4  C   UNL     1       4.658   4.168  16.375  0.00  0.00    +0.000 A 
ATOM      5  C   UNL     1       4.204   4.724  17.587  0.00  0.00    +0.000 A 
ATOM      6  C   UNL     1       2.939   4.875  18.208  0.00  0.00    +0.000 A 
ATOM      7 CL   UNL     1       1.461   4.350  17.550  0.00  0.00    +0.000 Cl
ATOM      8  C   UNL     1       3.146   5.524  19.405  0.00  0.00    +0.000 A 
ATOM      9  O   UNL     1       4.488   5.775  19.573  0.00  0.00    +0.000 OA
ATOM     10  C   UNL     1       5.132   5.300  18.454  0.00  0.00    +0.000 A 
ENDROOT
BRANCH   1  12
ATOM     11  O   UNL     1       8.212   6.919  18.696  0.00  0.00    +0.000 OA
ATOM     12  C   UNL     1       7.521   5.982  19.057  0.00  0.00    +0.000 C 
BRANCH  12  13
ATOM     13  O   UNL     1       7.630   5.432  20.286  0.00  0.00    +0.000 OA
ATOM     14  H   UNL     1       6.885   4.854  20.544  0.00  0.00    +0.000 HD
ENDBRANCH  12  13
ENDBRANCH   1  12
BRANCH   8  15
ATOM     15  C   UNL     1       2.208   5.962  20.474  0.00  0.00    +0.000 C 
BRANCH  15  16
ATOM     16  N   UNL     1       2.030   7.390  20.406  0.00  0.00    +0.000 N 
ATOM     17  C   UNL     1       0.916   8.009  20.928  0.00  0.00    +0.000 C 
ATOM     18  O   UNL     1      -0.027   7.388  21.404  0.00  0.00    +0.000 OA
ATOM     19  H   UNL     1       2.806   7.985  20.127  0.00  0.00    +0.000 HD
BRANCH  17  20
ATOM     20  C   UNL     1       0.933   9.459  20.881  0.00  0.00    +0.000 A 
ATOM     21  C   UNL     1       0.501  10.339  21.896  0.00  0.00    +0.000 A 
ATOM     22  N   UNL     1       0.641  11.626  21.576  0.00  0.00    +0.000 NA
ATOM     23  N   UNL     1       1.156  11.605  20.326  0.00  0.00    +0.000 N 
ATOM     24  C   UNL     1       1.466  12.696  19.522  0.00  0.00    +0.000 A 
ATOM     25  C   UNL     1       1.957  12.511  18.290  0.00  0.00    +0.000 A 
ATOM     26  C   UNL     1       2.142  11.089  17.890  0.00  0.00    +0.000 A 
ATOM     27  N   UNL     1       1.874  10.040  18.614  0.00  0.00    +0.000 NA
ATOM     28  C   UNL     1       1.357  10.296  19.864  0.00  0.00    +0.000 A 
ENDBRANCH  17  20
ENDBRANCH  15  16
ENDBRANCH   8  15
TORSDOF 5
ENDMDL
MODEL 7
REMARK VINA RESULT:      -7.9      3.146      8.011
REMARK  Name = 
REMARK  5 active torsions:
REMARK  status: ('A' for Active; 'I' for Inactive)
REMARK    1  A    between atoms: C_2  and  O_3
REMARK    2  A    between atoms: C_2  and  C_4
REMARK    3  A    between atoms: C_11  and  C_12
REMARK    4  A    between atoms: C_12  and  N_13
REMARK    5  A    between atoms: C_14  and  C_16
REMARK                            x       y       z     vdW  Elec       q    Type
REMARK                         _______ _______ _______ _____ _____    ______ ____
ROOT
ATOM      1  C   UNL     1       6.905   5.887  17.127  0.00  0.00    +0.000 A 
ATOM      2  C   UNL     1       7.373   5.343  15.914  0.00  0.00    +0.000 A 
ATOM      3  C   UNL     1       6.694   4.311  15.266  0.00  0.00    +0.000 A 
ATOM      4  C   UNL     1       5.515   3.790  15.803  0.00  0.00    +0.000 A 
ATOM      5  C   UNL     1       5.012   4.322  17.007  0.00  0.00    +0.000 A 
ATOM      6  C   UNL     1       3.872   4.075  17.813  0.00  0.00    +0.000 A 
ATOM      7 CL   UNL     1       2.670   2.922  17.474  0.00  0.00    +0.000 Cl
ATOM      8  C   UNL     1       3.931   4.943  18.881  0.00  0.00    +0.000 A 
ATOM      9  O   UNL     1       5.067   5.714  18.792  0.00  0.00    +0.000 OA
ATOM     10  C   UNL     1       5.718   5.346  17.639  0.00  0.00    +0.000 A 
ENDROOT
BRANCH   1  12
ATOM     11  O   UNL     1       7.853   8.054  17.199  0.00  0.00    +0.000 OA
ATOM     12  C   UNL     1       7.678   6.983  17.754  0.00  0.00    +0.000 C 
BRANCH  12  13
ATOM     13  O   UNL     1       8.176   6.712  18.980  0.00  0.00    +0.000 OA
ATOM     14  H   UNL     1       7.889   7.326  19.684  0.00  0.00    +0.000 HD
ENDBRANCH  12  13
ENDBRANCH   1  12
BRANCH   8  15
ATOM     15  C   UNL     1       3.021   5.158  20.039  0.00  0.00    +0.000 C 
BRANCH  15  16
ATOM     16  N   UNL     1       2.627   6.542  20.094  0.00  0.00    +0.000 N 
ATOM     17  C   UNL     1       2.092   7.189  19.002  0.00  0.00    +0.000 C 
ATOM     18  O   UNL     1       1.994   6.663  17.900  0.00  0.00    +0.000 OA
ATOM     19  H   UNL     1       2.574   7.019  20.990  0.00  0.00    +0.000 HD
BRANCH  17  20
ATOM     20  C   UNL     1       1.643   8.547  19.245  0.00  0.00    +0.000 A 
ATOM     21  C   UNL     1       1.779   9.647  18.372  0.00  0.00    +0.000 A 
ATOM     22  N   UNL     1       1.266  10.777  18.859  0.00  0.00    +0.000 NA
ATOM     23  N   UNL     1       0.798  10.431  20.080  0.00  0.00    +0.000 N 
ATOM     24  C   UNL     1       0.186  11.259  21.015  0.00  0.00    +0.000 A 
ATOM     25  C   UNL     1      -0.210  10.769  22.196  0.00  0.00    +0.000 A 
ATOM     26  C   UNL     1       0.044   9.315  22.395  0.00  0.00    +0.000 A 
ATOM     27  N   UNL     1       0.603   8.504  21.542  0.00  0.00    +0.000 NA
ATOM     28  C   UNL     1       1.002   9.072  20.354  0.00  0.00    +0.000 A 
ENDBRANCH  17  20
ENDBRANCH  15  16
ENDBRANCH   8  15
TORSDOF 5
ENDMDL
MODEL 8
REMARK VINA RESULT:      -7.9      2.954      8.353
REMARK  Name = 
REMARK  5 active torsions:
REMARK  status: ('A' for Active; 'I' for Inactive)
REMARK    1  A    between atoms: C_2  and  O_3
REMARK    2  A    between atoms: C_2  and  C_4
REMARK    3  A    between atoms: C_11  and  C_12
REMARK    4  A    between atoms: C_12  and  N_13
REMARK    5  A    between atoms: C_14  and  C_16
REMARK                            x       y       z     vdW  Elec       q    Type
REMARK                         _______ _______ _______ _____ _____    ______ ____
ROOT
ATOM      1  C   UNL     1       6.573   5.335  18.217  0.00  0.00    +0.000 A 
ATOM      2  C   UNL     1       6.995   4.734  17.014  0.00  0.00    +0.000 A 
ATOM      3  C   UNL     1       6.093   4.112  16.151  0.00  0.00    +0.000 A 
ATOM      4  C   UNL     1       4.730   4.075  16.456  0.00  0.00    +0.000 A 
ATOM      5  C   UNL     1       4.273   4.678  17.645  0.00  0.00    +0.000 A 
ATOM      6  C   UNL     1       3.006   4.857  18.254  0.00  0.00    +0.000 A 
ATOM      7 CL   UNL     1       1.529   4.313  17.611  0.00  0.00    +0.000 Cl
ATOM      8  C   UNL     1       3.211   5.550  19.427  0.00  0.00    +0.000 A 
ATOM      9  O   UNL     1       4.554   5.802  19.591  0.00  0.00    +0.000 OA
ATOM     10  C   UNL     1       5.200   5.284  18.493  0.00  0.00    +0.000 A 
ENDROOT
BRANCH   1  12
ATOM     11  O   UNL     1       8.254   6.928  18.701  0.00  0.00    +0.000 OA
ATOM     12  C   UNL     1       7.589   5.979  19.079  0.00  0.00    +0.000 C 
BRANCH  12  13
ATOM     13  O   UNL     1       7.727   5.442  20.311  0.00  0.00    +0.000 OA
ATOM     14  H   UNL     1       8.134   4.554  20.328  0.00  0.00    +0.000 HD
ENDBRANCH  12  13
ENDBRANCH   1  12
BRANCH   8  15
ATOM     15  C   UNL     1       2.270   6.032  20.475  0.00  0.00    +0.000 C 
BRANCH  15  16
ATOM     16  N   UNL     1       1.578   7.203  20.002  0.00  0.00    +0.000 N 
ATOM     17  C   UNL     1       1.390   8.308  20.802  0.00  0.00    +0.000 C 
ATOM     18  O   UNL     1       1.721   8.339  21.981  0.00  0.00    +0.000 OA
ATOM     19  H   UNL     1       1.367   7.303  19.012  0.00  0.00    +0.000 HD
BRANCH  17  20
ATOM     20  C   UNL     1       0.773   9.447  20.150  0.00  0.00    +0.000 A 
ATOM     21  C   UNL     1       0.920   9.825  18.798  0.00  0.00    +0.000 A 
ATOM     22  N   UNL     1       0.228  10.918  18.475  0.00  0.00    +0.000 NA
ATOM     23  N   UNL     1      -0.375  11.284  19.629  0.00  0.00    +0.000 N 
ATOM     24  C   UNL     1      -1.198  12.385  19.838  0.00  0.00    +0.000 A 
ATOM     25  C   UNL     1      -1.709  12.626  21.052  0.00  0.00    +0.000 A 
ATOM     26  C   UNL     1      -1.339  11.638  22.102  0.00  0.00    +0.000 A 
ATOM     27  N   UNL     1      -0.580  10.590  21.945  0.00  0.00    +0.000 NA
ATOM     28  C   UNL     1      -0.073  10.406  20.679  0.00  0.00    +0.000 A 
ENDBRANCH  17  20
ENDBRANCH  15  16
ENDBRANCH   8  15
TORSDOF 5
ENDMDL
MODEL 9
REMARK VINA RESULT:      -7.9      2.871      7.740
REMARK  Name = 
REMARK  5 active torsions:
REMARK  status: ('A' for Active; 'I' for Inactive)
REMARK    1  A    between atoms: C_2  and  O_3
REMARK    2  A    between atoms: C_2  and  C_4
REMARK    3  A    between atoms: C_11  and  C_12
REMARK    4  A    between atoms: C_12  and  N_13
REMARK    5  A    between atoms: C_14  and  C_16
REMARK                            x       y       z     vdW  Elec       q    Type
REMARK                         _______ _______ _______ _____ _____    ______ ____
ROOT
ATOM      1  C   UNL     1       6.914   5.996  17.012  0.00  0.00    +0.000 A 
ATOM      2  C   UNL     1       7.369   5.512  15.769  0.00  0.00    +0.000 A 
ATOM      3  C   UNL     1       6.709   4.482  15.100  0.00  0.00    +0.000 A 
ATOM      4  C   UNL     1       5.562   3.901  15.646  0.00  0.00    +0.000 A 
ATOM      5  C   UNL     1       5.073   4.371  16.881  0.00  0.00    +0.000 A 
ATOM      6  C   UNL     1       3.962   4.056  17.704  0.00  0.00    +0.000 A 
ATOM      7 CL   UNL     1       2.792   2.874  17.351  0.00  0.00    +0.000 Cl
ATOM      8  C   UNL     1       4.020   4.886  18.802  0.00  0.00    +0.000 A 
ATOM      9  O   UNL     1       5.126   5.699  18.715  0.00  0.00    +0.000 OA
ATOM     10  C   UNL     1       5.760   5.395  17.533  0.00  0.00    +0.000 A 
ENDROOT
BRANCH   1  12
ATOM     11  O   UNL     1       7.834   8.173  17.120  0.00  0.00    +0.000 OA
ATOM     12  C   UNL     1       7.665   7.094  17.661  0.00  0.00    +0.000 C 
BRANCH  12  13
ATOM     13  O   UNL     1       8.151   6.816  18.890  0.00  0.00    +0.000 OA
ATOM     14  H   UNL     1       8.205   5.865  19.105  0.00  0.00    +0.000 HD
ENDBRANCH  12  13
ENDBRANCH   1  12
BRANCH   8  15
ATOM     15  C   UNL     1       3.133   5.026  19.989  0.00  0.00    +0.000 C 
BRANCH  15  16
ATOM     16  N   UNL     1       2.729   6.401  20.131  0.00  0.00    +0.000 N 
ATOM     17  C   UNL     1       1.526   6.750  20.703  0.00  0.00    +0.000 C 
ATOM     18  O   UNL     1       0.691   5.923  21.049  0.00  0.00    +0.000 OA
ATOM     19  H   UNL     1       3.401   7.147  19.969  0.00  0.00    +0.000 HD
BRANCH  17  20
ATOM     20  C   UNL     1       1.311   8.174  20.875  0.00  0.00    +0.000 A 
ATOM     21  C   UNL     1       0.935   8.831  22.066  0.00  0.00    +0.000 A 
ATOM     22  N   UNL     1       0.815  10.151  21.928  0.00  0.00    +0.000 NA
ATOM     23  N   UNL     1       1.096  10.377  20.625  0.00  0.00    +0.000 N 
ATOM     24  C   UNL     1       1.087  11.598  19.959  0.00  0.00    +0.000 A 
ATOM     25  C   UNL     1       1.374  11.657  18.653  0.00  0.00    +0.000 A 
ATOM     26  C   UNL     1       1.703  10.352  18.017  0.00  0.00    +0.000 A 
ATOM     27  N   UNL     1       1.732   9.190  18.606  0.00  0.00    +0.000 NA
ATOM     28  C   UNL     1       1.413   9.193  19.944  0.00  0.00    +0.000 A 
ENDBRANCH  17  20
ENDBRANCH  15  16
ENDBRANCH   8  15
TORSDOF 5
ENDMDL
