MODEL 1
REMARK VINA RESULT:      -7.0      0.000      0.000
REMARK  Name = 
REMARK  5 active torsions:
REMARK  status: ('A' for Active; 'I' for Inactive)
REMARK    1  A    between atoms: C_2  and  C_3
REMARK    2  A    between atoms: C_6  and  C_7
REMARK    3  A    between atoms: C_10  and  O_11
REMARK    4  A    between atoms: O_11  and  C_12
REMARK    5  A    between atoms: C_12  and  C_13
REMARK                            x       y       z     vdW  Elec       q    Type
REMARK                         _______ _______ _______ _____ _____    ______ ____
ROOT
ATOM      1  C   UNL     1       3.014   6.734  18.099  0.00  0.00    +0.000 A 
ATOM      2  C   UNL     1       4.190   7.048  17.396  0.00  0.00    +0.000 A 
ATOM      3  C   UNL     1       4.933   6.063  16.734  0.00  0.00    +0.000 A 
ATOM      4  C   UNL     1       4.551   4.726  16.797  0.00  0.00    +0.000 A 
ATOM      5  C   UNL     1       3.399   4.386  17.500  0.00  0.00    +0.000 A 
ATOM      6  C   UNL     1       2.642   5.378  18.138  0.00  0.00    +0.000 A 
ENDROOT
BRANCH   1  10
ATOM      7  C   UNL     1       0.696   9.862  19.968  0.00  0.00    +0.000 A 
ATOM      8  C   UNL     1       1.123   8.763  20.711  0.00  0.00    +0.000 A 
ATOM      9  C   UNL     1       1.853   7.741  20.095  0.00  0.00    +0.000 A 
ATOM     10  C   UNL     1       2.170   7.782  18.723  0.00  0.00    +0.000 A 
ATOM     11  C   UNL     1       1.695   8.887  17.990  0.00  0.00    +0.000 A 
ATOM     12  C   UNL     1       0.976   9.920  18.604  0.00  0.00    +0.000 A 
BRANCH   7  14
ATOM     13  N   UNL     1      -0.573  11.804  21.123  0.00  0.00    +0.000 NA
ATOM     14  C   UNL     1      -0.010  10.934  20.607  0.00  0.00    +0.000 C 
ENDBRANCH   7  14
ENDBRANCH   1  10
BRANCH   4  15
ATOM     15  O   UNL     1       5.338   3.851  16.101  0.00  0.00    +0.000 OA
BRANCH  15  16
ATOM     16  C   UNL     1       6.678   4.286  15.876  0.00  0.00    +0.000 C 
BRANCH  16  17
ATOM     17  C   UNL     1       6.961   4.504  14.390  0.00  0.00    +0.000 C 
ATOM     18  N   UNL     1       6.369   3.630  13.527  0.00  0.00    +0.000 N 
ATOM     19  O   UNL     1       7.689   5.402  13.977  0.00  0.00    +0.000 OA
ATOM     20  H   UNL     1       5.795   2.871  13.872  0.00  0.00    +0.000 HD
ATOM     21  H   UNL     1       6.549   3.723  12.538  0.00  0.00    +0.000 HD
ENDBRANCH  16  17
ENDBRANCH  15  16
ENDBRANCH   4  15
TORSDOF 5
ENDMDL
MODEL 2
REMARK VINA RESULT:      -7.0      0.290      1.138
REMARK  Name = 
REMARK  5 active torsions:
REMARK  status: ('A' for Active; 'I' for Inactive)
REMARK    1  A    between atoms: C_2  and  C_3
REMARK    2  A    between atoms: C_6  and  C_7
REMARK    3  A    between atoms: C_10  and  O_11
REMARK    4  A    between atoms: O_11  and  C_12
REMARK    5  A    between atoms: C_12  and  C_13
REMARK                            x       y       z     vdW  Elec       q    Type
REMARK                         _______ _______ _______ _____ _____    ______ ____
ROOT
ATOM      1  C   UNL     1       3.057   6.760  18.108  0.00  0.00    +0.000 A 
ATOM      2  C   UNL     1       4.337   7.009  17.583  0.00  0.00    +0.000 A 
ATOM      3  C   UNL     1       5.087   5.998  16.970  0.00  0.00    +0.000 A 
ATOM      4  C   UNL     1       4.601   4.695  16.908  0.00  0.00    +0.000 A 
ATOM      5  C   UNL     1       3.343   4.417  17.434  0.00  0.00    +0.000 A 
ATOM      6  C   UNL     1       2.583   5.438  18.021  0.00  0.00    +0.000 A 
ENDROOT
BRANCH   1  10
ATOM      7  C   UNL     1       0.472   9.825  19.711  0.00  0.00    +0.000 A 
ATOM      8  C   UNL     1       0.806   9.823  18.358  0.00  0.00    +0.000 A 
ATOM      9  C   UNL     1       1.664   8.841  17.849  0.00  0.00    +0.000 A 
ATOM     10  C   UNL     1       2.216   7.843  18.674  0.00  0.00    +0.000 A 
ATOM     11  C   UNL     1       1.889   7.890  20.043  0.00  0.00    +0.000 A 
ATOM     12  C   UNL     1       1.021   8.862  20.556  0.00  0.00    +0.000 A 
BRANCH   7  14
ATOM     13  N   UNL     1      -1.181  11.588  20.648  0.00  0.00    +0.000 NA
ATOM     14  C   UNL     1      -0.445  10.800  20.225  0.00  0.00    +0.000 C 
ENDBRANCH   7  14
ENDBRANCH   1  10
BRANCH   4  15
ATOM     15  O   UNL     1       5.407   3.792  16.273  0.00  0.00    +0.000 OA
BRANCH  15  16
ATOM     16  C   UNL     1       6.727   4.252  15.984  0.00  0.00    +0.000 C 
BRANCH  16  17
ATOM     17  C   UNL     1       6.933   4.481  14.487  0.00  0.00    +0.000 C 
ATOM     18  N   UNL     1       6.289   3.619  13.650  0.00  0.00    +0.000 N 
ATOM     19  O   UNL     1       7.645   5.376  14.043  0.00  0.00    +0.000 OA
ATOM     20  H   UNL     1       5.728   2.861  14.018  0.00  0.00    +0.000 HD
ATOM     21  H   UNL     1       6.417   3.719  12.653  0.00  0.00    +0.000 HD
ENDBRANCH  16  17
ENDBRANCH  15  16
ENDBRANCH   4  15
TORSDOF 5
ENDMDL
MODEL 3
REMARK VINA RESULT:      -7.0      0.258      1.579
REMARK  Name = 
REMARK  5 active torsions:
REMARK  status: ('A' for Active; 'I' for Inactive)
REMARK    1  A    between atoms: C_2  and  C_3
REMARK    2  A    between atoms: C_6  and  C_7
REMARK    3  A    between atoms: C_10  and  O_11
REMARK    4  A    between atoms: O_11  and  C_12
REMARK    5  A    between atoms: C_12  and  C_13
REMARK                            x       y       z     vdW  Elec       q    Type
REMARK                         _______ _______ _______ _____ _____    ______ ____
ROOT
ATOM      1  C   UNL     1       2.947   6.903  18.074  0.00  0.00    +0.000 A 
ATOM      2  C   UNL     1       2.606   5.539  18.112  0.00  0.00    +0.000 A 
ATOM      3  C   UNL     1       3.422   4.564  17.525  0.00  0.00    +0.000 A 
ATOM      4  C   UNL     1       4.577   4.927  16.838  0.00  0.00    +0.000 A 
ATOM      5  C   UNL     1       4.929   6.272  16.772  0.00  0.00    +0.000 A 
ATOM      6  C   UNL     1       4.125   7.242  17.385  0.00  0.00    +0.000 A 
ENDROOT
BRANCH   1  10
ATOM      7  C   UNL     1       0.459   9.821  20.059  0.00  0.00    +0.000 A 
ATOM      8  C   UNL     1       0.771   9.965  18.708  0.00  0.00    +0.000 A 
ATOM      9  C   UNL     1       1.598   9.029  18.077  0.00  0.00    +0.000 A 
ATOM     10  C   UNL     1       2.140   7.932  18.773  0.00  0.00    +0.000 A 
ATOM     11  C   UNL     1       1.836   7.832  20.144  0.00  0.00    +0.000 A 
ATOM     12  C   UNL     1       0.998   8.757  20.780  0.00  0.00    +0.000 A 
BRANCH   7  14
ATOM     13  N   UNL     1      -1.136  11.507  21.213  0.00  0.00    +0.000 NA
ATOM     14  C   UNL     1      -0.427  10.751  20.697  0.00  0.00    +0.000 C 
ENDBRANCH   7  14
ENDBRANCH   1  10
BRANCH   4  15
ATOM     15  O   UNL     1       5.307   3.894  16.319  0.00  0.00    +0.000 OA
BRANCH  15  16
ATOM     16  C   UNL     1       6.677   4.192  16.053  0.00  0.00    +0.000 C 
BRANCH  16  17
ATOM     17  C   UNL     1       6.919   4.465  14.568  0.00  0.00    +0.000 C 
ATOM     18  N   UNL     1       6.320   3.611  13.691  0.00  0.00    +0.000 N 
ATOM     19  O   UNL     1       7.622   5.388  14.169  0.00  0.00    +0.000 OA
ATOM     20  H   UNL     1       5.766   2.831  14.023  0.00  0.00    +0.000 HD
ATOM     21  H   UNL     1       6.473   3.740  12.701  0.00  0.00    +0.000 HD
ENDBRANCH  16  17
ENDBRANCH  15  16
ENDBRANCH   4  15
TORSDOF 5
ENDMDL
MODEL 4
REMARK VINA RESULT:      -6.9      0.794      1.373
REMARK  Name = 
REMARK  5 active torsions:
REMARK  status: ('A' for Active; 'I' for Inactive)
REMARK    1  A    between atoms: C_2  and  C_3
REMARK    2  A    between atoms: C_6  and  C_7
REMARK    3  A    between atoms: C_10  and  O_11
REMARK    4  A    between atoms: O_11  and  C_12
REMARK    5  A    between atoms: C_12  and  C_13
REMARK                            x       y       z     vdW  Elec       q    Type
REMARK                         _______ _______ _______ _____ _____    ______ ____
ROOT
ATOM      1  C   UNL     1       2.670   6.928  18.531  0.00  0.00    +0.000 A 
ATOM      2  C   UNL     1       2.466   5.539  18.603  0.00  0.00    +0.000 A 
ATOM      3  C   UNL     1       3.241   4.646  17.853  0.00  0.00    +0.000 A 
ATOM      4  C   UNL     1       4.210   5.116  16.971  0.00  0.00    +0.000 A 
ATOM      5  C   UNL     1       4.421   6.488  16.869  0.00  0.00    +0.000 A 
ATOM      6  C   UNL     1       3.663   7.378  17.642  0.00  0.00    +0.000 A 
ENDROOT
BRANCH   1  10
ATOM      7  C   UNL     1       0.633   9.741  21.098  0.00  0.00    +0.000 A 
ATOM      8  C   UNL     1       0.978   8.477  21.573  0.00  0.00    +0.000 A 
ATOM      9  C   UNL     1       1.616   7.561  20.729  0.00  0.00    +0.000 A 
ATOM     10  C   UNL     1       1.920   7.876  19.391  0.00  0.00    +0.000 A 
ATOM     11  C   UNL     1       1.529   9.147  18.928  0.00  0.00    +0.000 A 
ATOM     12  C   UNL     1       0.902  10.074  19.771  0.00  0.00    +0.000 A 
BRANCH   7  14
ATOM     13  N   UNL     1      -0.474  11.474  22.675  0.00  0.00    +0.000 NA
ATOM     14  C   UNL     1       0.024  10.699  21.974  0.00  0.00    +0.000 C 
ENDBRANCH   7  14
ENDBRANCH   1  10
BRANCH   4  15
ATOM     15  O   UNL     1       4.919   4.157  16.303  0.00  0.00    +0.000 OA
BRANCH  15  16
ATOM     16  C   UNL     1       6.330   4.364  16.261  0.00  0.00    +0.000 C 
BRANCH  16  17
ATOM     17  C   UNL     1       6.840   4.512  14.828  0.00  0.00    +0.000 C 
ATOM     18  N   UNL     1       6.324   3.646  13.910  0.00  0.00    +0.000 N 
ATOM     19  O   UNL     1       7.677   5.349  14.504  0.00  0.00    +0.000 OA
ATOM     20  H   UNL     1       5.658   2.935  14.186  0.00  0.00    +0.000 HD
ATOM     21  H   UNL     1       6.652   3.693  12.956  0.00  0.00    +0.000 HD
ENDBRANCH  16  17
ENDBRANCH  15  16
ENDBRANCH   4  15
TORSDOF 5
ENDMDL
MODEL 5
REMARK VINA RESULT:      -6.9      1.644      2.335
REMARK  Name = 
REMARK  5 active torsions:
REMARK  status: ('A' for Active; 'I' for Inactive)
REMARK    1  A    between atoms: C_2  and  C_3
REMARK    2  A    between atoms: C_6  and  C_7
REMARK    3  A    between atoms: C_10  and  O_11
REMARK    4  A    between atoms: O_11  and  C_12
REMARK    5  A    between atoms: C_12  and  C_13
REMARK                            x       y       z     vdW  Elec       q    Type
REMARK                         _______ _______ _______ _____ _____    ______ ____
ROOT
ATOM      1  C   UNL     1       3.781   5.804  17.466  0.00  0.00    +0.000 A 
ATOM      2  C   UNL     1       3.773   4.400  17.385  0.00  0.00    +0.000 A 
ATOM      3  C   UNL     1       4.625   3.712  16.512  0.00  0.00    +0.000 A 
ATOM      4  C   UNL     1       5.474   4.408  15.657  0.00  0.00    +0.000 A 
ATOM      5  C   UNL     1       5.491   5.799  15.706  0.00  0.00    +0.000 A 
ATOM      6  C   UNL     1       4.658   6.483  16.601  0.00  0.00    +0.000 A 
ENDROOT
BRANCH   1  10
ATOM      7  C   UNL     1       1.511   7.984  20.423  0.00  0.00    +0.000 A 
ATOM      8  C   UNL     1       1.887   6.663  20.658  0.00  0.00    +0.000 A 
ATOM      9  C   UNL     1       2.602   5.953  19.687  0.00  0.00    +0.000 A 
ATOM     10  C   UNL     1       2.953   6.537  18.454  0.00  0.00    +0.000 A 
ATOM     11  C   UNL     1       2.529   7.861  18.230  0.00  0.00    +0.000 A 
ATOM     12  C   UNL     1       1.826   8.581  19.204  0.00  0.00    +0.000 A 
BRANCH   7  14
ATOM     13  N   UNL     1       0.271   9.328  22.260  0.00  0.00    +0.000 NA
ATOM     14  C   UNL     1       0.821   8.728  21.436  0.00  0.00    +0.000 C 
ENDBRANCH   7  14
ENDBRANCH   1  10
BRANCH   4  15
ATOM     15  O   UNL     1       6.273   3.637  14.859  0.00  0.00    +0.000 OA
BRANCH  15  16
ATOM     16  C   UNL     1       6.518   4.162  13.555  0.00  0.00    +0.000 C 
BRANCH  16  17
ATOM     17  C   UNL     1       5.852   3.316  12.469  0.00  0.00    +0.000 C 
ATOM     18  N   UNL     1       6.631   2.363  11.883  0.00  0.00    +0.000 N 
ATOM     19  O   UNL     1       4.687   3.479  12.121  0.00  0.00    +0.000 OA
ATOM     20  H   UNL     1       7.602   2.252  12.150  0.00  0.00    +0.000 HD
ATOM     21  H   UNL     1       6.239   1.798  11.144  0.00  0.00    +0.000 HD
ENDBRANCH  16  17
ENDBRANCH  15  16
ENDBRANCH   4  15
TORSDOF 5
ENDMDL
MODEL 6
REMARK VINA RESULT:      -6.9      1.677      2.610
REMARK  Name = 
REMARK  5 active torsions:
REMARK  status: ('A' for Active; 'I' for Inactive)
REMARK    1  A    between atoms: C_2  and  C_3
REMARK    2  A    between atoms: C_6  and  C_7
REMARK    3  A    between atoms: C_10  and  O_11
REMARK    4  A    between atoms: O_11  and  C_12
REMARK    5  A    between atoms: C_12  and  C_13
REMARK                            x       y       z     vdW  Elec       q    Type
REMARK                         _______ _______ _______ _____ _____    ______ ____
ROOT
ATOM      1  C   UNL     1       3.986   5.934  17.227  0.00  0.00    +0.000 A 
ATOM      2  C   UNL     1       4.004   4.528  17.240  0.00  0.00    +0.000 A 
ATOM      3  C   UNL     1       4.819   3.798  16.366  0.00  0.00    +0.000 A 
ATOM      4  C   UNL     1       5.604   4.450  15.419  0.00  0.00    +0.000 A 
ATOM      5  C   UNL     1       5.593   5.841  15.374  0.00  0.00    +0.000 A 
ATOM      6  C   UNL     1       4.797   6.569  16.269  0.00  0.00    +0.000 A 
ENDROOT
BRANCH   1  10
ATOM      7  C   UNL     1       1.552   8.163  20.012  0.00  0.00    +0.000 A 
ATOM      8  C   UNL     1       1.913   8.723  18.788  0.00  0.00    +0.000 A 
ATOM      9  C   UNL     1       2.722   8.006  17.900  0.00  0.00    +0.000 A 
ATOM     10  C   UNL     1       3.198   6.717  18.210  0.00  0.00    +0.000 A 
ATOM     11  C   UNL     1       2.846   6.191  19.467  0.00  0.00    +0.000 A 
ATOM     12  C   UNL     1       2.026   6.898  20.355  0.00  0.00    +0.000 A 
BRANCH   7  14
ATOM     13  N   UNL     1      -0.019   9.458  21.616  0.00  0.00    +0.000 NA
ATOM     14  C   UNL     1       0.684   8.876  20.903  0.00  0.00    +0.000 C 
ENDBRANCH   7  14
ENDBRANCH   1  10
BRANCH   4  15
ATOM     15  O   UNL     1       6.373   3.641  14.630  0.00  0.00    +0.000 OA
BRANCH  15  16
ATOM     16  C   UNL     1       6.524   4.076  13.279  0.00  0.00    +0.000 C 
BRANCH  16  17
ATOM     17  C   UNL     1       5.740   3.193  12.308  0.00  0.00    +0.000 C 
ATOM     18  N   UNL     1       6.384   2.086  11.842  0.00  0.00    +0.000 N 
ATOM     19  O   UNL     1       4.597   3.456  11.945  0.00  0.00    +0.000 OA
ATOM     20  H   UNL     1       7.338   1.887  12.118  0.00  0.00    +0.000 HD
ATOM     21  H   UNL     1       5.911   1.488  11.180  0.00  0.00    +0.000 HD
ENDBRANCH  16  17
ENDBRANCH  15  16
ENDBRANCH   4  15
TORSDOF 5
ENDMDL
MODEL 7
REMARK VINA RESULT:      -6.9      1.039      1.612
REMARK  Name = 
REMARK  5 active torsions:
REMARK  status: ('A' for Active; 'I' for Inactive)
REMARK    1  A    between atoms: C_2  and  C_3
REMARK    2  A    between atoms: C_6  and  C_7
REMARK    3  A    between atoms: C_10  and  O_11
REMARK    4  A    between atoms: O_11  and  C_12
REMARK    5  A    between atoms: C_12  and  C_13
REMARK                            x       y       z     vdW  Elec       q    Type
REMARK                         _______ _______ _______ _____ _____    ______ ____
ROOT
ATOM      1  C   UNL     1       3.656   6.349  17.560  0.00  0.00    +0.000 A 
ATOM      2  C   UNL     1       4.629   6.789  16.645  0.00  0.00    +0.000 A 
ATOM      3  C   UNL     1       5.341   5.888  15.845  0.00  0.00    +0.000 A 
ATOM      4  C   UNL     1       5.139   4.517  15.969  0.00  0.00    +0.000 A 
ATOM      5  C   UNL     1       4.193   4.054  16.879  0.00  0.00    +0.000 A 
ATOM      6  C   UNL     1       3.461   4.960  17.658  0.00  0.00    +0.000 A 
ENDROOT
BRANCH   1  10
ATOM      7  C   UNL     1       1.111   9.047  19.773  0.00  0.00    +0.000 A 
ATOM      8  C   UNL     1       1.504   9.357  18.472  0.00  0.00    +0.000 A 
ATOM      9  C   UNL     1       2.348   8.491  17.769  0.00  0.00    +0.000 A 
ATOM     10  C   UNL     1       2.829   7.299  18.344  0.00  0.00    +0.000 A 
ATOM     11  C   UNL     1       2.444   7.029  19.671  0.00  0.00    +0.000 A 
ATOM     12  C   UNL     1       1.589   7.884  20.376  0.00  0.00    +0.000 A 
BRANCH   7  14
ATOM     13  N   UNL     1      -0.526  10.597  21.051  0.00  0.00    +0.000 NA
ATOM     14  C   UNL     1       0.207   9.908  20.478  0.00  0.00    +0.000 C 
ENDBRANCH   7  14
ENDBRANCH   1  10
BRANCH   4  15
ATOM     15  O   UNL     1       5.875   3.730  15.128  0.00  0.00    +0.000 OA
BRANCH  15  16
ATOM     16  C   UNL     1       6.816   4.428  14.312  0.00  0.00    +0.000 C 
BRANCH  16  17
ATOM     17  C   UNL     1       6.764   3.959  12.858  0.00  0.00    +0.000 C 
ATOM     18  N   UNL     1       6.002   2.857  12.605  0.00  0.00    +0.000 N 
ATOM     19  O   UNL     1       7.377   4.521  11.956  0.00  0.00    +0.000 OA
ATOM     20  H   UNL     1       5.523   2.375  13.356  0.00  0.00    +0.000 HD
ATOM     21  H   UNL     1       5.959   2.498  11.662  0.00  0.00    +0.000 HD
ENDBRANCH  16  17
ENDBRANCH  15  16
ENDBRANCH   4  15
TORSDOF 5
ENDMDL
MODEL 8
REMARK VINA RESULT:      -6.8      1.234      1.356
REMARK  Name = 
REMARK  5 active torsions:
REMARK  status: ('A' for Active; 'I' for Inactive)
REMARK    1  A    between atoms: C_2  and  C_3
REMARK    2  A    between atoms: C_6  and  C_7
REMARK    3  A    between atoms: C_10  and  O_11
REMARK    4  A    between atoms: O_11  and  C_12
REMARK    5  A    between atoms: C_12  and  C_13
REMARK                            x       y       z     vdW  Elec       q    Type
REMARK                         _______ _______ _______ _____ _____    ______ ____
ROOT
ATOM      1  C   UNL     1       3.606   6.222  17.652  0.00  0.00    +0.000 A 
ATOM      2  C   UNL     1       4.605   6.668  16.769  0.00  0.00    +0.000 A 
ATOM      3  C   UNL     1       5.363   5.770  16.007  0.00  0.00    +0.000 A 
ATOM      4  C   UNL     1       5.179   4.397  16.141  0.00  0.00    +0.000 A 
ATOM      5  C   UNL     1       4.207   3.928  17.019  0.00  0.00    +0.000 A 
ATOM      6  C   UNL     1       3.431   4.830  17.759  0.00  0.00    +0.000 A 
ENDROOT
BRANCH   1  10
ATOM      7  C   UNL     1       1.206   9.041  19.875  0.00  0.00    +0.000 A 
ATOM      8  C   UNL     1       1.609   7.843  20.462  0.00  0.00    +0.000 A 
ATOM      9  C   UNL     1       2.365   6.922  19.729  0.00  0.00    +0.000 A 
ATOM     10  C   UNL     1       2.734   7.166  18.392  0.00  0.00    +0.000 A 
ATOM     11  C   UNL     1       2.284   8.369  17.814  0.00  0.00    +0.000 A 
ATOM     12  C   UNL     1       1.537   9.301  18.546  0.00  0.00    +0.000 A 
BRANCH   7  14
ATOM     13  N   UNL     1      -0.123  10.791  21.249  0.00  0.00    +0.000 NA
ATOM     14  C   UNL     1       0.472  10.007  20.639  0.00  0.00    +0.000 C 
ENDBRANCH   7  14
ENDBRANCH   1  10
BRANCH   4  15
ATOM     15  O   UNL     1       5.960   3.614  15.337  0.00  0.00    +0.000 OA
BRANCH  15  16
ATOM     16  C   UNL     1       6.675   4.311  14.318  0.00  0.00    +0.000 C 
BRANCH  16  17
ATOM     17  C   UNL     1       6.250   3.864  12.920  0.00  0.00    +0.000 C 
ATOM     18  N   UNL     1       7.199   3.944  11.945  0.00  0.00    +0.000 N 
ATOM     19  O   UNL     1       5.117   3.467  12.665  0.00  0.00    +0.000 OA
ATOM     20  H   UNL     1       8.124   4.302  12.150  0.00  0.00    +0.000 HD
ATOM     21  H   UNL     1       6.954   3.681  11.001  0.00  0.00    +0.000 HD
ENDBRANCH  16  17
ENDBRANCH  15  16
ENDBRANCH   4  15
TORSDOF 5
ENDMDL
MODEL 9
REMARK VINA RESULT:      -6.8      1.058      1.073
REMARK  Name = 
REMARK  5 active torsions:
REMARK  status: ('A' for Active; 'I' for Inactive)
REMARK    1  A    between atoms: C_2  and  C_3
REMARK    2  A    between atoms: C_6  and  C_7
REMARK    3  A    between atoms: C_10  and  O_11
REMARK    4  A    between atoms: O_11  and  C_12
REMARK    5  A    between atoms: C_12  and  C_13
REMARK                            x       y       z     vdW  Elec       q    Type
REMARK                         _______ _______ _______ _____ _____    ______ ____
ROOT
ATOM      1  C   UNL     1       2.764   6.978  18.594  0.00  0.00    +0.000 A 
ATOM      2  C   UNL     1       3.745   7.402  17.680  0.00  0.00    +0.000 A 
ATOM      3  C   UNL     1       4.470   6.487  16.907  0.00  0.00    +0.000 A 
ATOM      4  C   UNL     1       4.273   5.118  17.060  0.00  0.00    +0.000 A 
ATOM      5  C   UNL     1       3.319   4.671  17.970  0.00  0.00    +0.000 A 
ATOM      6  C   UNL     1       2.575   5.590  18.721  0.00  0.00    +0.000 A 
ENDROOT
BRANCH   1  10
ATOM      7  C   UNL     1       0.462   9.852  20.850  0.00  0.00    +0.000 A 
ATOM      8  C   UNL     1       0.880   8.663  21.444  0.00  0.00    +0.000 A 
ATOM      9  C   UNL     1       1.604   7.724  20.701  0.00  0.00    +0.000 A 
ATOM     10  C   UNL     1       1.925   7.942  19.348  0.00  0.00    +0.000 A 
ATOM     11  C   UNL     1       1.461   9.136  18.764  0.00  0.00    +0.000 A 
ATOM     12  C   UNL     1       0.747  10.086  19.506  0.00  0.00    +0.000 A 
BRANCH   7  14
ATOM     13  N   UNL     1      -0.796  11.634  22.250  0.00  0.00    +0.000 NA
ATOM     14  C   UNL     1      -0.238  10.837  21.623  0.00  0.00    +0.000 C 
ENDBRANCH   7  14
ENDBRANCH   1  10
BRANCH   4  15
ATOM     15  O   UNL     1       5.021   4.317  16.244  0.00  0.00    +0.000 OA
BRANCH  15  16
ATOM     16  C   UNL     1       5.562   4.960  15.091  0.00  0.00    +0.000 C 
BRANCH  16  17
ATOM     17  C   UNL     1       7.091   4.972  15.113  0.00  0.00    +0.000 C 
ATOM     18  N   UNL     1       7.682   4.490  16.243  0.00  0.00    +0.000 N 
ATOM     19  O   UNL     1       7.765   5.401  14.183  0.00  0.00    +0.000 OA
ATOM     20  H   UNL     1       7.124   4.166  17.023  0.00  0.00    +0.000 HD
ATOM     21  H   UNL     1       8.690   4.502  16.310  0.00  0.00    +0.000 HD
ENDBRANCH  16  17
ENDBRANCH  15  16
ENDBRANCH   4  15
TORSDOF 5
ENDMDL
