MODEL 1
REMARK VINA RESULT:      -8.1      0.000      0.000
REMARK  Name = 
REMARK  3 active torsions:
REMARK  status: ('A' for Active; 'I' for Inactive)
REMARK    1  A    between atoms: C_3  and  N_4
REMARK    2  A    between atoms: N_4  and  C_5
REMARK    3  A    between atoms: C_15  and  O_16
REMARK                            x       y       z     vdW  Elec       q    Type
REMARK                         _______ _______ _______ _____ _____    ______ ____
ROOT
ATOM      1  O   UNL     1       5.174   7.227  15.512  0.00  0.00    +0.000 OA
ATOM      2  C   UNL     1       5.202   6.460  16.472  0.00  0.00    +0.000 C 
ATOM      3  C   UNL     1       6.259   5.400  16.563  0.00  0.00    +0.000 C 
ATOM      4  C   UNL     1       6.218   4.516  17.567  0.00  0.00    +0.000 C 
ATOM      5  C   UNL     1       5.219   4.571  18.640  0.00  0.00    +0.000 C 
ATOM      6  O   UNL     1       5.230   3.744  19.550  0.00  0.00    +0.000 OA
ATOM      7  C   UNL     1       4.222   5.649  18.618  0.00  0.00    +0.000 A 
ATOM      8  C   UNL     1       3.279   5.765  19.647  0.00  0.00    +0.000 A 
ATOM      9  C   UNL     1       2.338   6.792  19.628  0.00  0.00    +0.000 A 
ATOM     10  C   UNL     1       2.333   7.710  18.579  0.00  0.00    +0.000 A 
ATOM     11  C   UNL     1       3.270   7.601  17.550  0.00  0.00    +0.000 A 
ATOM     12  C   UNL     1       4.217   6.565  17.568  0.00  0.00    +0.000 A 
ENDROOT
BRANCH   3  13
ATOM     13  N   UNL     1       7.205   5.397  15.544  0.00  0.00    +0.000 N 
ATOM     14  H   UNL     1       8.134   5.154  15.907  0.00  0.00    +0.000 HD
BRANCH  13  15
ATOM     15  C   UNL     1       7.016   4.814  14.265  0.00  0.00    +0.000 A 
ATOM     16  C   UNL     1       6.053   3.829  14.000  0.00  0.00    +0.000 A 
ATOM     17  C   UNL     1       5.880   3.317  12.713  0.00  0.00    +0.000 A 
ATOM     18  C   UNL     1       6.664   3.788  11.664  0.00  0.00    +0.000 A 
ATOM     19  C   UNL     1       7.626   4.766  11.906  0.00  0.00    +0.000 A 
ATOM     20  C   UNL     1       7.798   5.276  13.198  0.00  0.00    +0.000 A 
ENDBRANCH  13  15
ENDBRANCH   3  13
BRANCH   8  21
ATOM     21  O   UNL     1       3.219   4.908  20.712  0.00  0.00    +0.000 OA
ATOM     22  H   UNL     1       3.904   4.211  20.594  0.00  0.00    +0.000 HD
ENDBRANCH   8  21
TORSDOF 3
ENDMDL
MODEL 2
REMARK VINA RESULT:      -8.0      0.168      1.089
REMARK  Name = 
REMARK  3 active torsions:
REMARK  status: ('A' for Active; 'I' for Inactive)
REMARK    1  A    between atoms: C_3  and  N_4
REMARK    2  A    between atoms: N_4  and  C_5
REMARK    3  A    between atoms: C_15  and  O_16
REMARK                            x       y       z     vdW  Elec       q    Type
REMARK                         _______ _______ _______ _____ _____    ______ ____
ROOT
ATOM      1  O   UNL     1       5.221   7.079  15.605  0.00  0.00    +0.000 OA
ATOM      2  C   UNL     1       5.232   6.316  16.569  0.00  0.00    +0.000 C 
ATOM      3  C   UNL     1       6.297   5.268  16.693  0.00  0.00    +0.000 C 
ATOM      4  C   UNL     1       6.238   4.387  17.700  0.00  0.00    +0.000 C 
ATOM      5  C   UNL     1       5.210   4.436  18.745  0.00  0.00    +0.000 C 
ATOM      6  O   UNL     1       5.205   3.613  19.659  0.00  0.00    +0.000 OA
ATOM      7  C   UNL     1       4.203   5.503  18.692  0.00  0.00    +0.000 A 
ATOM      8  C   UNL     1       3.231   5.613  19.694  0.00  0.00    +0.000 A 
ATOM      9  C   UNL     1       2.280   6.629  19.645  0.00  0.00    +0.000 A 
ATOM     10  C   UNL     1       2.293   7.543  18.592  0.00  0.00    +0.000 A 
ATOM     11  C   UNL     1       3.258   7.440  17.590  0.00  0.00    +0.000 A 
ATOM     12  C   UNL     1       4.216   6.414  17.638  0.00  0.00    +0.000 A 
ENDROOT
BRANCH   3  13
ATOM     13  N   UNL     1       7.270   5.271  15.700  0.00  0.00    +0.000 N 
ATOM     14  H   UNL     1       8.169   4.937  16.067  0.00  0.00    +0.000 HD
BRANCH  13  15
ATOM     15  C   UNL     1       7.079   4.795  14.378  0.00  0.00    +0.000 A 
ATOM     16  C   UNL     1       7.826   5.244  13.279  0.00  0.00    +0.000 A 
ATOM     17  C   UNL     1       7.626   4.712  12.004  0.00  0.00    +0.000 A 
ATOM     18  C   UNL     1       6.676   3.715  11.806  0.00  0.00    +0.000 A 
ATOM     19  C   UNL     1       5.923   3.255  12.884  0.00  0.00    +0.000 A 
ATOM     20  C   UNL     1       6.126   3.791  14.160  0.00  0.00    +0.000 A 
ENDBRANCH  13  15
ENDBRANCH   3  13
BRANCH   8  21
ATOM     21  O   UNL     1       3.151   4.759  20.760  0.00  0.00    +0.000 OA
ATOM     22  H   UNL     1       2.203   4.637  20.996  0.00  0.00    +0.000 HD
ENDBRANCH   8  21
TORSDOF 3
ENDMDL
MODEL 3
REMARK VINA RESULT:      -7.4      1.743      1.986
REMARK  Name = 
REMARK  3 active torsions:
REMARK  status: ('A' for Active; 'I' for Inactive)
REMARK    1  A    between atoms: C_3  and  N_4
REMARK    2  A    between atoms: N_4  and  C_5
REMARK    3  A    between atoms: C_15  and  O_16
REMARK                            x       y       z     vdW  Elec       q    Type
REMARK                         _______ _______ _______ _____ _____    ______ ____
ROOT
ATOM      1  O   UNL     1       4.344   7.082  17.455  0.00  0.00    +0.000 OA
ATOM      2  C   UNL     1       4.167   5.874  17.595  0.00  0.00    +0.000 C 
ATOM      3  C   UNL     1       4.908   4.895  16.734  0.00  0.00    +0.000 C 
ATOM      4  C   UNL     1       4.632   3.589  16.837  0.00  0.00    +0.000 C 
ATOM      5  C   UNL     1       3.679   3.048  17.811  0.00  0.00    +0.000 C 
ATOM      6  O   UNL     1       3.469   1.838  17.878  0.00  0.00    +0.000 OA
ATOM      7  C   UNL     1       2.999   3.979  18.722  0.00  0.00    +0.000 A 
ATOM      8  C   UNL     1       2.115   3.500  19.697  0.00  0.00    +0.000 A 
ATOM      9  C   UNL     1       1.477   4.383  20.564  0.00  0.00    +0.000 A 
ATOM     10  C   UNL     1       1.717   5.753  20.461  0.00  0.00    +0.000 A 
ATOM     11  C   UNL     1       2.596   6.237  19.492  0.00  0.00    +0.000 A 
ATOM     12  C   UNL     1       3.239   5.347  18.617  0.00  0.00    +0.000 A 
ENDROOT
BRANCH   3  13
ATOM     13  N   UNL     1       5.824   5.442  15.843  0.00  0.00    +0.000 N 
ATOM     14  H   UNL     1       6.672   5.750  16.332  0.00  0.00    +0.000 HD
BRANCH  13  15
ATOM     15  C   UNL     1       6.167   4.879  14.586  0.00  0.00    +0.000 A 
ATOM     16  C   UNL     1       5.345   3.979  13.893  0.00  0.00    +0.000 A 
ATOM     17  C   UNL     1       5.712   3.487  12.639  0.00  0.00    +0.000 A 
ATOM     18  C   UNL     1       6.906   3.893  12.052  0.00  0.00    +0.000 A 
ATOM     19  C   UNL     1       7.736   4.787  12.724  0.00  0.00    +0.000 A 
ATOM     20  C   UNL     1       7.367   5.277  13.981  0.00  0.00    +0.000 A 
ENDBRANCH  13  15
ENDBRANCH   3  13
BRANCH   8  21
ATOM     21  O   UNL     1       1.828   2.173  19.865  0.00  0.00    +0.000 OA
ATOM     22  H   UNL     1       0.857   2.046  19.771  0.00  0.00    +0.000 HD
ENDBRANCH   8  21
TORSDOF 3
ENDMDL
MODEL 4
REMARK VINA RESULT:      -7.3      5.180      7.388
REMARK  Name = 
REMARK  3 active torsions:
REMARK  status: ('A' for Active; 'I' for Inactive)
REMARK    1  A    between atoms: C_3  and  N_4
REMARK    2  A    between atoms: N_4  and  C_5
REMARK    3  A    between atoms: C_15  and  O_16
REMARK                            x       y       z     vdW  Elec       q    Type
REMARK                         _______ _______ _______ _____ _____    ______ ____
ROOT
ATOM      1  O   UNL     1       1.164   8.971  18.368  0.00  0.00    +0.000 OA
ATOM      2  C   UNL     1       1.014   9.170  19.571  0.00  0.00    +0.000 C 
ATOM      3  C   UNL     1       1.683   8.279  20.575  0.00  0.00    +0.000 C 
ATOM      4  C   UNL     1       1.433   8.454  21.878  0.00  0.00    +0.000 C 
ATOM      5  C   UNL     1       0.581   9.532  22.391  0.00  0.00    +0.000 C 
ATOM      6  O   UNL     1       0.391   9.662  23.599  0.00  0.00    +0.000 OA
ATOM      7  C   UNL     1      -0.021  10.469  21.433  0.00  0.00    +0.000 A 
ATOM      8  C   UNL     1      -0.805  11.540  21.883  0.00  0.00    +0.000 A 
ATOM      9  C   UNL     1      -1.370  12.430  20.973  0.00  0.00    +0.000 A 
ATOM     10  C   UNL     1      -1.156  12.257  19.606  0.00  0.00    +0.000 A 
ATOM     11  C   UNL     1      -0.376  11.193  19.151  0.00  0.00    +0.000 A 
ATOM     12  C   UNL     1       0.192  10.294  20.067  0.00  0.00    +0.000 A 
ENDROOT
BRANCH   3  13
ATOM     13  N   UNL     1       2.506   7.287  20.053  0.00  0.00    +0.000 N 
ATOM     14  H   UNL     1       3.360   7.188  20.613  0.00  0.00    +0.000 HD
BRANCH  13  15
ATOM     15  C   UNL     1       2.060   6.013  19.617  0.00  0.00    +0.000 A 
ATOM     16  C   UNL     1       2.215   5.548  18.303  0.00  0.00    +0.000 A 
ATOM     17  C   UNL     1       1.796   4.268  17.936  0.00  0.00    +0.000 A 
ATOM     18  C   UNL     1       1.219   3.426  18.881  0.00  0.00    +0.000 A 
ATOM     19  C   UNL     1       1.057   3.868  20.192  0.00  0.00    +0.000 A 
ATOM     20  C   UNL     1       1.477   5.152  20.556  0.00  0.00    +0.000 A 
ENDBRANCH  13  15
ENDBRANCH   3  13
BRANCH   8  21
ATOM     21  O   UNL     1      -1.060  11.780  23.205  0.00  0.00    +0.000 OA
ATOM     22  H   UNL     1      -0.701  12.667  23.439  0.00  0.00    +0.000 HD
ENDBRANCH   8  21
TORSDOF 3
ENDMDL
MODEL 5
REMARK VINA RESULT:      -7.2      1.709      2.904
REMARK  Name = 
REMARK  3 active torsions:
REMARK  status: ('A' for Active; 'I' for Inactive)
REMARK    1  A    between atoms: C_3  and  N_4
REMARK    2  A    between atoms: N_4  and  C_5
REMARK    3  A    between atoms: C_15  and  O_16
REMARK                            x       y       z     vdW  Elec       q    Type
REMARK                         _______ _______ _______ _____ _____    ______ ____
ROOT
ATOM      1  O   UNL     1       4.119   2.166  17.770  0.00  0.00    +0.000 OA
ATOM      2  C   UNL     1       4.049   3.392  17.724  0.00  0.00    +0.000 C 
ATOM      3  C   UNL     1       4.833   4.158  16.700  0.00  0.00    +0.000 C 
ATOM      4  C   UNL     1       4.817   5.496  16.727  0.00  0.00    +0.000 C 
ATOM      5  C   UNL     1       4.005   6.268  17.674  0.00  0.00    +0.000 C 
ATOM      6  O   UNL     1       4.013   7.497  17.651  0.00  0.00    +0.000 OA
ATOM      7  C   UNL     1       3.165   5.541  18.635  0.00  0.00    +0.000 A 
ATOM      8  C   UNL     1       2.340   6.238  19.527  0.00  0.00    +0.000 A 
ATOM      9  C   UNL     1       1.540   5.547  20.433  0.00  0.00    +0.000 A 
ATOM     10  C   UNL     1       1.558   4.153  20.454  0.00  0.00    +0.000 A 
ATOM     11  C   UNL     1       2.377   3.451  19.568  0.00  0.00    +0.000 A 
ATOM     12  C   UNL     1       3.186   4.148  18.656  0.00  0.00    +0.000 A 
ENDROOT
BRANCH   3  13
ATOM     13  N   UNL     1       5.567   3.393  15.801  0.00  0.00    +0.000 N 
ATOM     14  H   UNL     1       5.098   2.501  15.611  0.00  0.00    +0.000 HD
BRANCH  13  15
ATOM     15  C   UNL     1       6.165   3.890  14.615  0.00  0.00    +0.000 A 
ATOM     16  C   UNL     1       7.201   4.835  14.608  0.00  0.00    +0.000 A 
ATOM     17  C   UNL     1       7.782   5.260  13.412  0.00  0.00    +0.000 A 
ATOM     18  C   UNL     1       7.341   4.741  12.199  0.00  0.00    +0.000 A 
ATOM     19  C   UNL     1       6.313   3.801  12.184  0.00  0.00    +0.000 A 
ATOM     20  C   UNL     1       5.731   3.378  13.384  0.00  0.00    +0.000 A 
ENDBRANCH  13  15
ENDBRANCH   3  13
BRANCH   8  21
ATOM     21  O   UNL     1       2.263   7.603  19.568  0.00  0.00    +0.000 OA
ATOM     22  H   UNL     1       1.805   7.917  18.756  0.00  0.00    +0.000 HD
ENDBRANCH   8  21
TORSDOF 3
ENDMDL
MODEL 6
REMARK VINA RESULT:      -7.2      5.096      7.115
REMARK  Name = 
REMARK  3 active torsions:
REMARK  status: ('A' for Active; 'I' for Inactive)
REMARK    1  A    between atoms: C_3  and  N_4
REMARK    2  A    between atoms: N_4  and  C_5
REMARK    3  A    between atoms: C_15  and  O_16
REMARK                            x       y       z     vdW  Elec       q    Type
REMARK                         _______ _______ _______ _____ _____    ______ ____
ROOT
ATOM      1  O   UNL     1       1.932   8.717  18.186  0.00  0.00    +0.000 OA
ATOM      2  C   UNL     1       1.419   8.886  19.290  0.00  0.00    +0.000 C 
ATOM      3  C   UNL     1       1.642   7.890  20.389  0.00  0.00    +0.000 C 
ATOM      4  C   UNL     1       1.000   8.042  21.554  0.00  0.00    +0.000 C 
ATOM      5  C   UNL     1       0.131   9.188  21.844  0.00  0.00    +0.000 C 
ATOM      6  O   UNL     1      -0.427   9.292  22.935  0.00  0.00    +0.000 OA
ATOM      7  C   UNL     1      -0.039  10.220  20.813  0.00  0.00    +0.000 A 
ATOM      8  C   UNL     1      -0.824  11.353  21.065  0.00  0.00    +0.000 A 
ATOM      9  C   UNL     1      -0.979  12.333  20.088  0.00  0.00    +0.000 A 
ATOM     10  C   UNL     1      -0.351  12.189  18.852  0.00  0.00    +0.000 A 
ATOM     11  C   UNL     1       0.433  11.064  18.594  0.00  0.00    +0.000 A 
ATOM     12  C   UNL     1       0.588  10.074  19.577  0.00  0.00    +0.000 A 
ENDROOT
BRANCH   3  13
ATOM     13  N   UNL     1       2.495   6.834  20.087  0.00  0.00    +0.000 N 
ATOM     14  H   UNL     1       3.247   6.761  20.781  0.00  0.00    +0.000 HD
BRANCH  13  15
ATOM     15  C   UNL     1       2.071   5.539  19.693  0.00  0.00    +0.000 A 
ATOM     16  C   UNL     1       1.486   4.616  20.572  0.00  0.00    +0.000 A 
ATOM     17  C   UNL     1       1.049   3.369  20.124  0.00  0.00    +0.000 A 
ATOM     18  C   UNL     1       1.182   3.024  18.782  0.00  0.00    +0.000 A 
ATOM     19  C   UNL     1       1.760   3.927  17.892  0.00  0.00    +0.000 A 
ATOM     20  C   UNL     1       2.199   5.175  18.346  0.00  0.00    +0.000 A 
ENDBRANCH  13  15
ENDBRANCH   3  13
BRANCH   8  21
ATOM     21  O   UNL     1      -1.471  11.570  22.251  0.00  0.00    +0.000 OA
ATOM     22  H   UNL     1      -0.798  11.681  22.961  0.00  0.00    +0.000 HD
ENDBRANCH   8  21
TORSDOF 3
ENDMDL
MODEL 7
REMARK VINA RESULT:      -7.2      1.762      2.256
REMARK  Name = 
REMARK  3 active torsions:
REMARK  status: ('A' for Active; 'I' for Inactive)
REMARK    1  A    between atoms: C_3  and  N_4
REMARK    2  A    between atoms: N_4  and  C_5
REMARK    3  A    between atoms: C_15  and  O_16
REMARK                            x       y       z     vdW  Elec       q    Type
REMARK                         _______ _______ _______ _____ _____    ______ ____
ROOT
ATOM      1  O   UNL     1       4.653   6.938  17.595  0.00  0.00    +0.000 OA
ATOM      2  C   UNL     1       4.393   5.740  17.691  0.00  0.00    +0.000 C 
ATOM      3  C   UNL     1       5.124   4.737  16.849  0.00  0.00    +0.000 C 
ATOM      4  C   UNL     1       4.762   3.449  16.899  0.00  0.00    +0.000 C 
ATOM      5  C   UNL     1       3.720   2.946  17.800  0.00  0.00    +0.000 C 
ATOM      6  O   UNL     1       3.432   1.751  17.820  0.00  0.00    +0.000 OA
ATOM      7  C   UNL     1       3.045   3.896  18.694  0.00  0.00    +0.000 A 
ATOM      8  C   UNL     1       2.076   3.451  19.602  0.00  0.00    +0.000 A 
ATOM      9  C   UNL     1       1.441   4.352  20.453  0.00  0.00    +0.000 A 
ATOM     10  C   UNL     1       1.771   5.706  20.403  0.00  0.00    +0.000 A 
ATOM     11  C   UNL     1       2.736   6.156  19.502  0.00  0.00    +0.000 A 
ATOM     12  C   UNL     1       3.374   5.249  18.642  0.00  0.00    +0.000 A 
ENDROOT
BRANCH   3  13
ATOM     13  N   UNL     1       6.125   5.247  16.029  0.00  0.00    +0.000 N 
ATOM     14  H   UNL     1       7.015   5.311  16.535  0.00  0.00    +0.000 HD
BRANCH  13  15
ATOM     15  C   UNL     1       6.356   4.845  14.688  0.00  0.00    +0.000 A 
ATOM     16  C   UNL     1       7.454   5.276  13.931  0.00  0.00    +0.000 A 
ATOM     17  C   UNL     1       7.657   4.817  12.628  0.00  0.00    +0.000 A 
ATOM     18  C   UNL     1       6.766   3.912  12.061  0.00  0.00    +0.000 A 
ATOM     19  C   UNL     1       5.668   3.471  12.797  0.00  0.00    +0.000 A 
ATOM     20  C   UNL     1       5.467   3.934  14.101  0.00  0.00    +0.000 A 
ENDBRANCH  13  15
ENDBRANCH   3  13
BRANCH   8  21
ATOM     21  O   UNL     1       1.697   2.141  19.715  0.00  0.00    +0.000 OA
ATOM     22  H   UNL     1       0.927   2.087  20.324  0.00  0.00    +0.000 HD
ENDBRANCH   8  21
TORSDOF 3
ENDMDL
MODEL 8
REMARK VINA RESULT:      -7.2      5.115      7.141
REMARK  Name = 
REMARK  3 active torsions:
REMARK  status: ('A' for Active; 'I' for Inactive)
REMARK    1  A    between atoms: C_3  and  N_4
REMARK    2  A    between atoms: N_4  and  C_5
REMARK    3  A    between atoms: C_15  and  O_16
REMARK                            x       y       z     vdW  Elec       q    Type
REMARK                         _______ _______ _______ _____ _____    ______ ____
ROOT
ATOM      1  O   UNL     1       1.087   7.770  21.969  0.00  0.00    +0.000 OA
ATOM      2  C   UNL     1       1.225   8.320  20.879  0.00  0.00    +0.000 C 
ATOM      3  C   UNL     1       2.049   7.674  19.804  0.00  0.00    +0.000 C 
ATOM      4  C   UNL     1       2.265   8.332  18.658  0.00  0.00    +0.000 C 
ATOM      5  C   UNL     1       1.672   9.641  18.364  0.00  0.00    +0.000 C 
ATOM      6  O   UNL     1       1.888  10.200  17.290  0.00  0.00    +0.000 OA
ATOM      7  C   UNL     1       0.795  10.258  19.367  0.00  0.00    +0.000 A 
ATOM      8  C   UNL     1       0.173  11.486  19.108  0.00  0.00    +0.000 A 
ATOM      9  C   UNL     1      -0.663  12.066  20.059  0.00  0.00    +0.000 A 
ATOM     10  C   UNL     1      -0.883  11.423  21.277  0.00  0.00    +0.000 A 
ATOM     11  C   UNL     1      -0.267  10.200  21.542  0.00  0.00    +0.000 A 
ATOM     12  C   UNL     1       0.578   9.615  20.585  0.00  0.00    +0.000 A 
ENDROOT
BRANCH   3  13
ATOM     13  N   UNL     1       2.570   6.422  20.109  0.00  0.00    +0.000 N 
ATOM     14  H   UNL     1       2.825   6.363  21.101  0.00  0.00    +0.000 HD
BRANCH  13  15
ATOM     15  C   UNL     1       2.019   5.189  19.675  0.00  0.00    +0.000 A 
ATOM     16  C   UNL     1       2.108   4.725  18.355  0.00  0.00    +0.000 A 
ATOM     17  C   UNL     1       1.584   3.483  17.989  0.00  0.00    +0.000 A 
ATOM     18  C   UNL     1       0.967   2.679  18.942  0.00  0.00    +0.000 A 
ATOM     19  C   UNL     1       0.869   3.122  20.260  0.00  0.00    +0.000 A 
ATOM     20  C   UNL     1       1.394   4.367  20.622  0.00  0.00    +0.000 A 
ENDBRANCH  13  15
ENDBRANCH   3  13
BRANCH   8  21
ATOM     21  O   UNL     1       0.335  12.178  17.939  0.00  0.00    +0.000 OA
ATOM     22  H   UNL     1       1.106  12.782  18.035  0.00  0.00    +0.000 HD
ENDBRANCH   8  21
TORSDOF 3
ENDMDL
MODEL 9
REMARK VINA RESULT:      -7.2      2.789      5.042
REMARK  Name = 
REMARK  3 active torsions:
REMARK  status: ('A' for Active; 'I' for Inactive)
REMARK    1  A    between atoms: C_3  and  N_4
REMARK    2  A    between atoms: N_4  and  C_5
REMARK    3  A    between atoms: C_15  and  O_16
REMARK                            x       y       z     vdW  Elec       q    Type
REMARK                         _______ _______ _______ _____ _____    ______ ____
ROOT
ATOM      1  O   UNL     1       2.271   5.624  20.703  0.00  0.00    +0.000 OA
ATOM      2  C   UNL     1       2.199   6.571  19.923  0.00  0.00    +0.000 C 
ATOM      3  C   UNL     1       2.805   6.473  18.555  0.00  0.00    +0.000 C 
ATOM      4  C   UNL     1       2.798   7.547  17.755  0.00  0.00    +0.000 C 
ATOM      5  C   UNL     1       2.158   8.814  18.123  0.00  0.00    +0.000 C 
ATOM      6  O   UNL     1       2.166   9.769  17.348  0.00  0.00    +0.000 OA
ATOM      7  C   UNL     1       1.486   8.910  19.426  0.00  0.00    +0.000 A 
ATOM      8  C   UNL     1       0.824  10.087  19.798  0.00  0.00    +0.000 A 
ATOM      9  C   UNL     1       0.183  10.174  21.031  0.00  0.00    +0.000 A 
ATOM     10  C   UNL     1       0.199   9.085  21.902  0.00  0.00    +0.000 A 
ATOM     11  C   UNL     1       0.857   7.910  21.538  0.00  0.00    +0.000 A 
ATOM     12  C   UNL     1       1.505   7.822  20.296  0.00  0.00    +0.000 A 
ENDROOT
BRANCH   3  13
ATOM     13  N   UNL     1       3.376   5.248  18.230  0.00  0.00    +0.000 N 
ATOM     14  H   UNL     1       2.751   4.700  17.629  0.00  0.00    +0.000 HD
BRANCH  13  15
ATOM     15  C   UNL     1       4.723   5.065  17.825  0.00  0.00    +0.000 A 
ATOM     16  C   UNL     1       5.823   5.358  18.643  0.00  0.00    +0.000 A 
ATOM     17  C   UNL     1       7.129   5.120  18.209  0.00  0.00    +0.000 A 
ATOM     18  C   UNL     1       7.357   4.577  16.949  0.00  0.00    +0.000 A 
ATOM     19  C   UNL     1       6.277   4.279  16.120  0.00  0.00    +0.000 A 
ATOM     20  C   UNL     1       4.971   4.520  16.557  0.00  0.00    +0.000 A 
ENDBRANCH  13  15
ENDBRANCH   3  13
BRANCH   8  21
ATOM     21  O   UNL     1       0.760  11.197  19.001  0.00  0.00    +0.000 OA
ATOM     22  H   UNL     1       0.466  10.923  18.103  0.00  0.00    +0.000 HD
ENDBRANCH   8  21
TORSDOF 3
ENDMDL
