MODEL 1
REMARK VINA RESULT:      -7.7      0.000      0.000
REMARK  Name = 
REMARK  6 active torsions:
REMARK  status: ('A' for Active; 'I' for Inactive)
REMARK    1  A    between atoms: C_1  and  C_2
REMARK    2  A    between atoms: C_2  and  C_3
REMARK    3  A    between atoms: C_4  and  C_5
REMARK    4  A    between atoms: C_10  and  O_11
REMARK    5  A    between atoms: C_12  and  C_13
REMARK    6  A    between atoms: C_13  and  N_14
REMARK                            x       y       z     vdW  Elec       q    Type
REMARK                         _______ _______ _______ _____ _____    ______ ____
ROOT
ATOM      1  C   UNL     1       1.349   9.085  19.410  0.00  0.00    +0.000 A 
ATOM      2  C   UNL     1       1.250   8.143  20.375  0.00  0.00    +0.000 A 
ATOM      3  C   UNL     1       0.571   8.381  21.700  0.00  0.00    +0.000 C 
ATOM      4  C   UNL     1       1.807   6.793  20.126  0.00  0.00    +0.000 A 
ATOM      5  C   UNL     1       1.734   5.757  21.067  0.00  0.00    +0.000 A 
ATOM      6  C   UNL     1       2.224   4.486  20.765  0.00  0.00    +0.000 A 
ATOM      7 CL   UNL     1       2.129   3.246  21.964  0.00  0.00    +0.000 Cl
ATOM      8  C   UNL     1       2.793   4.219  19.518  0.00  0.00    +0.000 A 
ATOM      9  C   UNL     1       2.895   5.224  18.549  0.00  0.00    +0.000 A 
ATOM     10  C   UNL     1       2.403   6.504  18.889  0.00  0.00    +0.000 A 
ATOM     11  O   UNL     1       2.551   7.534  17.938  0.00  0.00    +0.000 OA
ATOM     12  C   UNL     1       2.109   8.826  18.154  0.00  0.00    +0.000 A 
ATOM     13  O   UNL     1       2.340   9.717  17.343  0.00  0.00    +0.000 OA
ENDROOT
BRANCH   1  15
ATOM     14  C   UNL     1      -0.739  10.452  18.913  0.00  0.00    +0.000 C 
ATOM     15  C   UNL     1       0.681  10.446  19.462  0.00  0.00    +0.000 C 
ENDBRANCH   1  15
BRANCH   8  16
ATOM     16  O   UNL     1       3.298   2.976  19.238  0.00  0.00    +0.000 OA
ATOM     17  H   UNL     1       3.997   2.785  19.891  0.00  0.00    +0.000 HD
ENDBRANCH   8  16
BRANCH   9  18
ATOM     18  C   UNL     1       3.547   4.936  17.213  0.00  0.00    +0.000 C 
BRANCH  18  19
ATOM     19  N   UNL     1       4.967   5.359  17.088  0.00  0.00    +0.000 NA
ATOM     20  C   UNL     1       5.557   5.582  18.418  0.00  0.00    +0.000 C 
ATOM     21  C   UNL     1       7.076   5.761  18.411  0.00  0.00    +0.000 C 
ATOM     22  C   UNL     1       7.766   4.610  17.697  0.00  0.00    +0.000 C 
ATOM     23  C   UNL     1       7.208   4.479  16.291  0.00  0.00    +0.000 C 
ATOM     24  C   UNL     1       5.686   4.333  16.308  0.00  0.00    +0.000 C 
ENDBRANCH  18  19
ENDBRANCH   9  18
TORSDOF 4
ENDMDL
MODEL 2
REMARK VINA RESULT:      -7.7      0.740      1.270
REMARK  Name = 
REMARK  6 active torsions:
REMARK  status: ('A' for Active; 'I' for Inactive)
REMARK    1  A    between atoms: C_1  and  C_2
REMARK    2  A    between atoms: C_2  and  C_3
REMARK    3  A    between atoms: C_4  and  C_5
REMARK    4  A    between atoms: C_10  and  O_11
REMARK    5  A    between atoms: C_12  and  C_13
REMARK    6  A    between atoms: C_13  and  N_14
REMARK                            x       y       z     vdW  Elec       q    Type
REMARK                         _______ _______ _______ _____ _____    ______ ____
ROOT
ATOM      1  C   UNL     1       1.680   8.600  19.259  0.00  0.00    +0.000 A 
ATOM      2  C   UNL     1       1.570   7.705  20.267  0.00  0.00    +0.000 A 
ATOM      3  C   UNL     1       1.024   8.051  21.629  0.00  0.00    +0.000 C 
ATOM      4  C   UNL     1       1.977   6.300  20.031  0.00  0.00    +0.000 A 
ATOM      5  C   UNL     1       1.882   5.307  21.016  0.00  0.00    +0.000 A 
ATOM      6  C   UNL     1       2.226   3.985  20.729  0.00  0.00    +0.000 A 
ATOM      7 CL   UNL     1       2.111   2.801  21.981  0.00  0.00    +0.000 Cl
ATOM      8  C   UNL     1       2.666   3.624  19.454  0.00  0.00    +0.000 A 
ATOM      9  C   UNL     1       2.783   4.581  18.441  0.00  0.00    +0.000 A 
ATOM     10  C   UNL     1       2.442   5.913  18.764  0.00  0.00    +0.000 A 
ATOM     11  O   UNL     1       2.610   6.892  17.764  0.00  0.00    +0.000 OA
ATOM     12  C   UNL     1       2.309   8.227  17.960  0.00  0.00    +0.000 A 
ATOM     13  O   UNL     1       2.557   9.064  17.099  0.00  0.00    +0.000 OA
ENDROOT
BRANCH   1  15
ATOM     14  C   UNL     1      -0.283  10.155  18.807  0.00  0.00    +0.000 C 
ATOM     15  C   UNL     1       1.148  10.020  19.306  0.00  0.00    +0.000 C 
ENDBRANCH   1  15
BRANCH   8  16
ATOM     16  O   UNL     1       3.028   2.329  19.187  0.00  0.00    +0.000 OA
ATOM     17  H   UNL     1       3.647   2.044  19.884  0.00  0.00    +0.000 HD
ENDBRANCH   8  16
BRANCH   9  18
ATOM     18  C   UNL     1       3.297   4.188  17.071  0.00  0.00    +0.000 C 
BRANCH  18  19
ATOM     19  N   UNL     1       4.757   3.920  16.986  0.00  0.00    +0.000 NA
ATOM     20  C   UNL     1       5.251   4.184  15.626  0.00  0.00    +0.000 C 
ATOM     21  C   UNL     1       6.775   4.195  15.501  0.00  0.00    +0.000 C 
ATOM     22  C   UNL     1       7.407   5.148  16.502  0.00  0.00    +0.000 C 
ATOM     23  C   UNL     1       6.959   4.777  17.905  0.00  0.00    +0.000 C 
ATOM     24  C   UNL     1       5.434   4.739  18.010  0.00  0.00    +0.000 C 
ENDBRANCH  18  19
ENDBRANCH   9  18
TORSDOF 4
ENDMDL
MODEL 3
REMARK VINA RESULT:      -7.6      0.730      1.147
REMARK  Name = 
REMARK  6 active torsions:
REMARK  status: ('A' for Active; 'I' for Inactive)
REMARK    1  A    between atoms: C_1  and  C_2
REMARK    2  A    between atoms: C_2  and  C_3
REMARK    3  A    between atoms: C_4  and  C_5
REMARK    4  A    between atoms: C_10  and  O_11
REMARK    5  A    between atoms: C_12  and  C_13
REMARK    6  A    between atoms: C_13  and  N_14
REMARK                            x       y       z     vdW  Elec       q    Type
REMARK                         _______ _______ _______ _____ _____    ______ ____
ROOT
ATOM      1  C   UNL     1       1.499   8.880  19.318  0.00  0.00    +0.000 A 
ATOM      2  C   UNL     1       1.321   7.937  20.270  0.00  0.00    +0.000 A 
ATOM      3  C   UNL     1       0.529   8.169  21.532  0.00  0.00    +0.000 C 
ATOM      4  C   UNL     1       1.906   6.590  20.069  0.00  0.00    +0.000 A 
ATOM      5  C   UNL     1       1.757   5.552  20.999  0.00  0.00    +0.000 A 
ATOM      6  C   UNL     1       2.279   4.284  20.739  0.00  0.00    +0.000 A 
ATOM      7 CL   UNL     1       2.087   3.042  21.924  0.00  0.00    +0.000 Cl
ATOM      8  C   UNL     1       2.955   4.023  19.545  0.00  0.00    +0.000 A 
ATOM      9  C   UNL     1       3.134   5.029  18.590  0.00  0.00    +0.000 A 
ATOM     10  C   UNL     1       2.607   6.306  18.887  0.00  0.00    +0.000 A 
ATOM     11  O   UNL     1       2.832   7.338  17.954  0.00  0.00    +0.000 OA
ATOM     12  C   UNL     1       2.366   8.627  18.132  0.00  0.00    +0.000 A 
ATOM     13  O   UNL     1       2.661   9.521  17.345  0.00  0.00    +0.000 OA
ENDROOT
BRANCH   1  15
ATOM     14  C   UNL     1      -0.522  10.249  18.597  0.00  0.00    +0.000 C 
ATOM     15  C   UNL     1       0.821  10.238  19.313  0.00  0.00    +0.000 C 
ENDBRANCH   1  15
BRANCH   8  16
ATOM     16  O   UNL     1       3.488   2.783  19.309  0.00  0.00    +0.000 OA
ATOM     17  H   UNL     1       2.929   2.127  19.765  0.00  0.00    +0.000 HD
ENDBRANCH   8  16
BRANCH   9  18
ATOM     18  C   UNL     1       3.901   4.747  17.314  0.00  0.00    +0.000 C 
BRANCH  18  19
ATOM     19  N   UNL     1       5.377   4.903  17.406  0.00  0.00    +0.000 NA
ATOM     20  C   UNL     1       5.844   5.935  16.467  0.00  0.00    +0.000 C 
ATOM     21  C   UNL     1       7.301   6.357  16.670  0.00  0.00    +0.000 C 
ATOM     22  C   UNL     1       7.562   6.774  18.108  0.00  0.00    +0.000 C 
ATOM     23  C   UNL     1       7.168   5.642  19.042  0.00  0.00    +0.000 C 
ATOM     24  C   UNL     1       5.720   5.208  18.809  0.00  0.00    +0.000 C 
ENDBRANCH  18  19
ENDBRANCH   9  18
TORSDOF 4
ENDMDL
MODEL 4
REMARK VINA RESULT:      -7.2      3.283      5.401
REMARK  Name = 
REMARK  6 active torsions:
REMARK  status: ('A' for Active; 'I' for Inactive)
REMARK    1  A    between atoms: C_1  and  C_2
REMARK    2  A    between atoms: C_2  and  C_3
REMARK    3  A    between atoms: C_4  and  C_5
REMARK    4  A    between atoms: C_10  and  O_11
REMARK    5  A    between atoms: C_12  and  C_13
REMARK    6  A    between atoms: C_13  and  N_14
REMARK                            x       y       z     vdW  Elec       q    Type
REMARK                         _______ _______ _______ _____ _____    ______ ____
ROOT
ATOM      1  C   UNL     1       2.203   4.300  18.746  0.00  0.00    +0.000 A 
ATOM      2  C   UNL     1       2.916   5.439  18.897  0.00  0.00    +0.000 A 
ATOM      3  C   UNL     1       2.571   6.508  19.902  0.00  0.00    +0.000 C 
ATOM      4  C   UNL     1       4.119   5.653  18.058  0.00  0.00    +0.000 A 
ATOM      5  C   UNL     1       4.921   6.798  18.161  0.00  0.00    +0.000 A 
ATOM      6  C   UNL     1       6.076   6.929  17.388  0.00  0.00    +0.000 A 
ATOM      7 CL   UNL     1       7.022   8.366  17.535  0.00  0.00    +0.000 Cl
ATOM      8  C   UNL     1       6.457   5.920  16.501  0.00  0.00    +0.000 A 
ATOM      9  C   UNL     1       5.684   4.763  16.359  0.00  0.00    +0.000 A 
ATOM     10  C   UNL     1       4.514   4.665  17.144  0.00  0.00    +0.000 A 
ATOM     11  O   UNL     1       3.702   3.526  16.966  0.00  0.00    +0.000 OA
ATOM     12  C   UNL     1       2.534   3.317  17.676  0.00  0.00    +0.000 A 
ATOM     13  O   UNL     1       1.806   2.362  17.428  0.00  0.00    +0.000 OA
ENDROOT
BRANCH   1  15
ATOM     14  C   UNL     1       1.488   3.000  20.813  0.00  0.00    +0.000 C 
ATOM     15  C   UNL     1       1.057   3.876  19.646  0.00  0.00    +0.000 C 
ENDBRANCH   1  15
BRANCH   8  16
ATOM     16  O   UNL     1       7.577   6.068  15.725  0.00  0.00    +0.000 OA
ATOM     17  H   UNL     1       7.296   6.423  14.861  0.00  0.00    +0.000 HD
ENDBRANCH   8  16
BRANCH   9  18
ATOM     18  C   UNL     1       6.086   3.690  15.367  0.00  0.00    +0.000 C 
BRANCH  18  19
ATOM     19  N   UNL     1       5.945   4.059  13.933  0.00  0.00    +0.000 NA
ATOM     20  C   UNL     1       7.222   3.871  13.226  0.00  0.00    +0.000 C 
ATOM     21  C   UNL     1       7.117   3.967  11.703  0.00  0.00    +0.000 C 
ATOM     22  C   UNL     1       6.053   3.028  11.159  0.00  0.00    +0.000 C 
ATOM     23  C   UNL     1       4.725   3.324  11.836  0.00  0.00    +0.000 C 
ATOM     24  C   UNL     1       4.848   3.256  13.358  0.00  0.00    +0.000 C 
ENDBRANCH  18  19
ENDBRANCH   9  18
TORSDOF 4
ENDMDL
MODEL 5
REMARK VINA RESULT:      -7.1      3.012      5.327
REMARK  Name = 
REMARK  6 active torsions:
REMARK  status: ('A' for Active; 'I' for Inactive)
REMARK    1  A    between atoms: C_1  and  C_2
REMARK    2  A    between atoms: C_2  and  C_3
REMARK    3  A    between atoms: C_4  and  C_5
REMARK    4  A    between atoms: C_10  and  O_11
REMARK    5  A    between atoms: C_12  and  C_13
REMARK    6  A    between atoms: C_13  and  N_14
REMARK                            x       y       z     vdW  Elec       q    Type
REMARK                         _______ _______ _______ _____ _____    ______ ____
ROOT
ATOM      1  C   UNL     1       2.411   2.888  19.476  0.00  0.00    +0.000 A 
ATOM      2  C   UNL     1       2.148   4.212  19.397  0.00  0.00    +0.000 A 
ATOM      3  C   UNL     1       1.062   4.892  20.191  0.00  0.00    +0.000 C 
ATOM      4  C   UNL     1       2.978   5.060  18.509  0.00  0.00    +0.000 A 
ATOM      5  C   UNL     1       2.782   6.443  18.381  0.00  0.00    +0.000 A 
ATOM      6  C   UNL     1       3.625   7.209  17.574  0.00  0.00    +0.000 A 
ATOM      7 CL   UNL     1       3.332   8.904  17.431  0.00  0.00    +0.000 Cl
ATOM      8  C   UNL     1       4.683   6.615  16.884  0.00  0.00    +0.000 A 
ATOM      9  C   UNL     1       4.914   5.238  16.976  0.00  0.00    +0.000 A 
ATOM     10  C   UNL     1       4.036   4.486  17.788  0.00  0.00    +0.000 A 
ATOM     11  O   UNL     1       4.229   3.091  17.842  0.00  0.00    +0.000 OA
ATOM     12  C   UNL     1       3.436   2.251  18.602  0.00  0.00    +0.000 A 
ATOM     13  O   UNL     1       3.575   1.033  18.550  0.00  0.00    +0.000 OA
ENDROOT
BRANCH   1  15
ATOM     14  C   UNL     1       1.893   2.373  21.913  0.00  0.00    +0.000 C 
ATOM     15  C   UNL     1       1.758   1.937  20.461  0.00  0.00    +0.000 C 
ENDBRANCH   1  15
BRANCH   8  16
ATOM     16  O   UNL     1       5.490   7.368  16.072  0.00  0.00    +0.000 OA
ATOM     17  H   UNL     1       5.157   8.285  16.090  0.00  0.00    +0.000 HD
ENDBRANCH   8  16
BRANCH   9  18
ATOM     18  C   UNL     1       6.042   4.596  16.194  0.00  0.00    +0.000 C 
BRANCH  18  19
ATOM     19  N   UNL     1       6.014   4.824  14.725  0.00  0.00    +0.000 NA
ATOM     20  C   UNL     1       7.375   5.046  14.212  0.00  0.00    +0.000 C 
ATOM     21  C   UNL     1       7.484   5.026  12.687  0.00  0.00    +0.000 C 
ATOM     22  C   UNL     1       6.886   3.756  12.104  0.00  0.00    +0.000 C 
ATOM     23  C   UNL     1       5.446   3.616  12.569  0.00  0.00    +0.000 C 
ATOM     24  C   UNL     1       5.346   3.669  14.094  0.00  0.00    +0.000 C 
ENDBRANCH  18  19
ENDBRANCH   9  18
TORSDOF 4
ENDMDL
MODEL 6
REMARK VINA RESULT:      -7.0      2.071      6.037
REMARK  Name = 
REMARK  6 active torsions:
REMARK  status: ('A' for Active; 'I' for Inactive)
REMARK    1  A    between atoms: C_1  and  C_2
REMARK    2  A    between atoms: C_2  and  C_3
REMARK    3  A    between atoms: C_4  and  C_5
REMARK    4  A    between atoms: C_10  and  O_11
REMARK    5  A    between atoms: C_12  and  C_13
REMARK    6  A    between atoms: C_13  and  N_14
REMARK                            x       y       z     vdW  Elec       q    Type
REMARK                         _______ _______ _______ _____ _____    ______ ____
ROOT
ATOM      1  C   UNL     1       5.916   5.066  16.291  0.00  0.00    +0.000 A 
ATOM      2  C   UNL     1       5.016   4.064  16.412  0.00  0.00    +0.000 A 
ATOM      3  C   UNL     1       5.100   2.774  15.636  0.00  0.00    +0.000 C 
ATOM      4  C   UNL     1       3.898   4.211  17.374  0.00  0.00    +0.000 A 
ATOM      5  C   UNL     1       2.932   3.215  17.571  0.00  0.00    +0.000 A 
ATOM      6  C   UNL     1       1.929   3.377  18.528  0.00  0.00    +0.000 A 
ATOM      7 CL   UNL     1       0.749   2.131  18.722  0.00  0.00    +0.000 Cl
ATOM      8  C   UNL     1       1.871   4.532  19.312  0.00  0.00    +0.000 A 
ATOM      9  C   UNL     1       2.810   5.556  19.145  0.00  0.00    +0.000 A 
ATOM     10  C   UNL     1       3.805   5.370  18.160  0.00  0.00    +0.000 A 
ATOM     11  O   UNL     1       4.720   6.421  17.950  0.00  0.00    +0.000 OA
ATOM     12  C   UNL     1       5.737   6.356  17.015  0.00  0.00    +0.000 A 
ATOM     13  O   UNL     1       6.456   7.326  16.795  0.00  0.00    +0.000 OA
ENDROOT
BRANCH   1  15
ATOM     14  C   UNL     1       6.962   4.972  13.973  0.00  0.00    +0.000 C 
ATOM     15  C   UNL     1       7.194   4.983  15.477  0.00  0.00    +0.000 C 
ENDBRANCH   1  15
BRANCH   8  16
ATOM     16  O   UNL     1       0.868   4.696  20.230  0.00  0.00    +0.000 OA
ATOM     17  H   UNL     1       1.193   4.363  21.088  0.00  0.00    +0.000 HD
ENDBRANCH   8  16
BRANCH   9  18
ATOM     18  C   UNL     1       2.718   6.821  19.974  0.00  0.00    +0.000 C 
BRANCH  18  19
ATOM     19  N   UNL     1       1.570   7.711  19.658  0.00  0.00    +0.000 NA
ATOM     20  C   UNL     1       1.171   8.478  20.849  0.00  0.00    +0.000 C 
ATOM     21  C   UNL     1       0.179   9.608  20.567  0.00  0.00    +0.000 C 
ATOM     22  C   UNL     1       0.688  10.532  19.472  0.00  0.00    +0.000 C 
ATOM     23  C   UNL     1       0.988   9.719  18.224  0.00  0.00    +0.000 C 
ATOM     24  C   UNL     1       1.955   8.574  18.525  0.00  0.00    +0.000 C 
ENDBRANCH  18  19
ENDBRANCH   9  18
TORSDOF 4
ENDMDL
MODEL 7
REMARK VINA RESULT:      -6.9      1.020      1.538
REMARK  Name = 
REMARK  6 active torsions:
REMARK  status: ('A' for Active; 'I' for Inactive)
REMARK    1  A    between atoms: C_1  and  C_2
REMARK    2  A    between atoms: C_2  and  C_3
REMARK    3  A    between atoms: C_4  and  C_5
REMARK    4  A    between atoms: C_10  and  O_11
REMARK    5  A    between atoms: C_12  and  C_13
REMARK    6  A    between atoms: C_13  and  N_14
REMARK                            x       y       z     vdW  Elec       q    Type
REMARK                         _______ _______ _______ _____ _____    ______ ____
ROOT
ATOM      1  C   UNL     1       0.798   9.801  19.890  0.00  0.00    +0.000 A 
ATOM      2  C   UNL     1       0.717   8.704  20.676  0.00  0.00    +0.000 A 
ATOM      3  C   UNL     1      -0.152   8.627  21.906  0.00  0.00    +0.000 C 
ATOM      4  C   UNL     1       1.494   7.497  20.311  0.00  0.00    +0.000 A 
ATOM      5  C   UNL     1       1.455   6.314  21.063  0.00  0.00    +0.000 A 
ATOM      6  C   UNL     1       2.161   5.184  20.649  0.00  0.00    +0.000 A 
ATOM      7 CL   UNL     1       2.099   3.756  21.619  0.00  0.00    +0.000 Cl
ATOM      8  C   UNL     1       2.916   5.207  19.474  0.00  0.00    +0.000 A 
ATOM      9  C   UNL     1       2.991   6.366  18.695  0.00  0.00    +0.000 A 
ATOM     10  C   UNL     1       2.277   7.498  19.147  0.00  0.00    +0.000 A 
ATOM     11  O   UNL     1       2.391   8.685  18.396  0.00  0.00    +0.000 OA
ATOM     12  C   UNL     1       1.740   9.857  18.736  0.00  0.00    +0.000 A 
ATOM     13  O   UNL     1       1.938  10.894  18.113  0.00  0.00    +0.000 OA
ENDROOT
BRANCH   1  15
ATOM     14  C   UNL     1       0.514  12.070  21.005  0.00  0.00    +0.000 C 
ATOM     15  C   UNL     1      -0.064  11.040  20.047  0.00  0.00    +0.000 C 
ENDBRANCH   1  15
BRANCH   8  16
ATOM     16  O   UNL     1       3.630   4.102  19.088  0.00  0.00    +0.000 OA
ATOM     17  H   UNL     1       4.038   3.718  19.886  0.00  0.00    +0.000 HD
ENDBRANCH   8  16
BRANCH   9  18
ATOM     18  C   UNL     1       3.842   6.394  17.442  0.00  0.00    +0.000 C 
BRANCH  18  19
ATOM     19  N   UNL     1       4.889   5.341  17.355  0.00  0.00    +0.000 NA
ATOM     20  C   UNL     1       4.952   4.789  15.993  0.00  0.00    +0.000 C 
ATOM     21  C   UNL     1       6.166   3.895  15.732  0.00  0.00    +0.000 C 
ATOM     22  C   UNL     1       7.462   4.601  16.092  0.00  0.00    +0.000 C 
ATOM     23  C   UNL     1       7.402   5.062  17.538  0.00  0.00    +0.000 C 
ATOM     24  C   UNL     1       6.169   5.929  17.795  0.00  0.00    +0.000 C 
ENDBRANCH  18  19
ENDBRANCH   9  18
TORSDOF 4
ENDMDL
MODEL 8
REMARK VINA RESULT:      -6.8      2.165      6.113
REMARK  Name = 
REMARK  6 active torsions:
REMARK  status: ('A' for Active; 'I' for Inactive)
REMARK    1  A    between atoms: C_1  and  C_2
REMARK    2  A    between atoms: C_2  and  C_3
REMARK    3  A    between atoms: C_4  and  C_5
REMARK    4  A    between atoms: C_10  and  O_11
REMARK    5  A    between atoms: C_12  and  C_13
REMARK    6  A    between atoms: C_13  and  N_14
REMARK                            x       y       z     vdW  Elec       q    Type
REMARK                         _______ _______ _______ _____ _____    ______ ____
ROOT
ATOM      1  C   UNL     1       5.109   4.781  16.206  0.00  0.00    +0.000 A 
ATOM      2  C   UNL     1       4.431   3.959  17.038  0.00  0.00    +0.000 A 
ATOM      3  C   UNL     1       4.549   2.457  17.002  0.00  0.00    +0.000 C 
ATOM      4  C   UNL     1       3.540   4.549  18.065  0.00  0.00    +0.000 A 
ATOM      5  C   UNL     1       2.812   3.770  18.976  0.00  0.00    +0.000 A 
ATOM      6  C   UNL     1       2.028   4.374  19.960  0.00  0.00    +0.000 A 
ATOM      7 CL   UNL     1       1.134   3.373  21.047  0.00  0.00    +0.000 Cl
ATOM      8  C   UNL     1       1.958   5.765  20.062  0.00  0.00    +0.000 A 
ATOM      9  C   UNL     1       2.661   6.583  19.171  0.00  0.00    +0.000 A 
ATOM     10  C   UNL     1       3.434   5.944  18.176  0.00  0.00    +0.000 A 
ATOM     11  O   UNL     1       4.101   6.762  17.242  0.00  0.00    +0.000 OA
ATOM     12  C   UNL     1       4.887   6.254  16.224  0.00  0.00    +0.000 A 
ATOM     13  O   UNL     1       5.375   6.992  15.374  0.00  0.00    +0.000 OA
ENDROOT
BRANCH   1  15
ATOM     14  C   UNL     1       5.640   4.020  13.836  0.00  0.00    +0.000 C 
ATOM     15  C   UNL     1       6.176   4.326  15.227  0.00  0.00    +0.000 C 
ENDBRANCH   1  15
BRANCH   8  16
ATOM     16  O   UNL     1       1.165   6.350  21.014  0.00  0.00    +0.000 OA
ATOM     17  H   UNL     1       1.751   6.747  21.686  0.00  0.00    +0.000 HD
ENDBRANCH   8  16
BRANCH   9  18
ATOM     18  C   UNL     1       2.550   8.091  19.265  0.00  0.00    +0.000 C 
BRANCH  18  19
ATOM     19  N   UNL     1       1.164   8.632  19.270  0.00  0.00    +0.000 NA
ATOM     20  C   UNL     1       0.972   9.543  20.409  0.00  0.00    +0.000 C 
ATOM     21  C   UNL     1      -0.325  10.352  20.355  0.00  0.00    +0.000 C 
ATOM     22  C   UNL     1      -0.460  11.096  19.037  0.00  0.00    +0.000 C 
ATOM     23  C   UNL     1      -0.364  10.108  17.887  0.00  0.00    +0.000 C 
ATOM     24  C   UNL     1       0.921   9.284  17.968  0.00  0.00    +0.000 C 
ENDBRANCH  18  19
ENDBRANCH   9  18
TORSDOF 4
ENDMDL
MODEL 9
REMARK VINA RESULT:      -6.8      6.255     10.093
REMARK  Name = 
REMARK  6 active torsions:
REMARK  status: ('A' for Active; 'I' for Inactive)
REMARK    1  A    between atoms: C_1  and  C_2
REMARK    2  A    between atoms: C_2  and  C_3
REMARK    3  A    between atoms: C_4  and  C_5
REMARK    4  A    between atoms: C_10  and  O_11
REMARK    5  A    between atoms: C_12  and  C_13
REMARK    6  A    between atoms: C_13  and  N_14
REMARK                            x       y       z     vdW  Elec       q    Type
REMARK                         _______ _______ _______ _____ _____    ______ ____
ROOT
ATOM      1  C   UNL     1      -0.014  10.690  20.266  0.00  0.00    +0.000 A 
ATOM      2  C   UNL     1      -0.206  10.223  19.011  0.00  0.00    +0.000 A 
ATOM      3  C   UNL     1       0.777   9.329  18.298  0.00  0.00    +0.000 C 
ATOM      4  C   UNL     1      -1.453  10.577  18.293  0.00  0.00    +0.000 A 
ATOM      5  C   UNL     1      -1.735  10.124  16.996  0.00  0.00    +0.000 A 
ATOM      6  C   UNL     1      -2.948  10.438  16.382  0.00  0.00    +0.000 A 
ATOM      7 CL   UNL     1      -3.244   9.875  14.776  0.00  0.00    +0.000 Cl
ATOM      8  C   UNL     1      -3.907  11.205  17.048  0.00  0.00    +0.000 A 
ATOM      9  C   UNL     1      -3.666  11.685  18.340  0.00  0.00    +0.000 A 
ATOM     10  C   UNL     1      -2.424  11.363  18.931  0.00  0.00    +0.000 A 
ATOM     11  O   UNL     1      -2.154  11.889  20.210  0.00  0.00    +0.000 OA
ATOM     12  C   UNL     1      -0.975  11.643  20.890  0.00  0.00    +0.000 A 
ATOM     13  O   UNL     1      -0.736  12.194  21.959  0.00  0.00    +0.000 OA
ENDROOT
BRANCH   1  15
ATOM     14  C   UNL     1       0.873   8.972  21.920  0.00  0.00    +0.000 C 
ATOM     15  C   UNL     1       1.127  10.274  21.174  0.00  0.00    +0.000 C 
ENDBRANCH   1  15
BRANCH   8  16
ATOM     16  O   UNL     1      -5.084  11.533  16.428  0.00  0.00    +0.000 OA
ATOM     17  H   UNL     1      -5.815  11.215  16.991  0.00  0.00    +0.000 HD
ENDBRANCH   8  16
BRANCH   9  18
ATOM     18  C   UNL     1      -4.696  12.548  19.041  0.00  0.00    +0.000 C 
BRANCH  18  19
ATOM     19  N   UNL     1      -5.395  11.908  20.187  0.00  0.00    +0.000 NA
ATOM     20  C   UNL     1      -5.687  12.901  21.232  0.00  0.00    +0.000 C 
ATOM     21  C   UNL     1      -6.632  12.404  22.327  0.00  0.00    +0.000 C 
ATOM     22  C   UNL     1      -7.916  11.842  21.739  0.00  0.00    +0.000 C 
ATOM     23  C   UNL     1      -7.578  10.745  20.744  0.00  0.00    +0.000 C 
ATOM     24  C   UNL     1      -6.609  11.244  19.672  0.00  0.00    +0.000 C 
ENDBRANCH  18  19
ENDBRANCH   9  18
TORSDOF 4
ENDMDL
