MODEL 1
REMARK VINA RESULT:      -6.3      0.000      0.000
REMARK  Name = 
REMARK  9 active torsions:
REMARK  status: ('A' for Active; 'I' for Inactive)
REMARK    1  A    between atoms: C_1  and  O_2
REMARK    2  A    between atoms: O_2  and  C_3
REMARK    3  A    between atoms: C_7  and  O_8
REMARK    4  A    between atoms: O_8  and  C_9
REMARK    5  A    between atoms: C_10  and  O_11
REMARK    6  A    between atoms: O_11  and  C_12
REMARK    7  A    between atoms: C_13  and  C_14
REMARK    8  A    between atoms: N_15  and  C_16
REMARK    9  A    between atoms: N_15  and  C_17
REMARK                            x       y       z     vdW  Elec       q    Type
REMARK                         _______ _______ _______ _____ _____    ______ ____
ROOT
ATOM      1  C   UNL     1       1.734   7.259  20.306  0.00  0.00    +0.000 A 
ATOM      2  C   UNL     1       1.485   5.984  20.838  0.00  0.00    +0.000 A 
ATOM      3  C   UNL     1       1.908   4.830  20.184  0.00  0.00    +0.000 A 
ATOM      4  C   UNL     1       2.643   4.927  18.983  0.00  0.00    +0.000 A 
ATOM      5  C   UNL     1       2.883   6.204  18.412  0.00  0.00    +0.000 A 
ATOM      6  C   UNL     1       2.411   7.379  19.067  0.00  0.00    +0.000 A 
ATOM      7  C   UNL     1       3.213   3.663  18.319  0.00  0.00    +0.000 C 
ATOM      8  C   UNL     1       2.431   3.398  17.003  0.00  0.00    +0.000 C 
ATOM      9  N   UNL     1       3.264   2.488  19.273  0.00  0.00    +0.000 N 
ATOM     10  C   UNL     1       4.340   2.707  20.285  0.00  0.00    +0.000 C 
ATOM     11  C   UNL     1       3.606   1.226  18.569  0.00  0.00    +0.000 C 
ATOM     12  C   UNL     1       1.948   2.315  19.936  0.00  0.00    +0.000 C 
ATOM     13  C   UNL     1       1.582   3.507  20.826  0.00  0.00    +0.000 C 
ENDROOT
BRANCH   1  15
ATOM     14  C   UNL     1       0.094   8.596  21.514  0.00  0.00    +0.000 C 
ATOM     15  O   UNL     1       1.346   8.373  20.977  0.00  0.00    +0.000 OA
ENDBRANCH   1  15
BRANCH   5  16
ATOM     16  O   UNL     1       3.602   6.242  17.250  0.00  0.00    +0.000 OA
ATOM     17  C   UNL     1       4.934   6.553  17.065  0.00  0.00    +0.000 C 
ENDBRANCH   5  16
BRANCH   6  18
ATOM     18  O   UNL     1       2.655   8.589  18.487  0.00  0.00    +0.000 OA
ATOM     19  C   UNL     1       1.790   9.412  17.796  0.00  0.00    +0.000 C 
ENDBRANCH   6  18
TORSDOF 3
ENDMDL
MODEL 2
REMARK VINA RESULT:      -5.8      2.997      5.051
REMARK  Name = 
REMARK  9 active torsions:
REMARK  status: ('A' for Active; 'I' for Inactive)
REMARK    1  A    between atoms: C_1  and  O_2
REMARK    2  A    between atoms: O_2  and  C_3
REMARK    3  A    between atoms: C_7  and  O_8
REMARK    4  A    between atoms: O_8  and  C_9
REMARK    5  A    between atoms: C_10  and  O_11
REMARK    6  A    between atoms: O_11  and  C_12
REMARK    7  A    between atoms: C_13  and  C_14
REMARK    8  A    between atoms: N_15  and  C_16
REMARK    9  A    between atoms: N_15  and  C_17
REMARK                            x       y       z     vdW  Elec       q    Type
REMARK                         _______ _______ _______ _____ _____    ______ ____
ROOT
ATOM      1  C   UNL     1       5.784   5.096  15.948  0.00  0.00    +0.000 A 
ATOM      2  C   UNL     1       4.628   4.300  15.915  0.00  0.00    +0.000 A 
ATOM      3  C   UNL     1       4.064   3.792  17.082  0.00  0.00    +0.000 A 
ATOM      4  C   UNL     1       4.626   4.112  18.337  0.00  0.00    +0.000 A 
ATOM      5  C   UNL     1       5.809   4.892  18.394  0.00  0.00    +0.000 A 
ATOM      6  C   UNL     1       6.405   5.375  17.191  0.00  0.00    +0.000 A 
ATOM      7  C   UNL     1       3.939   3.651  19.633  0.00  0.00    +0.000 C 
ATOM      8  C   UNL     1       4.819   2.557  20.299  0.00  0.00    +0.000 C 
ATOM      9  N   UNL     1       2.496   3.252  19.407  0.00  0.00    +0.000 N 
ATOM     10  C   UNL     1       1.672   4.469  19.144  0.00  0.00    +0.000 C 
ATOM     11  C   UNL     1       1.911   2.606  20.609  0.00  0.00    +0.000 C 
ATOM     12  C   UNL     1       2.404   2.302  18.271  0.00  0.00    +0.000 C 
ATOM     13  C   UNL     1       2.832   2.936  16.944  0.00  0.00    +0.000 C 
ENDROOT
BRANCH   1  15
ATOM     14  C   UNL     1       7.084   4.933  13.894  0.00  0.00    +0.000 C 
ATOM     15  O   UNL     1       6.298   5.613  14.803  0.00  0.00    +0.000 OA
ENDBRANCH   1  15
BRANCH   5  16
ATOM     16  O   UNL     1       6.310   5.175  19.634  0.00  0.00    +0.000 OA
ATOM     17  C   UNL     1       7.626   5.294  20.030  0.00  0.00    +0.000 C 
ENDBRANCH   5  16
BRANCH   6  18
ATOM     18  O   UNL     1       7.545   6.117  17.283  0.00  0.00    +0.000 OA
ATOM     19  C   UNL     1       7.684   7.485  17.398  0.00  0.00    +0.000 C 
ENDBRANCH   6  18
TORSDOF 3
ENDMDL
MODEL 3
REMARK VINA RESULT:      -5.7      2.451      4.463
REMARK  Name = 
REMARK  9 active torsions:
REMARK  status: ('A' for Active; 'I' for Inactive)
REMARK    1  A    between atoms: C_1  and  O_2
REMARK    2  A    between atoms: O_2  and  C_3
REMARK    3  A    between atoms: C_7  and  O_8
REMARK    4  A    between atoms: O_8  and  C_9
REMARK    5  A    between atoms: C_10  and  O_11
REMARK    6  A    between atoms: O_11  and  C_12
REMARK    7  A    between atoms: C_13  and  C_14
REMARK    8  A    between atoms: N_15  and  C_16
REMARK    9  A    between atoms: N_15  and  C_17
REMARK                            x       y       z     vdW  Elec       q    Type
REMARK                         _______ _______ _______ _____ _____    ______ ____
ROOT
ATOM      1  C   UNL     1       2.522   6.144  19.684  0.00  0.00    +0.000 A 
ATOM      2  C   UNL     1       3.027   6.805  18.553  0.00  0.00    +0.000 A 
ATOM      3  C   UNL     1       4.132   6.317  17.861  0.00  0.00    +0.000 A 
ATOM      4  C   UNL     1       4.741   5.108  18.262  0.00  0.00    +0.000 A 
ATOM      5  C   UNL     1       4.265   4.437  19.417  0.00  0.00    +0.000 A 
ATOM      6  C   UNL     1       3.159   4.966  20.146  0.00  0.00    +0.000 A 
ATOM      7  C   UNL     1       5.885   4.504  17.431  0.00  0.00    +0.000 C 
ATOM      8  C   UNL     1       7.205   4.628  18.242  0.00  0.00    +0.000 C 
ATOM      9  N   UNL     1       5.944   5.081  16.032  0.00  0.00    +0.000 N 
ATOM     10  C   UNL     1       4.796   4.568  15.227  0.00  0.00    +0.000 C 
ATOM     11  C   UNL     1       7.175   4.658  15.317  0.00  0.00    +0.000 C 
ATOM     12  C   UNL     1       5.922   6.563  16.093  0.00  0.00    +0.000 C 
ATOM     13  C   UNL     1       4.609   7.104  16.667  0.00  0.00    +0.000 C 
ENDROOT
BRANCH   1  15
ATOM     14  C   UNL     1       1.314   7.846  20.941  0.00  0.00    +0.000 C 
ATOM     15  O   UNL     1       1.423   6.616  20.324  0.00  0.00    +0.000 OA
ENDBRANCH   1  15
BRANCH   5  16
ATOM     16  O   UNL     1       4.888   3.270  19.761  0.00  0.00    +0.000 OA
ATOM     17  C   UNL     1       4.442   1.973  19.610  0.00  0.00    +0.000 C 
ENDBRANCH   5  16
BRANCH   6  18
ATOM     18  O   UNL     1       2.732   4.297  21.255  0.00  0.00    +0.000 OA
ATOM     19  C   UNL     1       1.698   3.391  21.379  0.00  0.00    +0.000 C 
ENDBRANCH   6  18
TORSDOF 3
ENDMDL
MODEL 4
REMARK VINA RESULT:      -5.7      2.117      4.819
REMARK  Name = 
REMARK  9 active torsions:
REMARK  status: ('A' for Active; 'I' for Inactive)
REMARK    1  A    between atoms: C_1  and  O_2
REMARK    2  A    between atoms: O_2  and  C_3
REMARK    3  A    between atoms: C_7  and  O_8
REMARK    4  A    between atoms: O_8  and  C_9
REMARK    5  A    between atoms: C_10  and  O_11
REMARK    6  A    between atoms: O_11  and  C_12
REMARK    7  A    between atoms: C_13  and  C_14
REMARK    8  A    between atoms: N_15  and  C_16
REMARK    9  A    between atoms: N_15  and  C_17
REMARK                            x       y       z     vdW  Elec       q    Type
REMARK                         _______ _______ _______ _____ _____    ______ ____
ROOT
ATOM      1  C   UNL     1       6.140   4.878  16.388  0.00  0.00    +0.000 A 
ATOM      2  C   UNL     1       5.485   3.681  16.716  0.00  0.00    +0.000 A 
ATOM      3  C   UNL     1       4.391   3.665  17.577  0.00  0.00    +0.000 A 
ATOM      4  C   UNL     1       3.888   4.874  18.104  0.00  0.00    +0.000 A 
ATOM      5  C   UNL     1       4.550   6.093  17.808  0.00  0.00    +0.000 A 
ATOM      6  C   UNL     1       5.695   6.097  16.959  0.00  0.00    +0.000 A 
ATOM      7  C   UNL     1       2.610   4.874  18.959  0.00  0.00    +0.000 C 
ATOM      8  C   UNL     1       2.996   5.205  20.427  0.00  0.00    +0.000 C 
ATOM      9  N   UNL     1       1.805   3.603  18.786  0.00  0.00    +0.000 N 
ATOM     10  C   UNL     1       1.165   3.591  17.438  0.00  0.00    +0.000 C 
ATOM     11  C   UNL     1       0.698   3.518  19.773  0.00  0.00    +0.000 C 
ATOM     12  C   UNL     1       2.682   2.419  18.961  0.00  0.00    +0.000 C 
ATOM     13  C   UNL     1       3.763   2.329  17.880  0.00  0.00    +0.000 C 
ENDROOT
BRANCH   1  15
ATOM     14  C   UNL     1       7.084   4.836  14.142  0.00  0.00    +0.000 C 
ATOM     15  O   UNL     1       7.182   4.878  15.518  0.00  0.00    +0.000 OA
ENDBRANCH   1  15
BRANCH   5  16
ATOM     16  O   UNL     1       4.020   7.235  18.342  0.00  0.00    +0.000 OA
ATOM     17  C   UNL     1       3.055   8.070  17.817  0.00  0.00    +0.000 C 
ENDBRANCH   5  16
BRANCH   6  18
ATOM     18  O   UNL     1       6.310   7.287  16.701  0.00  0.00    +0.000 OA
ATOM     19  C   UNL     1       7.380   7.870  17.346  0.00  0.00    +0.000 C 
ENDBRANCH   6  18
TORSDOF 3
ENDMDL
MODEL 5
REMARK VINA RESULT:      -5.5      3.440      6.270
REMARK  Name = 
REMARK  9 active torsions:
REMARK  status: ('A' for Active; 'I' for Inactive)
REMARK    1  A    between atoms: C_1  and  O_2
REMARK    2  A    between atoms: O_2  and  C_3
REMARK    3  A    between atoms: C_7  and  O_8
REMARK    4  A    between atoms: O_8  and  C_9
REMARK    5  A    between atoms: C_10  and  O_11
REMARK    6  A    between atoms: O_11  and  C_12
REMARK    7  A    between atoms: C_13  and  C_14
REMARK    8  A    between atoms: N_15  and  C_16
REMARK    9  A    between atoms: N_15  and  C_17
REMARK                            x       y       z     vdW  Elec       q    Type
REMARK                         _______ _______ _______ _____ _____    ______ ____
ROOT
ATOM      1  C   UNL     1       6.136   4.111  14.220  0.00  0.00    +0.000 A 
ATOM      2  C   UNL     1       5.021   3.636  14.927  0.00  0.00    +0.000 A 
ATOM      3  C   UNL     1       4.756   4.053  16.228  0.00  0.00    +0.000 A 
ATOM      4  C   UNL     1       5.589   5.009  16.848  0.00  0.00    +0.000 A 
ATOM      5  C   UNL     1       6.737   5.483  16.163  0.00  0.00    +0.000 A 
ATOM      6  C   UNL     1       7.025   5.020  14.846  0.00  0.00    +0.000 A 
ATOM      7  C   UNL     1       5.234   5.560  18.239  0.00  0.00    +0.000 C 
ATOM      8  C   UNL     1       6.267   5.019  19.266  0.00  0.00    +0.000 C 
ATOM      9  N   UNL     1       3.786   5.308  18.604  0.00  0.00    +0.000 N 
ATOM     10  C   UNL     1       2.900   6.189  17.787  0.00  0.00    +0.000 C 
ATOM     11  C   UNL     1       3.512   5.644  20.024  0.00  0.00    +0.000 C 
ATOM     12  C   UNL     1       3.450   3.880  18.386  0.00  0.00    +0.000 C 
ATOM     13  C   UNL     1       3.542   3.477  16.911  0.00  0.00    +0.000 C 
ENDROOT
BRANCH   1  15
ATOM     14  C   UNL     1       5.403   3.231  12.069  0.00  0.00    +0.000 C 
ATOM     15  O   UNL     1       6.357   3.721  12.939  0.00  0.00    +0.000 OA
ENDBRANCH   1  15
BRANCH   5  16
ATOM     16  O   UNL     1       7.509   6.409  16.808  0.00  0.00    +0.000 OA
ATOM     17  C   UNL     1       7.250   7.745  17.036  0.00  0.00    +0.000 C 
ENDBRANCH   5  16
BRANCH   6  18
ATOM     18  O   UNL     1       8.140   5.493  14.219  0.00  0.00    +0.000 OA
ATOM     19  C   UNL     1       8.330   5.781  12.884  0.00  0.00    +0.000 C 
ENDBRANCH   6  18
TORSDOF 3
ENDMDL
MODEL 6
REMARK VINA RESULT:      -5.1      1.788      4.319
REMARK  Name = 
REMARK  9 active torsions:
REMARK  status: ('A' for Active; 'I' for Inactive)
REMARK    1  A    between atoms: C_1  and  O_2
REMARK    2  A    between atoms: O_2  and  C_3
REMARK    3  A    between atoms: C_7  and  O_8
REMARK    4  A    between atoms: O_8  and  C_9
REMARK    5  A    between atoms: C_10  and  O_11
REMARK    6  A    between atoms: O_11  and  C_12
REMARK    7  A    between atoms: C_13  and  C_14
REMARK    8  A    between atoms: N_15  and  C_16
REMARK    9  A    between atoms: N_15  and  C_17
REMARK                            x       y       z     vdW  Elec       q    Type
REMARK                         _______ _______ _______ _____ _____    ______ ____
ROOT
ATOM      1  C   UNL     1       5.891   4.945  17.434  0.00  0.00    +0.000 A 
ATOM      2  C   UNL     1       5.719   3.870  18.320  0.00  0.00    +0.000 A 
ATOM      3  C   UNL     1       4.551   3.723  19.064  0.00  0.00    +0.000 A 
ATOM      4  C   UNL     1       3.489   4.638  18.901  0.00  0.00    +0.000 A 
ATOM      5  C   UNL     1       3.650   5.747  18.032  0.00  0.00    +0.000 A 
ATOM      6  C   UNL     1       4.865   5.914  17.305  0.00  0.00    +0.000 A 
ATOM      7  C   UNL     1       2.154   4.413  19.631  0.00  0.00    +0.000 C 
ATOM      8  C   UNL     1       2.001   5.501  20.730  0.00  0.00    +0.000 C 
ATOM      9  N   UNL     1       2.002   2.989  20.123  0.00  0.00    +0.000 N 
ATOM     10  C   UNL     1       1.774   2.077  18.963  0.00  0.00    +0.000 C 
ATOM     11  C   UNL     1       0.821   2.839  21.010  0.00  0.00    +0.000 C 
ATOM     12  C   UNL     1       3.212   2.582  20.879  0.00  0.00    +0.000 C 
ATOM     13  C   UNL     1       4.465   2.545  20.000  0.00  0.00    +0.000 C 
ENDROOT
BRANCH   1  15
ATOM     14  C   UNL     1       7.211   4.523  15.430  0.00  0.00    +0.000 C 
ATOM     15  O   UNL     1       7.022   5.051  16.691  0.00  0.00    +0.000 OA
ENDBRANCH   1  15
BRANCH   5  16
ATOM     16  O   UNL     1       2.590   6.601  17.909  0.00  0.00    +0.000 OA
ATOM     17  C   UNL     1       2.524   7.948  18.204  0.00  0.00    +0.000 C 
ENDBRANCH   5  16
BRANCH   6  18
ATOM     18  O   UNL     1       4.987   6.995  16.482  0.00  0.00    +0.000 OA
ATOM     19  C   UNL     1       4.812   7.071  15.115  0.00  0.00    +0.000 C 
ENDBRANCH   6  18
TORSDOF 3
ENDMDL
MODEL 7
REMARK VINA RESULT:      -5.0      2.563      5.128
REMARK  Name = 
REMARK  9 active torsions:
REMARK  status: ('A' for Active; 'I' for Inactive)
REMARK    1  A    between atoms: C_1  and  O_2
REMARK    2  A    between atoms: O_2  and  C_3
REMARK    3  A    between atoms: C_7  and  O_8
REMARK    4  A    between atoms: O_8  and  C_9
REMARK    5  A    between atoms: C_10  and  O_11
REMARK    6  A    between atoms: O_11  and  C_12
REMARK    7  A    between atoms: C_13  and  C_14
REMARK    8  A    between atoms: N_15  and  C_16
REMARK    9  A    between atoms: N_15  and  C_17
REMARK                            x       y       z     vdW  Elec       q    Type
REMARK                         _______ _______ _______ _____ _____    ______ ____
ROOT
ATOM      1  C   UNL     1       2.769   2.803  18.502  0.00  0.00    +0.000 A 
ATOM      2  C   UNL     1       3.751   2.788  17.500  0.00  0.00    +0.000 A 
ATOM      3  C   UNL     1       4.549   3.901  17.250  0.00  0.00    +0.000 A 
ATOM      4  C   UNL     1       4.412   5.062  18.041  0.00  0.00    +0.000 A 
ATOM      5  C   UNL     1       3.407   5.110  19.041  0.00  0.00    +0.000 A 
ATOM      6  C   UNL     1       2.566   3.981  19.264  0.00  0.00    +0.000 A 
ATOM      7  C   UNL     1       5.369   6.250  17.847  0.00  0.00    +0.000 C 
ATOM      8  C   UNL     1       4.575   7.429  17.218  0.00  0.00    +0.000 C 
ATOM      9  N   UNL     1       6.624   5.858  17.096  0.00  0.00    +0.000 N 
ATOM     10  C   UNL     1       7.493   5.018  17.971  0.00  0.00    +0.000 C 
ATOM     11  C   UNL     1       7.432   7.047  16.723  0.00  0.00    +0.000 C 
ATOM     12  C   UNL     1       6.264   5.127  15.856  0.00  0.00    +0.000 C 
ATOM     13  C   UNL     1       5.568   3.794  16.145  0.00  0.00    +0.000 C 
ENDROOT
BRANCH   1  15
ATOM     14  C   UNL     1       0.654   1.598  18.627  0.00  0.00    +0.000 C 
ATOM     15  O   UNL     1       2.026   1.696  18.755  0.00  0.00    +0.000 OA
ENDBRANCH   1  15
BRANCH   5  16
ATOM     16  O   UNL     1       3.318   6.257  19.781  0.00  0.00    +0.000 OA
ATOM     17  C   UNL     1       2.281   7.165  19.850  0.00  0.00    +0.000 C 
ENDBRANCH   5  16
BRANCH   6  18
ATOM     18  O   UNL     1       1.607   4.064  20.230  0.00  0.00    +0.000 OA
ATOM     19  C   UNL     1       1.640   3.603  21.529  0.00  0.00    +0.000 C 
ENDBRANCH   6  18
TORSDOF 3
ENDMDL
MODEL 8
REMARK VINA RESULT:      -4.8      6.268      8.578
REMARK  Name = 
REMARK  9 active torsions:
REMARK  status: ('A' for Active; 'I' for Inactive)
REMARK    1  A    between atoms: C_1  and  O_2
REMARK    2  A    between atoms: O_2  and  C_3
REMARK    3  A    between atoms: C_7  and  O_8
REMARK    4  A    between atoms: O_8  and  C_9
REMARK    5  A    between atoms: C_10  and  O_11
REMARK    6  A    between atoms: O_11  and  C_12
REMARK    7  A    between atoms: C_13  and  C_14
REMARK    8  A    between atoms: N_15  and  C_16
REMARK    9  A    between atoms: N_15  and  C_17
REMARK                            x       y       z     vdW  Elec       q    Type
REMARK                         _______ _______ _______ _____ _____    ______ ____
ROOT
ATOM      1  C   UNL     1      -3.269  10.549  16.662  0.00  0.00    +0.000 A 
ATOM      2  C   UNL     1      -1.981  10.036  16.872  0.00  0.00    +0.000 A 
ATOM      3  C   UNL     1      -1.220  10.413  17.975  0.00  0.00    +0.000 A 
ATOM      4  C   UNL     1      -1.759  11.294  18.938  0.00  0.00    +0.000 A 
ATOM      5  C   UNL     1      -3.049  11.847  18.733  0.00  0.00    +0.000 A 
ATOM      6  C   UNL     1      -3.805  11.488  17.578  0.00  0.00    +0.000 A 
ATOM      7  C   UNL     1      -0.970  11.621  20.217  0.00  0.00    +0.000 C 
ATOM      8  C   UNL     1      -0.499  13.100  20.144  0.00  0.00    +0.000 C 
ATOM      9  N   UNL     1       0.132  10.617  20.483  0.00  0.00    +0.000 N 
ATOM     10  C   UNL     1      -0.464   9.319  20.919  0.00  0.00    +0.000 C 
ATOM     11  C   UNL     1       1.020  11.060  21.587  0.00  0.00    +0.000 C 
ATOM     12  C   UNL     1       0.955  10.432  19.262  0.00  0.00    +0.000 C 
ATOM     13  C   UNL     1       0.158   9.818  18.108  0.00  0.00    +0.000 C 
ENDROOT
BRANCH   1  15
ATOM     14  C   UNL     1      -3.586  10.112  14.285  0.00  0.00    +0.000 C 
ATOM     15  O   UNL     1      -4.009  10.142  15.599  0.00  0.00    +0.000 OA
ENDBRANCH   1  15
BRANCH   5  16
ATOM     16  O   UNL     1      -3.525  12.693  19.696  0.00  0.00    +0.000 OA
ATOM     17  C   UNL     1      -4.361  12.415  20.757  0.00  0.00    +0.000 C 
ENDBRANCH   5  16
BRANCH   6  18
ATOM     18  O   UNL     1      -5.039  12.044  17.411  0.00  0.00    +0.000 OA
ATOM     19  C   UNL     1      -6.272  11.553  17.790  0.00  0.00    +0.000 C 
ENDBRANCH   6  18
TORSDOF 3
ENDMDL
MODEL 9
REMARK VINA RESULT:      -4.8      2.070      4.054
REMARK  Name = 
REMARK  9 active torsions:
REMARK  status: ('A' for Active; 'I' for Inactive)
REMARK    1  A    between atoms: C_1  and  O_2
REMARK    2  A    between atoms: O_2  and  C_3
REMARK    3  A    between atoms: C_7  and  O_8
REMARK    4  A    between atoms: O_8  and  C_9
REMARK    5  A    between atoms: C_10  and  O_11
REMARK    6  A    between atoms: O_11  and  C_12
REMARK    7  A    between atoms: C_13  and  C_14
REMARK    8  A    between atoms: N_15  and  C_16
REMARK    9  A    between atoms: N_15  and  C_17
REMARK                            x       y       z     vdW  Elec       q    Type
REMARK                         _______ _______ _______ _____ _____    ______ ____
ROOT
ATOM      1  C   UNL     1       2.132   8.054  18.453  0.00  0.00    +0.000 A 
ATOM      2  C   UNL     1       3.059   8.055  17.400  0.00  0.00    +0.000 A 
ATOM      3  C   UNL     1       4.093   7.125  17.342  0.00  0.00    +0.000 A 
ATOM      4  C   UNL     1       4.198   6.123  18.331  0.00  0.00    +0.000 A 
ATOM      5  C   UNL     1       3.289   6.118  19.420  0.00  0.00    +0.000 A 
ATOM      6  C   UNL     1       2.258   7.101  19.494  0.00  0.00    +0.000 A 
ATOM      7  C   UNL     1       5.266   5.023  18.208  0.00  0.00    +0.000 C 
ATOM      8  C   UNL     1       6.337   5.246  19.311  0.00  0.00    +0.000 C 
ATOM      9  N   UNL     1       5.816   4.912  16.802  0.00  0.00    +0.000 N 
ATOM     10  C   UNL     1       4.785   4.317  15.902  0.00  0.00    +0.000 C 
ATOM     11  C   UNL     1       6.992   4.007  16.744  0.00  0.00    +0.000 C 
ATOM     12  C   UNL     1       6.230   6.251  16.313  0.00  0.00    +0.000 C 
ATOM     13  C   UNL     1       5.047   7.214  16.179  0.00  0.00    +0.000 C 
ENDROOT
BRANCH   1  15
ATOM     14  C   UNL     1       1.239  10.320  18.535  0.00  0.00    +0.000 C 
ATOM     15  O   UNL     1       1.110   8.947  18.472  0.00  0.00    +0.000 OA
ENDBRANCH   1  15
BRANCH   5  16
ATOM     16  O   UNL     1       3.434   5.125  20.348  0.00  0.00    +0.000 OA
ATOM     17  C   UNL     1       2.729   3.946  20.473  0.00  0.00    +0.000 C 
ENDBRANCH   5  16
BRANCH   6  18
ATOM     18  O   UNL     1       1.406   7.069  20.558  0.00  0.00    +0.000 OA
ATOM     19  C   UNL     1       1.178   8.033  21.517  0.00  0.00    +0.000 C 
ENDBRANCH   6  18
TORSDOF 3
ENDMDL
