MODEL 1
REMARK VINA RESULT:      -7.7      0.000      0.000
REMARK  Name = 
REMARK  7 active torsions:
REMARK  status: ('A' for Active; 'I' for Inactive)
REMARK    1  A    between atoms: C_1  and  O_2
REMARK    2  A    between atoms: O_2  and  C_3
REMARK    3  A    between atoms: C_6  and  C_7
REMARK    4  A    between atoms: C_7  and  N_8
REMARK    5  A    between atoms: N_8  and  C_9
REMARK    6  A    between atoms: C_11  and  C_12
REMARK    7  A    between atoms: N_19  and  C_20
REMARK                            x       y       z     vdW  Elec       q    Type
REMARK                         _______ _______ _______ _____ _____    ______ ____
ROOT
ATOM      1  C   UNL     1       2.878   4.891  18.331  0.00  0.00    +0.000 A 
ATOM      2  N   UNL     1       2.688   3.942  19.285  0.00  0.00    +0.000 NA
ATOM      3  C   UNL     1       2.231   4.320  20.507  0.00  0.00    +0.000 A 
ATOM      4  N   UNL     1       1.898   5.562  20.928  0.00  0.00    +0.000 NA
ATOM      5  C   UNL     1       2.095   6.468  19.956  0.00  0.00    +0.000 A 
ATOM      6  C   UNL     1       2.572   6.227  18.675  0.00  0.00    +0.000 A 
ATOM      7  N   UNL     1       2.641   7.399  17.954  0.00  0.00    +0.000 NA
ATOM      8  C   UNL     1       2.219   8.331  18.779  0.00  0.00    +0.000 A 
ATOM      9  N   UNL     1       1.863   7.820  20.002  0.00  0.00    +0.000 N 
ENDROOT
BRANCH   9  10
ATOM     10  C   UNL     1       1.316   8.565  21.118  0.00  0.00    +0.000 C 
ATOM     11  C   UNL     1       1.003  10.030  20.810  0.00  0.00    +0.000 C 
ATOM     12  C   UNL     1       0.056  10.453  21.926  0.00  0.00    +0.000 C 
ATOM     13  C   UNL     1      -0.685   9.189  22.356  0.00  0.00    +0.000 C 
ATOM     14  C   UNL     1      -0.022   8.021  21.630  0.00  0.00    +0.000 C 
ENDBRANCH   9  10
BRANCH   1  15
ATOM     15  N   UNL     1       3.376   4.553  17.068  0.00  0.00    +0.000 N 
ATOM     16  H   UNL     1       2.669   4.056  16.528  0.00  0.00    +0.000 HD
BRANCH  15  17
ATOM     17  C   UNL     1       4.702   3.960  17.034  0.00  0.00    +0.000 C 
BRANCH  17  21
ATOM     18  C   UNL     1       7.658   6.893  18.281  0.00  0.00    +0.000 A 
ATOM     19  C   UNL     1       6.950   7.058  17.090  0.00  0.00    +0.000 A 
ATOM     20  C   UNL     1       5.997   6.116  16.689  0.00  0.00    +0.000 A 
ATOM     21  C   UNL     1       5.754   4.970  17.459  0.00  0.00    +0.000 A 
ATOM     22  C   UNL     1       6.476   4.807  18.652  0.00  0.00    +0.000 A 
ATOM     23  C   UNL     1       7.421   5.759  19.060  0.00  0.00    +0.000 A 
BRANCH  18  25
ATOM     24  C   UNL     1       8.264   9.171  18.071  0.00  0.00    +0.000 C 
ATOM     25  O   UNL     1       8.574   7.870  18.561  0.00  0.00    +0.000 OA
ENDBRANCH  18  25
ENDBRANCH  17  21
ENDBRANCH  15  17
ENDBRANCH   1  15
BRANCH   3  26
ATOM     26  C   UNL     1       2.074   3.263  21.476  0.00  0.00    +0.000 C 
ATOM     27  N   UNL     1       1.954   2.404  22.249  0.00  0.00    +0.000 NA
ENDBRANCH   3  26
TORSDOF 6
ENDMDL
MODEL 2
REMARK VINA RESULT:      -7.5      3.917      6.164
REMARK  Name = 
REMARK  7 active torsions:
REMARK  status: ('A' for Active; 'I' for Inactive)
REMARK    1  A    between atoms: C_1  and  O_2
REMARK    2  A    between atoms: O_2  and  C_3
REMARK    3  A    between atoms: C_6  and  C_7
REMARK    4  A    between atoms: C_7  and  N_8
REMARK    5  A    between atoms: N_8  and  C_9
REMARK    6  A    between atoms: C_11  and  C_12
REMARK    7  A    between atoms: N_19  and  C_20
REMARK                            x       y       z     vdW  Elec       q    Type
REMARK                         _______ _______ _______ _____ _____    ______ ____
ROOT
ATOM      1  C   UNL     1       7.079   6.257  16.866  0.00  0.00    +0.000 A 
ATOM      2  N   UNL     1       7.137   5.748  15.607  0.00  0.00    +0.000 NA
ATOM      3  C   UNL     1       6.351   4.688  15.290  0.00  0.00    +0.000 A 
ATOM      4  N   UNL     1       5.455   4.045  16.075  0.00  0.00    +0.000 NA
ATOM      5  C   UNL     1       5.424   4.581  17.306  0.00  0.00    +0.000 A 
ATOM      6  C   UNL     1       6.182   5.647  17.771  0.00  0.00    +0.000 A 
ATOM      7  N   UNL     1       5.881   5.920  19.088  0.00  0.00    +0.000 NA
ATOM      8  C   UNL     1       4.963   5.037  19.416  0.00  0.00    +0.000 A 
ATOM      9  N   UNL     1       4.640   4.209  18.370  0.00  0.00    +0.000 N 
ENDROOT
BRANCH   9  10
ATOM     10  C   UNL     1       3.638   3.163  18.380  0.00  0.00    +0.000 C 
ATOM     11  C   UNL     1       3.271   2.650  19.774  0.00  0.00    +0.000 C 
ATOM     12  C   UNL     1       1.940   1.937  19.570  0.00  0.00    +0.000 C 
ATOM     13  C   UNL     1       1.264   2.626  18.388  0.00  0.00    +0.000 C 
ATOM     14  C   UNL     1       2.288   3.591  17.797  0.00  0.00    +0.000 C 
ENDBRANCH   9  10
BRANCH   1  15
ATOM     15  N   UNL     1       7.892   7.330  17.247  0.00  0.00    +0.000 N 
ATOM     16  H   UNL     1       8.531   7.048  17.988  0.00  0.00    +0.000 HD
BRANCH  15  17
ATOM     17  C   UNL     1       7.223   8.602  17.464  0.00  0.00    +0.000 C 
BRANCH  17  21
ATOM     18  C   UNL     1       9.938  11.582  19.089  0.00  0.00    +0.000 A 
ATOM     19  C   UNL     1       9.152  11.869  17.973  0.00  0.00    +0.000 A 
ATOM     20  C   UNL     1       8.276  10.911  17.451  0.00  0.00    +0.000 A 
ATOM     21  C   UNL     1       8.191   9.632  18.018  0.00  0.00    +0.000 A 
ATOM     22  C   UNL     1       8.991   9.349  19.136  0.00  0.00    +0.000 A 
ATOM     23  C   UNL     1       9.858  10.313  19.667  0.00  0.00    +0.000 A 
BRANCH  18  25
ATOM     24  C   UNL     1      10.382  13.907  19.114  0.00  0.00    +0.000 C 
ATOM     25  O   UNL     1      10.766  12.590  19.500  0.00  0.00    +0.000 OA
ENDBRANCH  18  25
ENDBRANCH  17  21
ENDBRANCH  15  17
ENDBRANCH   1  15
BRANCH   3  26
ATOM     26  C   UNL     1       6.481   4.187  13.943  0.00  0.00    +0.000 C 
ATOM     27  N   UNL     1       6.576   3.778  12.860  0.00  0.00    +0.000 NA
ENDBRANCH   3  26
TORSDOF 6
ENDMDL
MODEL 3
REMARK VINA RESULT:      -7.5      2.992      7.681
REMARK  Name = 
REMARK  7 active torsions:
REMARK  status: ('A' for Active; 'I' for Inactive)
REMARK    1  A    between atoms: C_1  and  O_2
REMARK    2  A    between atoms: O_2  and  C_3
REMARK    3  A    between atoms: C_6  and  C_7
REMARK    4  A    between atoms: C_7  and  N_8
REMARK    5  A    between atoms: N_8  and  C_9
REMARK    6  A    between atoms: C_11  and  C_12
REMARK    7  A    between atoms: N_19  and  C_20
REMARK                            x       y       z     vdW  Elec       q    Type
REMARK                         _______ _______ _______ _____ _____    ______ ____
ROOT
ATOM      1  C   UNL     1       1.929   7.136  20.045  0.00  0.00    +0.000 A 
ATOM      2  N   UNL     1       1.767   6.042  20.835  0.00  0.00    +0.000 NA
ATOM      3  C   UNL     1       2.429   4.899  20.520  0.00  0.00    +0.000 A 
ATOM      4  N   UNL     1       3.290   4.685  19.497  0.00  0.00    +0.000 NA
ATOM      5  C   UNL     1       3.426   5.790  18.746  0.00  0.00    +0.000 A 
ATOM      6  C   UNL     1       2.798   7.013  18.939  0.00  0.00    +0.000 A 
ATOM      7  N   UNL     1       3.182   7.914  17.969  0.00  0.00    +0.000 NA
ATOM      8  C   UNL     1       4.020   7.252  17.202  0.00  0.00    +0.000 A 
ATOM      9  N   UNL     1       4.214   5.963  17.635  0.00  0.00    +0.000 N 
ENDROOT
BRANCH   9  10
ATOM     10  C   UNL     1       5.107   4.985  17.048  0.00  0.00    +0.000 C 
ATOM     11  C   UNL     1       5.363   5.178  15.552  0.00  0.00    +0.000 C 
ATOM     12  C   UNL     1       6.624   4.367  15.282  0.00  0.00    +0.000 C 
ATOM     13  C   UNL     1       7.414   4.361  16.588  0.00  0.00    +0.000 C 
ATOM     14  C   UNL     1       6.516   4.992  17.649  0.00  0.00    +0.000 C 
ENDBRANCH   9  10
BRANCH   1  15
ATOM     15  N   UNL     1       1.243   8.325  20.314  0.00  0.00    +0.000 N 
ATOM     16  H   UNL     1       1.690   9.109  19.840  0.00  0.00    +0.000 HD
BRANCH  15  17
ATOM     17  C   UNL     1       0.891   8.568  21.702  0.00  0.00    +0.000 C 
BRANCH  17  21
ATOM     18  C   UNL     1      -1.749  12.003  22.061  0.00  0.00    +0.000 A 
ATOM     19  C   UNL     1      -1.448  11.217  23.174  0.00  0.00    +0.000 A 
ATOM     20  C   UNL     1      -0.597  10.112  23.060  0.00  0.00    +0.000 A 
ATOM     21  C   UNL     1      -0.052   9.752  21.820  0.00  0.00    +0.000 A 
ATOM     22  C   UNL     1      -0.365  10.543  20.704  0.00  0.00    +0.000 A 
ATOM     23  C   UNL     1      -1.207  11.658  20.821  0.00  0.00    +0.000 A 
BRANCH  18  25
ATOM     24  C   UNL     1      -3.984  12.779  22.068  0.00  0.00    +0.000 C 
ATOM     25  O   UNL     1      -2.603  13.046  22.292  0.00  0.00    +0.000 OA
ENDBRANCH  18  25
ENDBRANCH  17  21
ENDBRANCH  15  17
ENDBRANCH   1  15
BRANCH   3  26
ATOM     26  C   UNL     1       2.192   3.772  21.390  0.00  0.00    +0.000 C 
ATOM     27  N   UNL     1       2.010   2.859  22.084  0.00  0.00    +0.000 NA
ENDBRANCH   3  26
TORSDOF 6
ENDMDL
MODEL 4
REMARK VINA RESULT:      -7.4      0.842      1.130
REMARK  Name = 
REMARK  7 active torsions:
REMARK  status: ('A' for Active; 'I' for Inactive)
REMARK    1  A    between atoms: C_1  and  O_2
REMARK    2  A    between atoms: O_2  and  C_3
REMARK    3  A    between atoms: C_6  and  C_7
REMARK    4  A    between atoms: C_7  and  N_8
REMARK    5  A    between atoms: N_8  and  C_9
REMARK    6  A    between atoms: C_11  and  C_12
REMARK    7  A    between atoms: N_19  and  C_20
REMARK                            x       y       z     vdW  Elec       q    Type
REMARK                         _______ _______ _______ _____ _____    ______ ____
ROOT
ATOM      1  C   UNL     1       3.501   4.977  18.577  0.00  0.00    +0.000 A 
ATOM      2  N   UNL     1       3.146   4.032  19.487  0.00  0.00    +0.000 NA
ATOM      3  C   UNL     1       2.307   4.375  20.497  0.00  0.00    +0.000 A 
ATOM      4  N   UNL     1       1.722   5.574  20.730  0.00  0.00    +0.000 NA
ATOM      5  C   UNL     1       2.095   6.476  19.808  0.00  0.00    +0.000 A 
ATOM      6  C   UNL     1       2.956   6.270  18.739  0.00  0.00    +0.000 A 
ATOM      7  N   UNL     1       3.102   7.426  18.003  0.00  0.00    +0.000 NA
ATOM      8  C   UNL     1       2.349   8.314  18.613  0.00  0.00    +0.000 A 
ATOM      9  N   UNL     1       1.706   7.788  19.706  0.00  0.00    +0.000 N 
ENDROOT
BRANCH   9  10
ATOM     10  C   UNL     1       0.770   8.482  20.568  0.00  0.00    +0.000 C 
ATOM     11  C   UNL     1       1.333   8.863  21.938  0.00  0.00    +0.000 C 
ATOM     12  C   UNL     1       0.377   9.933  22.450  0.00  0.00    +0.000 C 
ATOM     13  C   UNL     1      -0.191  10.623  21.213  0.00  0.00    +0.000 C 
ATOM     14  C   UNL     1       0.284   9.821  20.004  0.00  0.00    +0.000 C 
ENDBRANCH   9  10
BRANCH   1  15
ATOM     15  N   UNL     1       4.387   4.677  17.536  0.00  0.00    +0.000 N 
ATOM     16  H   UNL     1       3.979   3.986  16.909  0.00  0.00    +0.000 HD
BRANCH  15  17
ATOM     17  C   UNL     1       5.766   4.422  17.917  0.00  0.00    +0.000 C 
BRANCH  17  21
ATOM     18  C   UNL     1       8.014   8.142  17.978  0.00  0.00    +0.000 A 
ATOM     19  C   UNL     1       6.991   7.943  17.050  0.00  0.00    +0.000 A 
ATOM     20  C   UNL     1       6.266   6.747  17.031  0.00  0.00    +0.000 A 
ATOM     21  C   UNL     1       6.570   5.710  17.923  0.00  0.00    +0.000 A 
ATOM     22  C   UNL     1       7.606   5.914  18.848  0.00  0.00    +0.000 A 
ATOM     23  C   UNL     1       8.323   7.118  18.876  0.00  0.00    +0.000 A 
BRANCH  18  25
ATOM     24  C   UNL     1       9.096   9.907  19.125  0.00  0.00    +0.000 C 
ATOM     25  O   UNL     1       8.663   9.343  17.891  0.00  0.00    +0.000 OA
ENDBRANCH  18  25
ENDBRANCH  17  21
ENDBRANCH  15  17
ENDBRANCH   1  15
BRANCH   3  26
ATOM     26  C   UNL     1       1.990   3.327  21.438  0.00  0.00    +0.000 C 
ATOM     27  N   UNL     1       1.730   2.478  22.187  0.00  0.00    +0.000 NA
ENDBRANCH   3  26
TORSDOF 6
ENDMDL
MODEL 5
REMARK VINA RESULT:      -7.4      3.944      6.429
REMARK  Name = 
REMARK  7 active torsions:
REMARK  status: ('A' for Active; 'I' for Inactive)
REMARK    1  A    between atoms: C_1  and  O_2
REMARK    2  A    between atoms: O_2  and  C_3
REMARK    3  A    between atoms: C_6  and  C_7
REMARK    4  A    between atoms: C_7  and  N_8
REMARK    5  A    between atoms: N_8  and  C_9
REMARK    6  A    between atoms: C_11  and  C_12
REMARK    7  A    between atoms: N_19  and  C_20
REMARK                            x       y       z     vdW  Elec       q    Type
REMARK                         _______ _______ _______ _____ _____    ______ ____
ROOT
ATOM      1  C   UNL     1       7.251   6.512  17.443  0.00  0.00    +0.000 A 
ATOM      2  N   UNL     1       7.408   6.164  16.138  0.00  0.00    +0.000 NA
ATOM      3  C   UNL     1       6.670   5.141  15.637  0.00  0.00    +0.000 A 
ATOM      4  N   UNL     1       5.735   4.394  16.270  0.00  0.00    +0.000 NA
ATOM      5  C   UNL     1       5.607   4.772  17.552  0.00  0.00    +0.000 A 
ATOM      6  C   UNL     1       6.306   5.782  18.199  0.00  0.00    +0.000 A 
ATOM      7  N   UNL     1       5.907   5.885  19.513  0.00  0.00    +0.000 NA
ATOM      8  C   UNL     1       4.988   4.956  19.663  0.00  0.00    +0.000 A 
ATOM      9  N   UNL     1       4.758   4.260  18.502  0.00  0.00    +0.000 N 
ENDROOT
BRANCH   9  10
ATOM     10  C   UNL     1       3.782   3.207  18.311  0.00  0.00    +0.000 C 
ATOM     11  C   UNL     1       3.391   2.465  19.590  0.00  0.00    +0.000 C 
ATOM     12  C   UNL     1       2.084   1.769  19.233  0.00  0.00    +0.000 C 
ATOM     13  C   UNL     1       1.421   2.631  18.162  0.00  0.00    +0.000 C 
ATOM     14  C   UNL     1       2.437   3.701  17.767  0.00  0.00    +0.000 C 
ENDBRANCH   9  10
BRANCH   1  15
ATOM     15  N   UNL     1       8.011   7.540  18.011  0.00  0.00    +0.000 N 
ATOM     16  H   UNL     1       7.979   7.487  19.028  0.00  0.00    +0.000 HD
BRANCH  15  17
ATOM     17  C   UNL     1       7.814   8.869  17.458  0.00  0.00    +0.000 C 
BRANCH  17  21
ATOM     18  C   UNL     1      10.058  11.806  19.746  0.00  0.00    +0.000 A 
ATOM     19  C   UNL     1       9.763  10.555  20.289  0.00  0.00    +0.000 A 
ATOM     20  C   UNL     1       9.042   9.609  19.552  0.00  0.00    +0.000 A 
ATOM     21  C   UNL     1       8.575   9.906  18.265  0.00  0.00    +0.000 A 
ATOM     22  C   UNL     1       8.869  11.170  17.729  0.00  0.00    +0.000 A 
ATOM     23  C   UNL     1       9.603  12.113  18.461  0.00  0.00    +0.000 A 
BRANCH  18  25
ATOM     24  C   UNL     1      10.808  14.015  20.148  0.00  0.00    +0.000 C 
ATOM     25  O   UNL     1      10.754  12.653  20.564  0.00  0.00    +0.000 OA
ENDBRANCH  18  25
ENDBRANCH  17  21
ENDBRANCH  15  17
ENDBRANCH   1  15
BRANCH   3  26
ATOM     26  C   UNL     1       6.906   4.813  14.251  0.00  0.00    +0.000 C 
ATOM     27  N   UNL     1       7.085   4.546  13.135  0.00  0.00    +0.000 NA
ENDBRANCH   3  26
TORSDOF 6
ENDMDL
MODEL 6
REMARK VINA RESULT:      -7.3      2.922      7.594
REMARK  Name = 
REMARK  7 active torsions:
REMARK  status: ('A' for Active; 'I' for Inactive)
REMARK    1  A    between atoms: C_1  and  O_2
REMARK    2  A    between atoms: O_2  and  C_3
REMARK    3  A    between atoms: C_6  and  C_7
REMARK    4  A    between atoms: C_7  and  N_8
REMARK    5  A    between atoms: N_8  and  C_9
REMARK    6  A    between atoms: C_11  and  C_12
REMARK    7  A    between atoms: N_19  and  C_20
REMARK                            x       y       z     vdW  Elec       q    Type
REMARK                         _______ _______ _______ _____ _____    ______ ____
ROOT
ATOM      1  C   UNL     1       1.901   7.009  20.078  0.00  0.00    +0.000 A 
ATOM      2  N   UNL     1       1.756   5.894  20.842  0.00  0.00    +0.000 NA
ATOM      3  C   UNL     1       2.481   4.788  20.535  0.00  0.00    +0.000 A 
ATOM      4  N   UNL     1       3.391   4.631  19.545  0.00  0.00    +0.000 NA
ATOM      5  C   UNL     1       3.508   5.754  18.818  0.00  0.00    +0.000 A 
ATOM      6  C   UNL     1       2.819   6.945  19.006  0.00  0.00    +0.000 A 
ATOM      7  N   UNL     1       3.201   7.879  18.068  0.00  0.00    +0.000 NA
ATOM      8  C   UNL     1       4.098   7.269  17.325  0.00  0.00    +0.000 A 
ATOM      9  N   UNL     1       4.331   5.983  17.744  0.00  0.00    +0.000 N 
ENDROOT
BRANCH   9  10
ATOM     10  C   UNL     1       5.289   5.055  17.177  0.00  0.00    +0.000 C 
ATOM     11  C   UNL     1       4.735   4.182  16.050  0.00  0.00    +0.000 C 
ATOM     12  C   UNL     1       5.977   3.659  15.339  0.00  0.00    +0.000 C 
ATOM     13  C   UNL     1       7.060   4.714  15.543  0.00  0.00    +0.000 C 
ATOM     14  C   UNL     1       6.501   5.734  16.531  0.00  0.00    +0.000 C 
ENDBRANCH   9  10
BRANCH   1  15
ATOM     15  N   UNL     1       1.153   8.162  20.338  0.00  0.00    +0.000 N 
ATOM     16  H   UNL     1       1.260   8.835  19.581  0.00  0.00    +0.000 HD
BRANCH  15  17
ATOM     17  C   UNL     1       1.271   8.719  21.675  0.00  0.00    +0.000 C 
BRANCH  17  21
ATOM     18  C   UNL     1      -1.586  11.954  22.194  0.00  0.00    +0.000 A 
ATOM     19  C   UNL     1      -0.811  11.867  21.037  0.00  0.00    +0.000 A 
ATOM     20  C   UNL     1       0.107  10.825  20.868  0.00  0.00    +0.000 A 
ATOM     21  C   UNL     1       0.291   9.863  21.870  0.00  0.00    +0.000 A 
ATOM     22  C   UNL     1      -0.486   9.961  23.035  0.00  0.00    +0.000 A 
ATOM     23  C   UNL     1      -1.416  10.998  23.197  0.00  0.00    +0.000 A 
BRANCH  18  25
ATOM     24  C   UNL     1      -3.266  13.095  23.409  0.00  0.00    +0.000 C 
ATOM     25  O   UNL     1      -2.437  13.023  22.253  0.00  0.00    +0.000 OA
ENDBRANCH  18  25
ENDBRANCH  17  21
ENDBRANCH  15  17
ENDBRANCH   1  15
BRANCH   3  26
ATOM     26  C   UNL     1       2.260   3.635  21.376  0.00  0.00    +0.000 C 
ATOM     27  N   UNL     1       2.070   2.709  22.050  0.00  0.00    +0.000 NA
ENDBRANCH   3  26
TORSDOF 6
ENDMDL
MODEL 7
REMARK VINA RESULT:      -7.3      0.884      1.458
REMARK  Name = 
REMARK  7 active torsions:
REMARK  status: ('A' for Active; 'I' for Inactive)
REMARK    1  A    between atoms: C_1  and  O_2
REMARK    2  A    between atoms: O_2  and  C_3
REMARK    3  A    between atoms: C_6  and  C_7
REMARK    4  A    between atoms: C_7  and  N_8
REMARK    5  A    between atoms: N_8  and  C_9
REMARK    6  A    between atoms: C_11  and  C_12
REMARK    7  A    between atoms: N_19  and  C_20
REMARK                            x       y       z     vdW  Elec       q    Type
REMARK                         _______ _______ _______ _____ _____    ______ ____
ROOT
ATOM      1  C   UNL     1       3.651   5.008  18.184  0.00  0.00    +0.000 A 
ATOM      2  N   UNL     1       3.424   4.083  19.154  0.00  0.00    +0.000 NA
ATOM      3  C   UNL     1       2.689   4.435  20.240  0.00  0.00    +0.000 A 
ATOM      4  N   UNL     1       2.099   5.625  20.502  0.00  0.00    +0.000 NA
ATOM      5  C   UNL     1       2.343   6.508  19.520  0.00  0.00    +0.000 A 
ATOM      6  C   UNL     1       3.089   6.291  18.369  0.00  0.00    +0.000 A 
ATOM      7  N   UNL     1       3.121   7.427  17.590  0.00  0.00    +0.000 NA
ATOM      8  C   UNL     1       2.413   8.315  18.254  0.00  0.00    +0.000 A 
ATOM      9  N   UNL     1       1.908   7.806  19.425  0.00  0.00    +0.000 N 
ENDROOT
BRANCH   9  10
ATOM     10  C   UNL     1       1.052   8.501  20.365  0.00  0.00    +0.000 C 
ATOM     11  C   UNL     1       1.629   8.627  21.775  0.00  0.00    +0.000 C 
ATOM     12  C   UNL     1       0.810   9.740  22.416  0.00  0.00    +0.000 C 
ATOM     13  C   UNL     1       0.364  10.651  21.276  0.00  0.00    +0.000 C 
ATOM     14  C   UNL     1       0.756   9.953  19.976  0.00  0.00    +0.000 C 
ENDBRANCH   9  10
BRANCH   1  15
ATOM     15  N   UNL     1       4.427   4.700  17.062  0.00  0.00    +0.000 N 
ATOM     16  H   UNL     1       3.923   4.065  16.444  0.00  0.00    +0.000 HD
BRANCH  15  17
ATOM     17  C   UNL     1       5.812   4.340  17.315  0.00  0.00    +0.000 C 
BRANCH  17  21
ATOM     18  C   UNL     1       8.194   7.808  18.409  0.00  0.00    +0.000 A 
ATOM     19  C   UNL     1       8.184   6.668  19.214  0.00  0.00    +0.000 A 
ATOM     20  C   UNL     1       7.419   5.551  18.861  0.00  0.00    +0.000 A 
ATOM     21  C   UNL     1       6.622   5.562  17.708  0.00  0.00    +0.000 A 
ATOM     22  C   UNL     1       6.632   6.715  16.907  0.00  0.00    +0.000 A 
ATOM     23  C   UNL     1       7.409   7.829  17.254  0.00  0.00    +0.000 A 
BRANCH  18  25
ATOM     24  C   UNL     1       8.717  10.112  18.267  0.00  0.00    +0.000 C 
ATOM     25  O   UNL     1       8.966   8.842  18.862  0.00  0.00    +0.000 OA
ENDBRANCH  18  25
ENDBRANCH  17  21
ENDBRANCH  15  17
ENDBRANCH   1  15
BRANCH   3  26
ATOM     26  C   UNL     1       2.507   3.408  21.238  0.00  0.00    +0.000 C 
ATOM     27  N   UNL     1       2.361   2.590  22.049  0.00  0.00    +0.000 NA
ENDBRANCH   3  26
TORSDOF 6
ENDMDL
MODEL 8
REMARK VINA RESULT:      -7.2      3.380      5.898
REMARK  Name = 
REMARK  7 active torsions:
REMARK  status: ('A' for Active; 'I' for Inactive)
REMARK    1  A    between atoms: C_1  and  O_2
REMARK    2  A    between atoms: O_2  and  C_3
REMARK    3  A    between atoms: C_6  and  C_7
REMARK    4  A    between atoms: C_7  and  N_8
REMARK    5  A    between atoms: N_8  and  C_9
REMARK    6  A    between atoms: C_11  and  C_12
REMARK    7  A    between atoms: N_19  and  C_20
REMARK                            x       y       z     vdW  Elec       q    Type
REMARK                         _______ _______ _______ _____ _____    ______ ____
ROOT
ATOM      1  C   UNL     1       6.119   6.689  16.784  0.00  0.00    +0.000 A 
ATOM      2  N   UNL     1       6.343   6.024  15.620  0.00  0.00    +0.000 NA
ATOM      3  C   UNL     1       5.738   4.824  15.421  0.00  0.00    +0.000 A 
ATOM      4  N   UNL     1       4.884   4.171  16.243  0.00  0.00    +0.000 NA
ATOM      5  C   UNL     1       4.686   4.863  17.378  0.00  0.00    +0.000 A 
ATOM      6  C   UNL     1       5.251   6.084  17.719  0.00  0.00    +0.000 A 
ATOM      7  N   UNL     1       4.816   6.489  18.962  0.00  0.00    +0.000 NA
ATOM      8  C   UNL     1       4.008   5.535  19.368  0.00  0.00    +0.000 A 
ATOM      9  N   UNL     1       3.884   4.530  18.440  0.00  0.00    +0.000 N 
ENDROOT
BRANCH   9  10
ATOM     10  C   UNL     1       3.040   3.358  18.552  0.00  0.00    +0.000 C 
ATOM     11  C   UNL     1       2.821   2.867  19.984  0.00  0.00    +0.000 C 
ATOM     12  C   UNL     1       1.595   1.969  19.888  0.00  0.00    +0.000 C 
ATOM     13  C   UNL     1       0.767   2.502  18.721  0.00  0.00    +0.000 C 
ATOM     14  C   UNL     1       1.614   3.569  18.032  0.00  0.00    +0.000 C 
ENDBRANCH   9  10
BRANCH   1  15
ATOM     15  N   UNL     1       6.744   7.913  17.045  0.00  0.00    +0.000 N 
ATOM     16  H   UNL     1       6.829   8.460  16.189  0.00  0.00    +0.000 HD
BRANCH  15  17
ATOM     17  C   UNL     1       7.944   7.864  17.863  0.00  0.00    +0.000 C 
BRANCH  17  21
ATOM     18  C   UNL     1       9.327  11.859  18.875  0.00  0.00    +0.000 A 
ATOM     19  C   UNL     1       9.671  10.764  19.668  0.00  0.00    +0.000 A 
ATOM     20  C   UNL     1       9.228   9.478  19.342  0.00  0.00    +0.000 A 
ATOM     21  C   UNL     1       8.404   9.264  18.229  0.00  0.00    +0.000 A 
ATOM     22  C   UNL     1       8.055  10.372  17.440  0.00  0.00    +0.000 A 
ATOM     23  C   UNL     1       8.511  11.658  17.760  0.00  0.00    +0.000 A 
BRANCH  18  25
ATOM     24  C   UNL     1      10.425  13.877  18.306  0.00  0.00    +0.000 C 
ATOM     25  O   UNL     1       9.805  13.068  19.301  0.00  0.00    +0.000 OA
ENDBRANCH  18  25
ENDBRANCH  17  21
ENDBRANCH  15  17
ENDBRANCH   1  15
BRANCH   3  26
ATOM     26  C   UNL     1       6.039   4.166  14.173  0.00  0.00    +0.000 C 
ATOM     27  N   UNL     1       6.281   3.646  13.163  0.00  0.00    +0.000 NA
ENDBRANCH   3  26
TORSDOF 6
ENDMDL
MODEL 9
REMARK VINA RESULT:      -7.2      2.957      7.492
REMARK  Name = 
REMARK  7 active torsions:
REMARK  status: ('A' for Active; 'I' for Inactive)
REMARK    1  A    between atoms: C_1  and  O_2
REMARK    2  A    between atoms: O_2  and  C_3
REMARK    3  A    between atoms: C_6  and  C_7
REMARK    4  A    between atoms: C_7  and  N_8
REMARK    5  A    between atoms: N_8  and  C_9
REMARK    6  A    between atoms: C_11  and  C_12
REMARK    7  A    between atoms: N_19  and  C_20
REMARK                            x       y       z     vdW  Elec       q    Type
REMARK                         _______ _______ _______ _____ _____    ______ ____
ROOT
ATOM      1  C   UNL     1       2.684   6.178  19.149  0.00  0.00    +0.000 A 
ATOM      2  N   UNL     1       1.899   5.069  19.190  0.00  0.00    +0.000 NA
ATOM      3  C   UNL     1       2.157   4.048  18.332  0.00  0.00    +0.000 A 
ATOM      4  N   UNL     1       3.146   3.958  17.411  0.00  0.00    +0.000 NA
ATOM      5  C   UNL     1       3.900   5.069  17.407  0.00  0.00    +0.000 A 
ATOM      6  C   UNL     1       3.739   6.190  18.210  0.00  0.00    +0.000 A 
ATOM      7  N   UNL     1       4.702   7.134  17.924  0.00  0.00    +0.000 NA
ATOM      8  C   UNL     1       5.428   6.600  16.967  0.00  0.00    +0.000 A 
ATOM      9  N   UNL     1       4.994   5.344  16.624  0.00  0.00    +0.000 N 
ENDROOT
BRANCH   9  10
ATOM     10  C   UNL     1       5.597   4.464  15.643  0.00  0.00    +0.000 C 
ATOM     11  C   UNL     1       4.832   4.369  14.322  0.00  0.00    +0.000 C 
ATOM     12  C   UNL     1       5.849   3.796  13.343  0.00  0.00    +0.000 C 
ATOM     13  C   UNL     1       7.220   4.242  13.843  0.00  0.00    +0.000 C 
ATOM     14  C   UNL     1       7.000   4.894  15.206  0.00  0.00    +0.000 C 
ENDBRANCH   9  10
BRANCH   1  15
ATOM     15  N   UNL     1       2.437   7.266  19.993  0.00  0.00    +0.000 N 
ATOM     16  H   UNL     1       2.068   6.947  20.887  0.00  0.00    +0.000 HD
BRANCH  15  17
ATOM     17  C   UNL     1       1.733   8.392  19.404  0.00  0.00    +0.000 C 
BRANCH  17  21
ATOM     18  C   UNL     1      -0.536  10.539  22.427  0.00  0.00    +0.000 A 
ATOM     19  C   UNL     1       0.261   9.448  22.776  0.00  0.00    +0.000 A 
ATOM     20  C   UNL     1       0.993   8.758  21.804  0.00  0.00    +0.000 A 
ATOM     21  C   UNL     1       0.919   9.127  20.454  0.00  0.00    +0.000 A 
ATOM     22  C   UNL     1       0.109  10.220  20.110  0.00  0.00    +0.000 A 
ATOM     23  C   UNL     1      -0.614  10.920  21.086  0.00  0.00    +0.000 A 
BRANCH  18  25
ATOM     24  C   UNL     1      -2.231  12.053  23.087  0.00  0.00    +0.000 C 
ATOM     25  O   UNL     1      -1.217  11.124  23.459  0.00  0.00    +0.000 OA
ENDBRANCH  18  25
ENDBRANCH  17  21
ENDBRANCH  15  17
ENDBRANCH   1  15
BRANCH   3  26
ATOM     26  C   UNL     1       1.270   2.913  18.417  0.00  0.00    +0.000 C 
ATOM     27  N   UNL     1       0.548   2.006  18.482  0.00  0.00    +0.000 NA
ENDBRANCH   3  26
TORSDOF 6
ENDMDL
