MODEL 1
REMARK VINA RESULT:      -7.1      0.000      0.000
REMARK  Name = 
REMARK  8 active torsions:
REMARK  status: ('A' for Active; 'I' for Inactive)
REMARK    1  A    between atoms: C_1  and  O_2
REMARK    2  A    between atoms: O_2  and  C_3
REMARK    3  A    between atoms: N_5  and  C_6
REMARK    4  A    between atoms: C_8  and  C_9
REMARK    5  A    between atoms: N_11  and  C_12
REMARK    6  A    between atoms: C_12  and  C_13
REMARK    7  A    between atoms: N_15  and  C_16
REMARK    8  A    between atoms: C_16  and  C_17
REMARK                            x       y       z     vdW  Elec       q    Type
REMARK                         _______ _______ _______ _____ _____    ______ ____
ROOT
ATOM      1  C   UNL     1       4.345   3.473  17.580  0.00  0.00    +0.000 C 
ATOM      2  O   UNL     1       3.231   3.325  17.079  0.00  0.00    +0.000 OA
ATOM      3  N   UNL     1       4.595   3.165  18.893  0.00  0.00    +0.000 N 
ATOM      4  H   UNL     1       5.490   3.417  19.299  0.00  0.00    +0.000 HD
ENDROOT
BRANCH   1  10
ATOM      5  C   UNL     1       6.717   4.507  17.256  0.00  0.00    +0.000 A 
ATOM      6  N   UNL     1       7.512   4.883  16.254  0.00  0.00    +0.000 NA
ATOM      7  N   UNL     1       6.761   4.658  15.165  0.00  0.00    +0.000 N 
ATOM      8  C   UNL     1       7.265   5.024  13.864  0.00  0.00    +0.000 C 
ATOM      9  C   UNL     1       5.542   4.115  15.450  0.00  0.00    +0.000 A 
ATOM     10  C   UNL     1       5.475   3.989  16.828  0.00  0.00    +0.000 A 
BRANCH   5  12
ATOM     11  C   UNL     1       7.568   5.962  18.839  0.00  0.00    +0.000 C 
ATOM     12  O   UNL     1       7.142   4.634  18.533  0.00  0.00    +0.000 OA
ENDBRANCH   5  12
ENDBRANCH   1  10
BRANCH   3  13
ATOM     13  C   UNL     1       3.558   2.648  19.760  0.00  0.00    +0.000 C 
BRANCH  13  14
ATOM     14  C   UNL     1       2.471   3.693  20.010  0.00  0.00    +0.000 C 
ATOM     15  O   UNL     1       1.277   3.445  19.845  0.00  0.00    +0.000 OA
ATOM     16  N   UNL     1       2.937   4.902  20.476  0.00  0.00    +0.000 N 
ATOM     17  H   UNL     1       3.888   4.935  20.841  0.00  0.00    +0.000 HD
BRANCH  16  18
ATOM     18  C   UNL     1       2.039   5.996  20.772  0.00  0.00    +0.000 C 
BRANCH  18  19
ATOM     19  C   UNL     1       2.108   7.086  19.742  0.00  0.00    +0.000 A 
ATOM     20  C   UNL     1       2.797   6.916  18.538  0.00  0.00    +0.000 A 
ATOM     21  C   UNL     1       2.829   7.951  17.609  0.00  0.00    +0.000 A 
ATOM     22  C   UNL     1       2.172   9.131  17.917  0.00  0.00    +0.000 A 
ATOM     23  N   UNL     1       1.503   9.337  19.069  0.00  0.00    +0.000 NA
ATOM     24  C   UNL     1       1.490   8.314  19.958  0.00  0.00    +0.000 A 
ENDBRANCH  18  19
ENDBRANCH  16  18
ENDBRANCH  13  14
ENDBRANCH   3  13
TORSDOF 6
ENDMDL
MODEL 2
REMARK VINA RESULT:      -7.0      1.205      1.418
REMARK  Name = 
REMARK  8 active torsions:
REMARK  status: ('A' for Active; 'I' for Inactive)
REMARK    1  A    between atoms: C_1  and  O_2
REMARK    2  A    between atoms: O_2  and  C_3
REMARK    3  A    between atoms: N_5  and  C_6
REMARK    4  A    between atoms: C_8  and  C_9
REMARK    5  A    between atoms: N_11  and  C_12
REMARK    6  A    between atoms: C_12  and  C_13
REMARK    7  A    between atoms: N_15  and  C_16
REMARK    8  A    between atoms: C_16  and  C_17
REMARK                            x       y       z     vdW  Elec       q    Type
REMARK                         _______ _______ _______ _____ _____    ______ ____
ROOT
ATOM      1  C   UNL     1       5.549   4.136  18.089  0.00  0.00    +0.000 C 
ATOM      2  O   UNL     1       6.023   4.707  19.070  0.00  0.00    +0.000 OA
ATOM      3  N   UNL     1       4.647   3.110  18.215  0.00  0.00    +0.000 N 
ATOM      4  H   UNL     1       4.376   2.586  17.389  0.00  0.00    +0.000 HD
ENDROOT
BRANCH   1  10
ATOM      5  C   UNL     1       6.195   5.748  16.144  0.00  0.00    +0.000 A 
ATOM      6  N   UNL     1       6.493   5.675  14.846  0.00  0.00    +0.000 NA
ATOM      7  N   UNL     1       6.348   4.370  14.571  0.00  0.00    +0.000 N 
ATOM      8  C   UNL     1       6.515   3.906  13.215  0.00  0.00    +0.000 C 
ATOM      9  C   UNL     1       6.012   3.621  15.659  0.00  0.00    +0.000 A 
ATOM     10  C   UNL     1       5.908   4.496  16.729  0.00  0.00    +0.000 A 
BRANCH   5  12
ATOM     11  C   UNL     1       7.478   7.283  17.303  0.00  0.00    +0.000 C 
ATOM     12  O   UNL     1       6.199   6.948  16.767  0.00  0.00    +0.000 OA
ENDBRANCH   5  12
ENDBRANCH   1  10
BRANCH   3  13
ATOM     13  C   UNL     1       4.206   2.645  19.512  0.00  0.00    +0.000 C 
BRANCH  13  14
ATOM     14  C   UNL     1       2.970   3.410  19.986  0.00  0.00    +0.000 C 
ATOM     15  O   UNL     1       1.876   2.863  20.121  0.00  0.00    +0.000 OA
ATOM     16  N   UNL     1       3.201   4.733  20.292  0.00  0.00    +0.000 N 
ATOM     17  H   UNL     1       4.168   5.029  20.415  0.00  0.00    +0.000 HD
BRANCH  16  18
ATOM     18  C   UNL     1       2.142   5.596  20.764  0.00  0.00    +0.000 C 
BRANCH  18  19
ATOM     19  C   UNL     1       2.021   6.850  19.948  0.00  0.00    +0.000 A 
ATOM     20  C   UNL     1       2.496   6.921  18.636  0.00  0.00    +0.000 A 
ATOM     21  C   UNL     1       2.357   8.103  17.914  0.00  0.00    +0.000 A 
ATOM     22  C   UNL     1       1.748   9.182  18.532  0.00  0.00    +0.000 A 
ATOM     23  N   UNL     1       1.283   9.157  19.798  0.00  0.00    +0.000 NA
ATOM     24  C   UNL     1       1.435   7.996  20.479  0.00  0.00    +0.000 A 
ENDBRANCH  18  19
ENDBRANCH  16  18
ENDBRANCH  13  14
ENDBRANCH   3  13
TORSDOF 6
ENDMDL
MODEL 3
REMARK VINA RESULT:      -6.9      1.024      1.031
REMARK  Name = 
REMARK  8 active torsions:
REMARK  status: ('A' for Active; 'I' for Inactive)
REMARK    1  A    between atoms: C_1  and  O_2
REMARK    2  A    between atoms: O_2  and  C_3
REMARK    3  A    between atoms: N_5  and  C_6
REMARK    4  A    between atoms: C_8  and  C_9
REMARK    5  A    between atoms: N_11  and  C_12
REMARK    6  A    between atoms: C_12  and  C_13
REMARK    7  A    between atoms: N_15  and  C_16
REMARK    8  A    between atoms: C_16  and  C_17
REMARK                            x       y       z     vdW  Elec       q    Type
REMARK                         _______ _______ _______ _____ _____    ______ ____
ROOT
ATOM      1  C   UNL     1       4.906   3.619  18.663  0.00  0.00    +0.000 C 
ATOM      2  O   UNL     1       5.340   3.437  19.800  0.00  0.00    +0.000 OA
ATOM      3  N   UNL     1       3.584   3.424  18.353  0.00  0.00    +0.000 N 
ATOM      4  H   UNL     1       3.293   3.465  17.382  0.00  0.00    +0.000 HD
ENDROOT
BRANCH   1  10
ATOM      5  C   UNL     1       7.063   4.575  17.553  0.00  0.00    +0.000 A 
ATOM      6  N   UNL     1       7.518   4.846  16.329  0.00  0.00    +0.000 NA
ATOM      7  N   UNL     1       6.476   4.541  15.539  0.00  0.00    +0.000 N 
ATOM      8  C   UNL     1       6.564   4.782  14.120  0.00  0.00    +0.000 C 
ATOM      9  C   UNL     1       5.404   4.049  16.224  0.00  0.00    +0.000 A 
ATOM     10  C   UNL     1       5.754   4.045  17.565  0.00  0.00    +0.000 A 
BRANCH   5  12
ATOM     11  C   UNL     1       7.904   6.187  18.981  0.00  0.00    +0.000 C 
ATOM     12  O   UNL     1       7.851   4.805  18.627  0.00  0.00    +0.000 OA
ENDBRANCH   5  12
ENDBRANCH   1  10
BRANCH   3  13
ATOM     13  C   UNL     1       2.628   2.992  19.350  0.00  0.00    +0.000 C 
BRANCH  13  14
ATOM     14  C   UNL     1       1.867   4.180  19.940  0.00  0.00    +0.000 C 
ATOM     15  O   UNL     1       0.657   4.134  20.160  0.00  0.00    +0.000 OA
ATOM     16  N   UNL     1       2.652   5.268  20.243  0.00  0.00    +0.000 N 
ATOM     17  H   UNL     1       3.661   5.128  20.288  0.00  0.00    +0.000 HD
BRANCH  16  18
ATOM     18  C   UNL     1       2.091   6.471  20.818  0.00  0.00    +0.000 C 
BRANCH  18  19
ATOM     19  C   UNL     1       1.966   7.578  19.813  0.00  0.00    +0.000 A 
ATOM     20  C   UNL     1       2.534   7.483  18.539  0.00  0.00    +0.000 A 
ATOM     21  C   UNL     1       2.387   8.532  17.637  0.00  0.00    +0.000 A 
ATOM     22  C   UNL     1       1.677   9.651  18.040  0.00  0.00    +0.000 A 
ATOM     23  N   UNL     1       1.121   9.785  19.262  0.00  0.00    +0.000 NA
ATOM     24  C   UNL     1       1.282   8.751  20.121  0.00  0.00    +0.000 A 
ENDBRANCH  18  19
ENDBRANCH  16  18
ENDBRANCH  13  14
ENDBRANCH   3  13
TORSDOF 6
ENDMDL
MODEL 4
REMARK VINA RESULT:      -6.8      4.114      6.770
REMARK  Name = 
REMARK  8 active torsions:
REMARK  status: ('A' for Active; 'I' for Inactive)
REMARK    1  A    between atoms: C_1  and  O_2
REMARK    2  A    between atoms: O_2  and  C_3
REMARK    3  A    between atoms: N_5  and  C_6
REMARK    4  A    between atoms: C_8  and  C_9
REMARK    5  A    between atoms: N_11  and  C_12
REMARK    6  A    between atoms: C_12  and  C_13
REMARK    7  A    between atoms: N_15  and  C_16
REMARK    8  A    between atoms: C_16  and  C_17
REMARK                            x       y       z     vdW  Elec       q    Type
REMARK                         _______ _______ _______ _____ _____    ______ ____
ROOT
ATOM      1  C   UNL     1       5.899   4.817  17.945  0.00  0.00    +0.000 C 
ATOM      2  O   UNL     1       6.624   4.256  17.125  0.00  0.00    +0.000 OA
ATOM      3  N   UNL     1       6.365   5.820  18.757  0.00  0.00    +0.000 N 
ATOM      4  H   UNL     1       5.771   6.169  19.502  0.00  0.00    +0.000 HD
ENDROOT
BRANCH   1  10
ATOM      5  C   UNL     1       3.341   5.259  18.197  0.00  0.00    +0.000 A 
ATOM      6  N   UNL     1       2.220   4.557  18.364  0.00  0.00    +0.000 NA
ATOM      7  N   UNL     1       2.660   3.292  18.453  0.00  0.00    +0.000 N 
ATOM      8  C   UNL     1       1.722   2.229  18.719  0.00  0.00    +0.000 C 
ATOM      9  C   UNL     1       4.011   3.177  18.305  0.00  0.00    +0.000 A 
ATOM     10  C   UNL     1       4.503   4.460  18.124  0.00  0.00    +0.000 A 
BRANCH   5  12
ATOM     11  C   UNL     1       2.425   7.185  19.091  0.00  0.00    +0.000 C 
ATOM     12  O   UNL     1       3.282   6.607  18.106  0.00  0.00    +0.000 OA
ENDBRANCH   5  12
ENDBRANCH   1  10
BRANCH   3  13
ATOM     13  C   UNL     1       7.738   6.271  18.691  0.00  0.00    +0.000 C 
BRANCH  13  14
ATOM     14  C   UNL     1       7.855   7.578  17.906  0.00  0.00    +0.000 C 
ATOM     15  O   UNL     1       7.410   7.696  16.764  0.00  0.00    +0.000 OA
ATOM     16  N   UNL     1       8.449   8.609  18.599  0.00  0.00    +0.000 N 
ATOM     17  H   UNL     1       8.537   8.513  19.609  0.00  0.00    +0.000 HD
BRANCH  16  18
ATOM     18  C   UNL     1       8.629   9.915  18.006  0.00  0.00    +0.000 C 
BRANCH  18  19
ATOM     19  C   UNL     1       9.599  10.763  18.776  0.00  0.00    +0.000 A 
ATOM     20  C   UNL     1       9.451  10.987  20.148  0.00  0.00    +0.000 A 
ATOM     21  C   UNL     1      10.378  11.774  20.824  0.00  0.00    +0.000 A 
ATOM     22  C   UNL     1      11.426  12.319  20.102  0.00  0.00    +0.000 A 
ATOM     23  N   UNL     1      11.601  12.134  18.777  0.00  0.00    +0.000 NA
ATOM     24  C   UNL     1      10.682  11.366  18.144  0.00  0.00    +0.000 A 
ENDBRANCH  18  19
ENDBRANCH  16  18
ENDBRANCH  13  14
ENDBRANCH   3  13
TORSDOF 6
ENDMDL
MODEL 5
REMARK VINA RESULT:      -6.8      0.686      1.075
REMARK  Name = 
REMARK  8 active torsions:
REMARK  status: ('A' for Active; 'I' for Inactive)
REMARK    1  A    between atoms: C_1  and  O_2
REMARK    2  A    between atoms: O_2  and  C_3
REMARK    3  A    between atoms: N_5  and  C_6
REMARK    4  A    between atoms: C_8  and  C_9
REMARK    5  A    between atoms: N_11  and  C_12
REMARK    6  A    between atoms: C_12  and  C_13
REMARK    7  A    between atoms: N_15  and  C_16
REMARK    8  A    between atoms: C_16  and  C_17
REMARK                            x       y       z     vdW  Elec       q    Type
REMARK                         _______ _______ _______ _____ _____    ______ ____
ROOT
ATOM      1  C   UNL     1       4.478   3.335  17.946  0.00  0.00    +0.000 C 
ATOM      2  O   UNL     1       3.402   2.999  17.452  0.00  0.00    +0.000 OA
ATOM      3  N   UNL     1       4.740   3.181  19.284  0.00  0.00    +0.000 N 
ATOM      4  H   UNL     1       5.588   3.582  19.671  0.00  0.00    +0.000 HD
ENDROOT
BRANCH   1  10
ATOM      5  C   UNL     1       6.733   4.582  17.549  0.00  0.00    +0.000 A 
ATOM      6  N   UNL     1       7.481   4.987  16.521  0.00  0.00    +0.000 NA
ATOM      7  N   UNL     1       6.749   4.637  15.452  0.00  0.00    +0.000 N 
ATOM      8  C   UNL     1       7.206   4.989  14.130  0.00  0.00    +0.000 C 
ATOM      9  C   UNL     1       5.593   3.990  15.775  0.00  0.00    +0.000 A 
ATOM     10  C   UNL     1       5.546   3.924  17.159  0.00  0.00    +0.000 A 
BRANCH   5  12
ATOM     11  C   UNL     1       7.912   6.013  18.930  0.00  0.00    +0.000 C 
ATOM     12  O   UNL     1       7.152   4.811  18.814  0.00  0.00    +0.000 OA
ENDBRANCH   5  12
ENDBRANCH   1  10
BRANCH   3  13
ATOM     13  C   UNL     1       3.761   2.613  20.186  0.00  0.00    +0.000 C 
BRANCH  13  14
ATOM     14  C   UNL     1       2.590   3.570  20.408  0.00  0.00    +0.000 C 
ATOM     15  O   UNL     1       1.427   3.173  20.474  0.00  0.00    +0.000 OA
ATOM     16  N   UNL     1       2.952   4.888  20.574  0.00  0.00    +0.000 N 
ATOM     17  H   UNL     1       3.931   5.089  20.778  0.00  0.00    +0.000 HD
BRANCH  16  18
ATOM     18  C   UNL     1       1.967   5.921  20.804  0.00  0.00    +0.000 C 
BRANCH  18  19
ATOM     19  C   UNL     1       2.051   7.024  19.790  0.00  0.00    +0.000 A 
ATOM     20  C   UNL     1       1.433   8.261  19.997  0.00  0.00    +0.000 A 
ATOM     21  C   UNL     1       1.543   9.258  19.032  0.00  0.00    +0.000 A 
ATOM     22  C   UNL     1       2.266   8.983  17.883  0.00  0.00    +0.000 A 
ATOM     23  N   UNL     1       2.870   7.802  17.642  0.00  0.00    +0.000 NA
ATOM     24  C   UNL     1       2.745   6.848  18.596  0.00  0.00    +0.000 A 
ENDBRANCH  18  19
ENDBRANCH  16  18
ENDBRANCH  13  14
ENDBRANCH   3  13
TORSDOF 6
ENDMDL
MODEL 6
REMARK VINA RESULT:      -6.7      1.327      1.712
REMARK  Name = 
REMARK  8 active torsions:
REMARK  status: ('A' for Active; 'I' for Inactive)
REMARK    1  A    between atoms: C_1  and  O_2
REMARK    2  A    between atoms: O_2  and  C_3
REMARK    3  A    between atoms: N_5  and  C_6
REMARK    4  A    between atoms: C_8  and  C_9
REMARK    5  A    between atoms: N_11  and  C_12
REMARK    6  A    between atoms: C_12  and  C_13
REMARK    7  A    between atoms: N_15  and  C_16
REMARK    8  A    between atoms: C_16  and  C_17
REMARK                            x       y       z     vdW  Elec       q    Type
REMARK                         _______ _______ _______ _____ _____    ______ ____
ROOT
ATOM      1  C   UNL     1       5.729   4.367  18.634  0.00  0.00    +0.000 C 
ATOM      2  O   UNL     1       6.196   4.918  19.629  0.00  0.00    +0.000 OA
ATOM      3  N   UNL     1       4.733   3.428  18.726  0.00  0.00    +0.000 N 
ATOM      4  H   UNL     1       4.463   2.910  17.896  0.00  0.00    +0.000 HD
ENDROOT
BRANCH   1  10
ATOM      5  C   UNL     1       7.144   5.593  16.819  0.00  0.00    +0.000 A 
ATOM      6  N   UNL     1       7.310   5.563  15.497  0.00  0.00    +0.000 NA
ATOM      7  N   UNL     1       6.425   4.638  15.096  0.00  0.00    +0.000 N 
ATOM      8  C   UNL     1       6.256   4.377  13.688  0.00  0.00    +0.000 C 
ATOM      9  C   UNL     1       5.743   4.060  16.126  0.00  0.00    +0.000 A 
ATOM     10  C   UNL     1       6.196   4.659  17.290  0.00  0.00    +0.000 A 
BRANCH   5  12
ATOM     11  C   UNL     1       7.524   7.823  17.301  0.00  0.00    +0.000 C 
ATOM     12  O   UNL     1       7.862   6.462  17.566  0.00  0.00    +0.000 OA
ENDBRANCH   5  12
ENDBRANCH   1  10
BRANCH   3  13
ATOM     13  C   UNL     1       4.178   3.036  20.004  0.00  0.00    +0.000 C 
BRANCH  13  14
ATOM     14  C   UNL     1       2.916   3.833  20.330  0.00  0.00    +0.000 C 
ATOM     15  O   UNL     1       1.896   3.294  20.757  0.00  0.00    +0.000 OA
ATOM     16  N   UNL     1       3.038   5.193  20.154  0.00  0.00    +0.000 N 
ATOM     17  H   UNL     1       3.978   5.577  20.066  0.00  0.00    +0.000 HD
BRANCH  16  18
ATOM     18  C   UNL     1       1.941   6.094  20.427  0.00  0.00    +0.000 C 
BRANCH  18  19
ATOM     19  C   UNL     1       1.972   7.313  19.551  0.00  0.00    +0.000 A 
ATOM     20  C   UNL     1       1.383   8.517  19.947  0.00  0.00    +0.000 A 
ATOM     21  C   UNL     1       1.441   9.624  19.105  0.00  0.00    +0.000 A 
ATOM     22  C   UNL     1       2.086   9.489  17.886  0.00  0.00    +0.000 A 
ATOM     23  N   UNL     1       2.660   8.343  17.465  0.00  0.00    +0.000 NA
ATOM     24  C   UNL     1       2.585   7.281  18.302  0.00  0.00    +0.000 A 
ENDBRANCH  18  19
ENDBRANCH  16  18
ENDBRANCH  13  14
ENDBRANCH   3  13
TORSDOF 6
ENDMDL
MODEL 7
REMARK VINA RESULT:      -6.7      2.621      4.433
REMARK  Name = 
REMARK  8 active torsions:
REMARK  status: ('A' for Active; 'I' for Inactive)
REMARK    1  A    between atoms: C_1  and  O_2
REMARK    2  A    between atoms: O_2  and  C_3
REMARK    3  A    between atoms: N_5  and  C_6
REMARK    4  A    between atoms: C_8  and  C_9
REMARK    5  A    between atoms: N_11  and  C_12
REMARK    6  A    between atoms: C_12  and  C_13
REMARK    7  A    between atoms: N_15  and  C_16
REMARK    8  A    between atoms: C_16  and  C_17
REMARK                            x       y       z     vdW  Elec       q    Type
REMARK                         _______ _______ _______ _____ _____    ______ ____
ROOT
ATOM      1  C   UNL     1       7.096   5.158  15.778  0.00  0.00    +0.000 C 
ATOM      2  O   UNL     1       7.374   6.334  16.005  0.00  0.00    +0.000 OA
ATOM      3  N   UNL     1       6.972   4.236  16.786  0.00  0.00    +0.000 N 
ATOM      4  H   UNL     1       6.864   3.255  16.549  0.00  0.00    +0.000 HD
ENDROOT
BRANCH   1  10
ATOM      5  C   UNL     1       7.542   4.945  13.218  0.00  0.00    +0.000 A 
ATOM      6  N   UNL     1       7.062   4.266  12.175  0.00  0.00    +0.000 NA
ATOM      7  N   UNL     1       6.050   3.563  12.706  0.00  0.00    +0.000 N 
ATOM      8  C   UNL     1       5.223   2.749  11.850  0.00  0.00    +0.000 C 
ATOM      9  C   UNL     1       5.909   3.748  14.050  0.00  0.00    +0.000 A 
ATOM     10  C   UNL     1       6.886   4.653  14.433  0.00  0.00    +0.000 A 
BRANCH   5  12
ATOM     11  C   UNL     1       8.500   6.494  11.792  0.00  0.00    +0.000 C 
ATOM     12  O   UNL     1       8.569   5.807  13.041  0.00  0.00    +0.000 OA
ENDBRANCH   5  12
ENDBRANCH   1  10
BRANCH   3  13
ATOM     13  C   UNL     1       7.161   4.601  18.174  0.00  0.00    +0.000 C 
BRANCH  13  14
ATOM     14  C   UNL     1       5.831   4.939  18.846  0.00  0.00    +0.000 C 
ATOM     15  O   UNL     1       5.621   4.700  20.035  0.00  0.00    +0.000 OA
ATOM     16  N   UNL     1       4.922   5.571  18.027  0.00  0.00    +0.000 N 
ATOM     17  H   UNL     1       5.267   5.972  17.156  0.00  0.00    +0.000 HD
BRANCH  16  18
ATOM     18  C   UNL     1       3.618   5.969  18.509  0.00  0.00    +0.000 C 
BRANCH  18  19
ATOM     19  C   UNL     1       2.679   4.807  18.640  0.00  0.00    +0.000 A 
ATOM     20  C   UNL     1       1.869   4.640  19.768  0.00  0.00    +0.000 A 
ATOM     21  C   UNL     1       1.008   3.549  19.844  0.00  0.00    +0.000 A 
ATOM     22  C   UNL     1       0.987   2.654  18.788  0.00  0.00    +0.000 A 
ATOM     23  N   UNL     1       1.757   2.775  17.687  0.00  0.00    +0.000 NA
ATOM     24  C   UNL     1       2.588   3.843  17.640  0.00  0.00    +0.000 A 
ENDBRANCH  18  19
ENDBRANCH  16  18
ENDBRANCH  13  14
ENDBRANCH   3  13
TORSDOF 6
ENDMDL
MODEL 8
REMARK VINA RESULT:      -6.7      4.471      7.028
REMARK  Name = 
REMARK  8 active torsions:
REMARK  status: ('A' for Active; 'I' for Inactive)
REMARK    1  A    between atoms: C_1  and  O_2
REMARK    2  A    between atoms: O_2  and  C_3
REMARK    3  A    between atoms: N_5  and  C_6
REMARK    4  A    between atoms: C_8  and  C_9
REMARK    5  A    between atoms: N_11  and  C_12
REMARK    6  A    between atoms: C_12  and  C_13
REMARK    7  A    between atoms: N_15  and  C_16
REMARK    8  A    between atoms: C_16  and  C_17
REMARK                            x       y       z     vdW  Elec       q    Type
REMARK                         _______ _______ _______ _____ _____    ______ ____
ROOT
ATOM      1  C   UNL     1       6.346   5.133  18.973  0.00  0.00    +0.000 C 
ATOM      2  O   UNL     1       6.832   4.907  20.081  0.00  0.00    +0.000 OA
ATOM      3  N   UNL     1       6.847   6.108  18.148  0.00  0.00    +0.000 N 
ATOM      4  H   UNL     1       6.342   6.345  17.300  0.00  0.00    +0.000 HD
ENDROOT
BRANCH   1  10
ATOM      5  C   UNL     1       4.684   4.288  17.150  0.00  0.00    +0.000 A 
ATOM      6  N   UNL     1       3.612   3.500  17.067  0.00  0.00    +0.000 NA
ATOM      7  N   UNL     1       3.402   3.131  18.340  0.00  0.00    +0.000 N 
ATOM      8  C   UNL     1       2.256   2.319  18.666  0.00  0.00    +0.000 C 
ATOM      9  C   UNL     1       4.331   3.627  19.207  0.00  0.00    +0.000 A 
ATOM     10  C   UNL     1       5.207   4.395  18.457  0.00  0.00    +0.000 A 
BRANCH   5  12
ATOM     11  C   UNL     1       5.950   3.998  15.237  0.00  0.00    +0.000 C 
ATOM     12  O   UNL     1       5.166   4.884  16.036  0.00  0.00    +0.000 OA
ENDBRANCH   5  12
ENDBRANCH   1  10
BRANCH   3  13
ATOM     13  C   UNL     1       7.975   6.924  18.539  0.00  0.00    +0.000 C 
BRANCH  13  14
ATOM     14  C   UNL     1       7.911   8.308  17.892  0.00  0.00    +0.000 C 
ATOM     15  O   UNL     1       7.187   8.542  16.925  0.00  0.00    +0.000 OA
ATOM     16  N   UNL     1       8.684   9.264  18.511  0.00  0.00    +0.000 N 
ATOM     17  H   UNL     1       9.028   9.062  19.449  0.00  0.00    +0.000 HD
BRANCH  16  18
ATOM     18  C   UNL     1       8.729  10.628  18.032  0.00  0.00    +0.000 C 
BRANCH  18  19
ATOM     19  C   UNL     1      10.007  11.321  18.403  0.00  0.00    +0.000 A 
ATOM     20  C   UNL     1      10.688  12.141  17.498  0.00  0.00    +0.000 A 
ATOM     21  C   UNL     1      11.867  12.769  17.887  0.00  0.00    +0.000 A 
ATOM     22  C   UNL     1      12.333  12.552  19.173  0.00  0.00    +0.000 A 
ATOM     23  N   UNL     1      11.711  11.763  20.073  0.00  0.00    +0.000 NA
ATOM     24  C   UNL     1      10.567  11.161  19.667  0.00  0.00    +0.000 A 
ENDBRANCH  18  19
ENDBRANCH  16  18
ENDBRANCH  13  14
ENDBRANCH   3  13
TORSDOF 6
ENDMDL
MODEL 9
REMARK VINA RESULT:      -6.7      3.990      6.677
REMARK  Name = 
REMARK  8 active torsions:
REMARK  status: ('A' for Active; 'I' for Inactive)
REMARK    1  A    between atoms: C_1  and  O_2
REMARK    2  A    between atoms: O_2  and  C_3
REMARK    3  A    between atoms: N_5  and  C_6
REMARK    4  A    between atoms: C_8  and  C_9
REMARK    5  A    between atoms: N_11  and  C_12
REMARK    6  A    between atoms: C_12  and  C_13
REMARK    7  A    between atoms: N_15  and  C_16
REMARK    8  A    between atoms: C_16  and  C_17
REMARK                            x       y       z     vdW  Elec       q    Type
REMARK                         _______ _______ _______ _____ _____    ______ ____
ROOT
ATOM      1  C   UNL     1       5.735   4.775  18.621  0.00  0.00    +0.000 C 
ATOM      2  O   UNL     1       6.082   4.213  17.583  0.00  0.00    +0.000 OA
ATOM      3  N   UNL     1       6.539   5.688  19.254  0.00  0.00    +0.000 N 
ATOM      4  H   UNL     1       6.270   6.034  20.169  0.00  0.00    +0.000 HD
ENDROOT
BRANCH   1  10
ATOM      5  C   UNL     1       3.824   3.298  19.605  0.00  0.00    +0.000 A 
ATOM      6  N   UNL     1       2.638   3.464  20.192  0.00  0.00    +0.000 NA
ATOM      7  N   UNL     1       2.474   4.796  20.184  0.00  0.00    +0.000 N 
ATOM      8  C   UNL     1       1.244   5.365  20.678  0.00  0.00    +0.000 C 
ATOM      9  C   UNL     1       3.534   5.468  19.650  0.00  0.00    +0.000 A 
ATOM     10  C   UNL     1       4.458   4.512  19.260  0.00  0.00    +0.000 A 
BRANCH   5  12
ATOM     11  C   UNL     1       3.602   1.351  18.376  0.00  0.00    +0.000 C 
ATOM     12  O   UNL     1       4.304   2.050  19.404  0.00  0.00    +0.000 OA
ENDBRANCH   5  12
ENDBRANCH   1  10
BRANCH   3  13
ATOM     13  C   UNL     1       7.842   6.040  18.731  0.00  0.00    +0.000 C 
BRANCH  13  14
ATOM     14  C   UNL     1       7.772   7.298  17.866  0.00  0.00    +0.000 C 
ATOM     15  O   UNL     1       7.175   7.318  16.790  0.00  0.00    +0.000 OA
ATOM     16  N   UNL     1       8.384   8.403  18.414  0.00  0.00    +0.000 N 
ATOM     17  H   UNL     1       8.609   8.376  19.408  0.00  0.00    +0.000 HD
BRANCH  16  18
ATOM     18  C   UNL     1       8.401   9.677  17.731  0.00  0.00    +0.000 C 
BRANCH  18  19
ATOM     19  C   UNL     1       9.082  10.746  18.534  0.00  0.00    +0.000 A 
ATOM     20  C   UNL     1       9.500  10.523  19.849  0.00  0.00    +0.000 A 
ATOM     21  C   UNL     1      10.134  11.542  20.554  0.00  0.00    +0.000 A 
ATOM     22  C   UNL     1      10.325  12.759  19.921  0.00  0.00    +0.000 A 
ATOM     23  N   UNL     1       9.930  13.016  18.658  0.00  0.00    +0.000 NA
ATOM     24  C   UNL     1       9.313  12.009  17.995  0.00  0.00    +0.000 A 
ENDBRANCH  18  19
ENDBRANCH  16  18
ENDBRANCH  13  14
ENDBRANCH   3  13
TORSDOF 6
ENDMDL
