MODEL 1
REMARK VINA RESULT:      -6.1      0.000      0.000
REMARK  Name = 
REMARK  5 active torsions:
REMARK  status: ('A' for Active; 'I' for Inactive)
REMARK    1  A    between atoms: C_1  and  O_2
REMARK    2  A    between atoms: O_2  and  C_3
REMARK    3  A    between atoms: C_7  and  O_8
REMARK    4  A    between atoms: O_8  and  C_9
REMARK    5  A    between atoms: C_10  and  O_11
REMARK                            x       y       z     vdW  Elec       q    Type
REMARK                         _______ _______ _______ _____ _____    ______ ____
ROOT
ATOM      1  C   UNL     1       3.326   4.360  18.782  0.00  0.00    +0.000 A 
ATOM      2  C   UNL     1       4.321   4.891  19.611  0.00  0.00    +0.000 A 
ATOM      3  C   UNL     1       5.610   4.956  19.129  0.00  0.00    +0.000 A 
ATOM      4  C   UNL     1       5.913   4.485  17.866  0.00  0.00    +0.000 A 
ATOM      5  C   UNL     1       4.970   3.946  16.998  0.00  0.00    +0.000 A 
ATOM      6  C   UNL     1       3.646   3.911  17.473  0.00  0.00    +0.000 A 
ATOM      7  C   UNL     1       7.330   4.739  17.704  0.00  0.00    +0.000 C 
ATOM      8  O   UNL     1       8.026   4.425  16.758  0.00  0.00    +0.000 OA
ATOM      9  C   UNL     1       7.777   5.485  18.933  0.00  0.00    +0.000 C 
ATOM     10  O   UNL     1       6.652   5.488  19.840  0.00  0.00    +0.000 OA
ENDROOT
BRANCH   1  12
ATOM     11  C   UNL     1       1.981   4.946  20.657  0.00  0.00    +0.000 C 
ATOM     12  O   UNL     1       2.076   4.392  19.351  0.00  0.00    +0.000 OA
ENDBRANCH   1  12
BRANCH   5  13
ATOM     13  O   UNL     1       5.469   3.564  15.792  0.00  0.00    +0.000 OA
ATOM     14  C   UNL     1       5.384   4.393  14.650  0.00  0.00    +0.000 C 
ENDBRANCH   5  13
BRANCH   6  15
ATOM     15  O   UNL     1       2.610   3.515  16.670  0.00  0.00    +0.000 OA
ATOM     16  H   UNL     1       2.990   3.127  15.869  0.00  0.00    +0.000 HD
ENDBRANCH   6  15
TORSDOF 3
ENDMDL
MODEL 2
REMARK VINA RESULT:      -6.0      1.688      3.601
REMARK  Name = 
REMARK  5 active torsions:
REMARK  status: ('A' for Active; 'I' for Inactive)
REMARK    1  A    between atoms: C_1  and  O_2
REMARK    2  A    between atoms: O_2  and  C_3
REMARK    3  A    between atoms: C_7  and  O_8
REMARK    4  A    between atoms: O_8  and  C_9
REMARK    5  A    between atoms: C_10  and  O_11
REMARK                            x       y       z     vdW  Elec       q    Type
REMARK                         _______ _______ _______ _____ _____    ______ ____
ROOT
ATOM      1  C   UNL     1       4.781   4.100  18.340  0.00  0.00    +0.000 A 
ATOM      2  C   UNL     1       4.462   3.626  17.062  0.00  0.00    +0.000 A 
ATOM      3  C   UNL     1       5.270   3.991  16.007  0.00  0.00    +0.000 A 
ATOM      4  C   UNL     1       6.353   4.824  16.206  0.00  0.00    +0.000 A 
ATOM      5  C   UNL     1       6.719   5.328  17.449  0.00  0.00    +0.000 A 
ATOM      6  C   UNL     1       5.918   4.928  18.535  0.00  0.00    +0.000 A 
ATOM      7  C   UNL     1       6.963   4.961  14.899  0.00  0.00    +0.000 C 
ATOM      8  O   UNL     1       7.914   5.660  14.605  0.00  0.00    +0.000 OA
ATOM      9  C   UNL     1       6.200   4.055  13.971  0.00  0.00    +0.000 C 
ATOM     10  O   UNL     1       5.070   3.557  14.723  0.00  0.00    +0.000 OA
ENDROOT
BRANCH   1  12
ATOM     11  C   UNL     1       4.198   2.325  19.815  0.00  0.00    +0.000 C 
ATOM     12  O   UNL     1       3.937   3.631  19.315  0.00  0.00    +0.000 OA
ENDBRANCH   1  12
BRANCH   5  13
ATOM     13  O   UNL     1       7.832   6.109  17.434  0.00  0.00    +0.000 OA
ATOM     14  C   UNL     1       7.771   7.505  17.648  0.00  0.00    +0.000 C 
ENDBRANCH   5  13
BRANCH   6  15
ATOM     15  O   UNL     1       6.245   5.259  19.823  0.00  0.00    +0.000 OA
ATOM     16  H   UNL     1       6.557   6.175  19.822  0.00  0.00    +0.000 HD
ENDBRANCH   6  15
TORSDOF 3
ENDMDL
MODEL 3
REMARK VINA RESULT:      -5.9      2.307      3.183
REMARK  Name = 
REMARK  5 active torsions:
REMARK  status: ('A' for Active; 'I' for Inactive)
REMARK    1  A    between atoms: C_1  and  O_2
REMARK    2  A    between atoms: O_2  and  C_3
REMARK    3  A    between atoms: C_7  and  O_8
REMARK    4  A    between atoms: O_8  and  C_9
REMARK    5  A    between atoms: C_10  and  O_11
REMARK                            x       y       z     vdW  Elec       q    Type
REMARK                         _______ _______ _______ _____ _____    ______ ____
ROOT
ATOM      1  C   UNL     1       3.321   3.740  20.303  0.00  0.00    +0.000 A 
ATOM      2  C   UNL     1       2.601   4.938  20.216  0.00  0.00    +0.000 A 
ATOM      3  C   UNL     1       2.972   5.858  19.261  0.00  0.00    +0.000 A 
ATOM      4  C   UNL     1       4.045   5.612  18.427  0.00  0.00    +0.000 A 
ATOM      5  C   UNL     1       4.799   4.445  18.466  0.00  0.00    +0.000 A 
ATOM      6  C   UNL     1       4.401   3.486  19.416  0.00  0.00    +0.000 A 
ATOM      7  C   UNL     1       4.115   6.770  17.559  0.00  0.00    +0.000 C 
ATOM      8  O   UNL     1       4.954   6.998  16.708  0.00  0.00    +0.000 OA
ATOM      9  C   UNL     1       2.932   7.637  17.900  0.00  0.00    +0.000 C 
ATOM     10  O   UNL     1       2.316   7.044  19.066  0.00  0.00    +0.000 OA
ENDROOT
BRANCH   1  12
ATOM     11  C   UNL     1       1.414   2.758  21.336  0.00  0.00    +0.000 C 
ATOM     12  O   UNL     1       2.829   2.883  21.255  0.00  0.00    +0.000 OA
ENDBRANCH   1  12
BRANCH   5  13
ATOM     13  O   UNL     1       5.796   4.389  17.543  0.00  0.00    +0.000 OA
ATOM     14  C   UNL     1       7.147   4.624  17.884  0.00  0.00    +0.000 C 
ENDBRANCH   5  13
BRANCH   6  15
ATOM     15  O   UNL     1       4.986   2.250  19.471  0.00  0.00    +0.000 OA
ATOM     16  H   UNL     1       5.192   2.063  20.398  0.00  0.00    +0.000 HD
ENDBRANCH   6  15
TORSDOF 3
ENDMDL
MODEL 4
REMARK VINA RESULT:      -5.8      2.224      4.820
REMARK  Name = 
REMARK  5 active torsions:
REMARK  status: ('A' for Active; 'I' for Inactive)
REMARK    1  A    between atoms: C_1  and  O_2
REMARK    2  A    between atoms: O_2  and  C_3
REMARK    3  A    between atoms: C_7  and  O_8
REMARK    4  A    between atoms: O_8  and  C_9
REMARK    5  A    between atoms: C_10  and  O_11
REMARK                            x       y       z     vdW  Elec       q    Type
REMARK                         _______ _______ _______ _____ _____    ______ ____
ROOT
ATOM      1  C   UNL     1       6.221   5.743  16.677  0.00  0.00    +0.000 A 
ATOM      2  C   UNL     1       5.244   6.733  16.516  0.00  0.00    +0.000 A 
ATOM      3  C   UNL     1       4.211   6.788  17.426  0.00  0.00    +0.000 A 
ATOM      4  C   UNL     1       4.131   5.872  18.456  0.00  0.00    +0.000 A 
ATOM      5  C   UNL     1       5.067   4.867  18.667  0.00  0.00    +0.000 A 
ATOM      6  C   UNL     1       6.145   4.829  17.762  0.00  0.00    +0.000 A 
ATOM      7  C   UNL     1       2.950   6.254  19.203  0.00  0.00    +0.000 C 
ATOM      8  O   UNL     1       2.472   5.677  20.161  0.00  0.00    +0.000 OA
ATOM      9  C   UNL     1       2.433   7.520  18.574  0.00  0.00    +0.000 C 
ATOM     10  O   UNL     1       3.223   7.736  17.383  0.00  0.00    +0.000 OA
ENDROOT
BRANCH   1  12
ATOM     11  C   UNL     1       7.128   4.942  14.627  0.00  0.00    +0.000 C 
ATOM     12  O   UNL     1       7.224   5.819  15.743  0.00  0.00    +0.000 OA
ENDBRANCH   1  12
BRANCH   5  13
ATOM     13  O   UNL     1       4.820   4.085  19.752  0.00  0.00    +0.000 OA
ATOM     14  C   UNL     1       4.366   2.752  19.628  0.00  0.00    +0.000 C 
ENDBRANCH   5  13
BRANCH   6  15
ATOM     15  O   UNL     1       7.192   3.964  17.934  0.00  0.00    +0.000 OA
ATOM     16  H   UNL     1       7.842   4.399  18.504  0.00  0.00    +0.000 HD
ENDBRANCH   6  15
TORSDOF 3
ENDMDL
MODEL 5
REMARK VINA RESULT:      -5.8      1.133      1.133
REMARK  Name = 
REMARK  5 active torsions:
REMARK  status: ('A' for Active; 'I' for Inactive)
REMARK    1  A    between atoms: C_1  and  O_2
REMARK    2  A    between atoms: O_2  and  C_3
REMARK    3  A    between atoms: C_7  and  O_8
REMARK    4  A    between atoms: O_8  and  C_9
REMARK    5  A    between atoms: C_10  and  O_11
REMARK                            x       y       z     vdW  Elec       q    Type
REMARK                         _______ _______ _______ _____ _____    ______ ____
ROOT
ATOM      1  C   UNL     1       3.822   3.392  18.640  0.00  0.00    +0.000 A 
ATOM      2  C   UNL     1       4.831   3.848  19.496  0.00  0.00    +0.000 A 
ATOM      3  C   UNL     1       5.835   4.630  18.968  0.00  0.00    +0.000 A 
ATOM      4  C   UNL     1       5.855   4.933  17.621  0.00  0.00    +0.000 A 
ATOM      5  C   UNL     1       4.885   4.508  16.721  0.00  0.00    +0.000 A 
ATOM      6  C   UNL     1       3.837   3.740  17.263  0.00  0.00    +0.000 A 
ATOM      7  C   UNL     1       7.021   5.774  17.446  0.00  0.00    +0.000 C 
ATOM      8  O   UNL     1       7.452   6.221  16.400  0.00  0.00    +0.000 OA
ATOM      9  C   UNL     1       7.594   6.007  18.819  0.00  0.00    +0.000 C 
ATOM     10  O   UNL     1       6.850   5.157  19.721  0.00  0.00    +0.000 OA
ENDROOT
BRANCH   1  12
ATOM     11  C   UNL     1       2.638   2.966  20.662  0.00  0.00    +0.000 C 
ATOM     12  O   UNL     1       2.852   2.667  19.287  0.00  0.00    +0.000 OA
ENDBRANCH   1  12
BRANCH   5  13
ATOM     13  O   UNL     1       5.075   4.936  15.445  0.00  0.00    +0.000 OA
ATOM     14  C   UNL     1       5.633   4.101  14.450  0.00  0.00    +0.000 C 
ENDBRANCH   5  13
BRANCH   6  15
ATOM     15  O   UNL     1       2.761   3.364  16.505  0.00  0.00    +0.000 OA
ATOM     16  H   UNL     1       2.741   2.396  16.480  0.00  0.00    +0.000 HD
ENDBRANCH   6  15
TORSDOF 3
ENDMDL
MODEL 6
REMARK VINA RESULT:      -5.7      1.722      4.689
REMARK  Name = 
REMARK  5 active torsions:
REMARK  status: ('A' for Active; 'I' for Inactive)
REMARK    1  A    between atoms: C_1  and  O_2
REMARK    2  A    between atoms: O_2  and  C_3
REMARK    3  A    between atoms: C_7  and  O_8
REMARK    4  A    between atoms: O_8  and  C_9
REMARK    5  A    between atoms: C_10  and  O_11
REMARK                            x       y       z     vdW  Elec       q    Type
REMARK                         _______ _______ _______ _____ _____    ______ ____
ROOT
ATOM      1  C   UNL     1       6.253   4.040  14.668  0.00  0.00    +0.000 A 
ATOM      2  C   UNL     1       5.242   3.414  15.406  0.00  0.00    +0.000 A 
ATOM      3  C   UNL     1       5.109   3.735  16.739  0.00  0.00    +0.000 A 
ATOM      4  C   UNL     1       5.970   4.636  17.335  0.00  0.00    +0.000 A 
ATOM      5  C   UNL     1       6.993   5.288  16.656  0.00  0.00    +0.000 A 
ATOM      6  C   UNL     1       7.110   4.991  15.285  0.00  0.00    +0.000 A 
ATOM      7  C   UNL     1       5.515   4.735  18.706  0.00  0.00    +0.000 C 
ATOM      8  O   UNL     1       6.028   5.376  19.604  0.00  0.00    +0.000 OA
ATOM      9  C   UNL     1       4.266   3.901  18.807  0.00  0.00    +0.000 C 
ATOM     10  O   UNL     1       4.134   3.209  17.545  0.00  0.00    +0.000 OA
ENDROOT
BRANCH   1  12
ATOM     11  C   UNL     1       4.989   3.575  12.705  0.00  0.00    +0.000 C 
ATOM     12  O   UNL     1       6.255   3.680  13.343  0.00  0.00    +0.000 OA
ENDBRANCH   1  12
BRANCH   5  13
ATOM     13  O   UNL     1       7.711   6.154  17.419  0.00  0.00    +0.000 OA
ATOM     14  C   UNL     1       7.494   7.551  17.373  0.00  0.00    +0.000 C 
ENDBRANCH   5  13
BRANCH   6  15
ATOM     15  O   UNL     1       7.997   5.656  14.483  0.00  0.00    +0.000 OA
ATOM     16  H   UNL     1       8.493   6.273  15.041  0.00  0.00    +0.000 HD
ENDBRANCH   6  15
TORSDOF 3
ENDMDL
MODEL 7
REMARK VINA RESULT:      -5.6      2.187      3.390
REMARK  Name = 
REMARK  5 active torsions:
REMARK  status: ('A' for Active; 'I' for Inactive)
REMARK    1  A    between atoms: C_1  and  O_2
REMARK    2  A    between atoms: O_2  and  C_3
REMARK    3  A    between atoms: C_7  and  O_8
REMARK    4  A    between atoms: O_8  and  C_9
REMARK    5  A    between atoms: C_10  and  O_11
REMARK                            x       y       z     vdW  Elec       q    Type
REMARK                         _______ _______ _______ _____ _____    ______ ____
ROOT
ATOM      1  C   UNL     1       3.660   4.069  19.256  0.00  0.00    +0.000 A 
ATOM      2  C   UNL     1       4.330   3.383  18.236  0.00  0.00    +0.000 A 
ATOM      3  C   UNL     1       4.780   4.101  17.150  0.00  0.00    +0.000 A 
ATOM      4  C   UNL     1       4.553   5.461  17.062  0.00  0.00    +0.000 A 
ATOM      5  C   UNL     1       3.893   6.196  18.041  0.00  0.00    +0.000 A 
ATOM      6  C   UNL     1       3.464   5.473  19.169  0.00  0.00    +0.000 A 
ATOM      7  C   UNL     1       5.179   5.864  15.820  0.00  0.00    +0.000 C 
ATOM      8  O   UNL     1       5.167   6.973  15.320  0.00  0.00    +0.000 OA
ATOM      9  C   UNL     1       5.868   4.644  15.269  0.00  0.00    +0.000 C 
ATOM     10  O   UNL     1       5.476   3.538  16.114  0.00  0.00    +0.000 OA
ENDROOT
BRANCH   1  12
ATOM     11  C   UNL     1       2.058   2.582  20.200  0.00  0.00    +0.000 C 
ATOM     12  O   UNL     1       3.304   3.259  20.307  0.00  0.00    +0.000 OA
ENDBRANCH   1  12
BRANCH   5  13
ATOM     13  O   UNL     1       3.796   7.526  17.775  0.00  0.00    +0.000 OA
ATOM     14  C   UNL     1       2.548   8.188  17.709  0.00  0.00    +0.000 C 
ENDBRANCH   5  13
BRANCH   6  15
ATOM     15  O   UNL     1       2.911   6.102  20.252  0.00  0.00    +0.000 OA
ATOM     16  H   UNL     1       2.084   5.647  20.466  0.00  0.00    +0.000 HD
ENDBRANCH   6  15
TORSDOF 3
ENDMDL
MODEL 8
REMARK VINA RESULT:      -5.6      2.226      4.913
REMARK  Name = 
REMARK  5 active torsions:
REMARK  status: ('A' for Active; 'I' for Inactive)
REMARK    1  A    between atoms: C_1  and  O_2
REMARK    2  A    between atoms: O_2  and  C_3
REMARK    3  A    between atoms: C_7  and  O_8
REMARK    4  A    between atoms: O_8  and  C_9
REMARK    5  A    between atoms: C_10  and  O_11
REMARK                            x       y       z     vdW  Elec       q    Type
REMARK                         _______ _______ _______ _____ _____    ______ ____
ROOT
ATOM      1  C   UNL     1       5.057   4.639  17.679  0.00  0.00    +0.000 A 
ATOM      2  C   UNL     1       4.588   5.873  17.214  0.00  0.00    +0.000 A 
ATOM      3  C   UNL     1       3.643   6.540  17.963  0.00  0.00    +0.000 A 
ATOM      4  C   UNL     1       3.155   5.989  19.131  0.00  0.00    +0.000 A 
ATOM      5  C   UNL     1       3.579   4.768  19.642  0.00  0.00    +0.000 A 
ATOM      6  C   UNL     1       4.571   4.100  18.900  0.00  0.00    +0.000 A 
ATOM      7  C   UNL     1       2.217   6.968  19.641  0.00  0.00    +0.000 C 
ATOM      8  O   UNL     1       1.511   6.861  20.626  0.00  0.00    +0.000 OA
ATOM      9  C   UNL     1       2.297   8.159  18.724  0.00  0.00    +0.000 C 
ATOM     10  O   UNL     1       3.143   7.767  17.619  0.00  0.00    +0.000 OA
ENDROOT
BRANCH   1  12
ATOM     11  C   UNL     1       7.344   4.622  17.017  0.00  0.00    +0.000 C 
ATOM     12  O   UNL     1       6.030   4.095  16.877  0.00  0.00    +0.000 OA
ENDBRANCH   1  12
BRANCH   5  13
ATOM     13  O   UNL     1       2.992   4.416  20.817  0.00  0.00    +0.000 OA
ATOM     14  C   UNL     1       2.027   3.386  20.895  0.00  0.00    +0.000 C 
ENDBRANCH   5  13
BRANCH   6  15
ATOM     15  O   UNL     1       5.155   2.951  19.360  0.00  0.00    +0.000 OA
ATOM     16  H   UNL     1       4.455   2.391  19.727  0.00  0.00    +0.000 HD
ENDBRANCH   6  15
TORSDOF 3
ENDMDL
MODEL 9
REMARK VINA RESULT:      -5.6      1.955      5.212
REMARK  Name = 
REMARK  5 active torsions:
REMARK  status: ('A' for Active; 'I' for Inactive)
REMARK    1  A    between atoms: C_1  and  O_2
REMARK    2  A    between atoms: O_2  and  C_3
REMARK    3  A    between atoms: C_7  and  O_8
REMARK    4  A    between atoms: O_8  and  C_9
REMARK    5  A    between atoms: C_10  and  O_11
REMARK                            x       y       z     vdW  Elec       q    Type
REMARK                         _______ _______ _______ _____ _____    ______ ____
ROOT
ATOM      1  C   UNL     1       4.501   4.727  16.791  0.00  0.00    +0.000 A 
ATOM      2  C   UNL     1       3.748   3.547  16.781  0.00  0.00    +0.000 A 
ATOM      3  C   UNL     1       2.749   3.399  17.718  0.00  0.00    +0.000 A 
ATOM      4  C   UNL     1       2.514   4.383  18.658  0.00  0.00    +0.000 A 
ATOM      5  C   UNL     1       3.229   5.574  18.720  0.00  0.00    +0.000 A 
ATOM      6  C   UNL     1       4.226   5.746  17.743  0.00  0.00    +0.000 A 
ATOM      7  C   UNL     1       1.397   3.893  19.439  0.00  0.00    +0.000 C 
ATOM      8  O   UNL     1       0.900   4.421  20.416  0.00  0.00    +0.000 OA
ATOM      9  C   UNL     1       0.953   2.606  18.796  0.00  0.00    +0.000 C 
ATOM     10  O   UNL     1       1.930   2.302  17.775  0.00  0.00    +0.000 OA
ENDROOT
BRANCH   1  12
ATOM     11  C   UNL     1       6.760   4.397  16.115  0.00  0.00    +0.000 C 
ATOM     12  O   UNL     1       5.431   4.782  15.783  0.00  0.00    +0.000 OA
ENDBRANCH   1  12
BRANCH   5  13
ATOM     13  O   UNL     1       2.825   6.421  19.705  0.00  0.00    +0.000 OA
ATOM     14  C   UNL     1       2.117   7.612  19.425  0.00  0.00    +0.000 C 
ENDBRANCH   5  13
BRANCH   6  15
ATOM     15  O   UNL     1       4.915   6.923  17.624  0.00  0.00    +0.000 OA
ATOM     16  H   UNL     1       5.761   6.816  18.083  0.00  0.00    +0.000 HD
ENDBRANCH   6  15
TORSDOF 3
ENDMDL
