MODEL 1
REMARK VINA RESULT:      -7.7      0.000      0.000
REMARK  Name = 
REMARK  2 active torsions:
REMARK  status: ('A' for Active; 'I' for Inactive)
REMARK    1  A    between atoms: C_2  and  C_3
REMARK    2  A    between atoms: C_2  and  C_10
REMARK                            x       y       z     vdW  Elec       q    Type
REMARK                         _______ _______ _______ _____ _____    ______ ____
ROOT
ATOM      1  C   UNL     1       6.726   5.872  17.926  0.00  0.00    +0.000 C 
ATOM      2  C   UNL     1       6.297   5.252  19.240  0.00  0.00    +0.000 C 
ATOM      3  C   UNL     1       5.119   4.309  19.075  0.00  0.00    +0.000 C 
ATOM      4  N   UNL     1       3.970   4.851  18.372  0.00  0.00    +0.000 N 
ATOM      5  C   UNL     1       2.646   4.444  18.535  0.00  0.00    +0.000 C 
ATOM      6  O   UNL     1       1.744   5.045  17.936  0.00  0.00    +0.000 OA
ATOM      7  N   UNL     1       2.316   3.407  19.390  0.00  0.00    +0.000 N 
ATOM      8  C   UNL     1       0.918   3.264  19.825  0.00  0.00    +0.000 C 
ATOM      9  C   UNL     1       0.840   3.176  21.367  0.00  0.00    +0.000 C 
ATOM     10  O   UNL     1       1.759   2.227  21.936  0.00  0.00    +0.000 OA
ATOM     11  C   UNL     1       3.103   2.462  21.474  0.00  0.00    +0.000 C 
ATOM     12  C   UNL     1       3.129   2.323  19.953  0.00  0.00    +0.000 C 
ATOM     13  C   UNL     1       4.275   5.606  17.149  0.00  0.00    +0.000 C 
ATOM     14  C   UNL     1       5.513   6.504  17.238  0.00  0.00    +0.000 C 
ENDROOT
BRANCH   1  16
ATOM     15  O   UNL     1       8.483   4.286  17.447  0.00  0.00    +0.000 OA
ATOM     16  C   UNL     1       7.462   4.845  17.059  0.00  0.00    +0.000 C 
BRANCH  16  17
ATOM     17  C   UNL     1       6.929   4.515  15.690  0.00  0.00    +0.000 A 
ATOM     18  C   UNL     1       7.506   5.151  14.579  0.00  0.00    +0.000 A 
ATOM     19  C   UNL     1       7.104   4.822  13.279  0.00  0.00    +0.000 A 
ATOM     20  C   UNL     1       6.116   3.861  13.083  0.00  0.00    +0.000 A 
ATOM     21 CL   UNL     1       5.657   3.411  11.488  0.00  0.00    +0.000 Cl
ATOM     22  C   UNL     1       5.505   3.251  14.176  0.00  0.00    +0.000 A 
ATOM     23  C   UNL     1       5.903   3.584  15.477  0.00  0.00    +0.000 A 
ENDBRANCH  16  17
ENDBRANCH   1  16
TORSDOF 2
ENDMDL
MODEL 2
REMARK VINA RESULT:      -7.7      0.137      1.015
REMARK  Name = 
REMARK  2 active torsions:
REMARK  status: ('A' for Active; 'I' for Inactive)
REMARK    1  A    between atoms: C_2  and  C_3
REMARK    2  A    between atoms: C_2  and  C_10
REMARK                            x       y       z     vdW  Elec       q    Type
REMARK                         _______ _______ _______ _____ _____    ______ ____
ROOT
ATOM      1  C   UNL     1       6.711   5.870  17.890  0.00  0.00    +0.000 C 
ATOM      2  C   UNL     1       6.275   5.279  19.215  0.00  0.00    +0.000 C 
ATOM      3  C   UNL     1       5.114   4.312  19.061  0.00  0.00    +0.000 C 
ATOM      4  N   UNL     1       3.966   4.816  18.330  0.00  0.00    +0.000 N 
ATOM      5  C   UNL     1       2.647   4.392  18.488  0.00  0.00    +0.000 C 
ATOM      6  O   UNL     1       1.743   4.961  17.861  0.00  0.00    +0.000 OA
ATOM      7  N   UNL     1       2.323   3.372  19.366  0.00  0.00    +0.000 N 
ATOM      8  C   UNL     1       0.922   3.218  19.787  0.00  0.00    +0.000 C 
ATOM      9  C   UNL     1       0.825   3.170  21.330  0.00  0.00    +0.000 C 
ATOM     10  O   UNL     1       1.753   2.253  21.935  0.00  0.00    +0.000 OA
ATOM     11  C   UNL     1       3.098   2.498  21.484  0.00  0.00    +0.000 C 
ATOM     12  C   UNL     1       3.146   2.318  19.968  0.00  0.00    +0.000 C 
ATOM     13  C   UNL     1       4.274   5.543  17.090  0.00  0.00    +0.000 C 
ATOM     14  C   UNL     1       5.497   6.463  17.171  0.00  0.00    +0.000 C 
ENDROOT
BRANCH   1  16
ATOM     15  O   UNL     1       8.481   4.278  17.489  0.00  0.00    +0.000 OA
ATOM     16  C   UNL     1       7.474   4.833  17.060  0.00  0.00    +0.000 C 
BRANCH  16  17
ATOM     17  C   UNL     1       6.988   4.488  15.679  0.00  0.00    +0.000 A 
ATOM     18  C   UNL     1       5.990   3.508  15.548  0.00  0.00    +0.000 A 
ATOM     19  C   UNL     1       5.446   3.206  14.295  0.00  0.00    +0.000 A 
ATOM     20  C   UNL     1       5.902   3.875  13.162  0.00  0.00    +0.000 A 
ATOM     21 CL   UNL     1       5.198   3.548  11.627  0.00  0.00    +0.000 Cl
ATOM     22  C   UNL     1       6.920   4.819  13.270  0.00  0.00    +0.000 A 
ATOM     23  C   UNL     1       7.469   5.119  14.523  0.00  0.00    +0.000 A 
ENDBRANCH  16  17
ENDBRANCH   1  16
TORSDOF 2
ENDMDL
MODEL 3
REMARK VINA RESULT:      -7.5      1.830      2.101
REMARK  Name = 
REMARK  2 active torsions:
REMARK  status: ('A' for Active; 'I' for Inactive)
REMARK    1  A    between atoms: C_2  and  C_3
REMARK    2  A    between atoms: C_2  and  C_10
REMARK                            x       y       z     vdW  Elec       q    Type
REMARK                         _______ _______ _______ _____ _____    ______ ____
ROOT
ATOM      1  C   UNL     1       6.283   5.601  16.429  0.00  0.00    +0.000 C 
ATOM      2  C   UNL     1       5.735   4.294  16.964  0.00  0.00    +0.000 C 
ATOM      3  C   UNL     1       4.275   4.401  17.366  0.00  0.00    +0.000 C 
ATOM      4  N   UNL     1       3.946   5.492  18.265  0.00  0.00    +0.000 N 
ATOM      5  C   UNL     1       2.884   5.515  19.168  0.00  0.00    +0.000 C 
ATOM      6  O   UNL     1       2.760   6.474  19.941  0.00  0.00    +0.000 OA
ATOM      7  N   UNL     1       1.988   4.463  19.245  0.00  0.00    +0.000 N 
ATOM      8  C   UNL     1       1.136   4.344  20.439  0.00  0.00    +0.000 C 
ATOM      9  C   UNL     1       1.253   2.925  21.044  0.00  0.00    +0.000 C 
ATOM     10  O   UNL     1       1.102   1.873  20.076  0.00  0.00    +0.000 OA
ATOM     11  C   UNL     1       1.993   2.060  18.960  0.00  0.00    +0.000 C 
ATOM     12  C   UNL     1       1.667   3.395  18.292  0.00  0.00    +0.000 C 
ATOM     13  C   UNL     1       4.545   6.792  17.928  0.00  0.00    +0.000 C 
ATOM     14  C   UNL     1       5.992   6.724  17.429  0.00  0.00    +0.000 C 
ENDROOT
BRANCH   1  16
ATOM     15  O   UNL     1       5.081   6.874  14.766  0.00  0.00    +0.000 OA
ATOM     16  C   UNL     1       5.748   5.876  15.020  0.00  0.00    +0.000 C 
BRANCH  16  17
ATOM     17  C   UNL     1       6.036   4.896  13.915  0.00  0.00    +0.000 A 
ATOM     18  C   UNL     1       7.296   4.938  13.297  0.00  0.00    +0.000 A 
ATOM     19  C   UNL     1       7.645   3.999  12.320  0.00  0.00    +0.000 A 
ATOM     20  C   UNL     1       6.733   3.016  11.949  0.00  0.00    +0.000 A 
ATOM     21 CL   UNL     1       7.175   1.825  10.789  0.00  0.00    +0.000 Cl
ATOM     22  C   UNL     1       5.464   2.985  12.522  0.00  0.00    +0.000 A 
ATOM     23  C   UNL     1       5.112   3.928  13.496  0.00  0.00    +0.000 A 
ENDBRANCH  16  17
ENDBRANCH   1  16
TORSDOF 2
ENDMDL
MODEL 4
REMARK VINA RESULT:      -7.4      3.320      4.626
REMARK  Name = 
REMARK  2 active torsions:
REMARK  status: ('A' for Active; 'I' for Inactive)
REMARK    1  A    between atoms: C_2  and  C_3
REMARK    2  A    between atoms: C_2  and  C_10
REMARK                            x       y       z     vdW  Elec       q    Type
REMARK                         _______ _______ _______ _____ _____    ______ ____
ROOT
ATOM      1  C   UNL     1       3.328   3.797  18.428  0.00  0.00    +0.000 C 
ATOM      2  C   UNL     1       2.623   4.894  17.657  0.00  0.00    +0.000 C 
ATOM      3  C   UNL     1       2.648   6.222  18.390  0.00  0.00    +0.000 C 
ATOM      4  N   UNL     1       2.184   6.193  19.765  0.00  0.00    +0.000 N 
ATOM      5  C   UNL     1       1.620   7.262  20.460  0.00  0.00    +0.000 C 
ATOM      6  O   UNL     1       1.186   7.085  21.606  0.00  0.00    +0.000 OA
ATOM      7  N   UNL     1       1.496   8.510  19.875  0.00  0.00    +0.000 N 
ATOM      8  C   UNL     1       0.570   9.485  20.473  0.00  0.00    +0.000 C 
ATOM      9  C   UNL     1      -0.399  10.036  19.401  0.00  0.00    +0.000 C 
ATOM     10  O   UNL     1       0.262  10.473  18.200  0.00  0.00    +0.000 OA
ATOM     11  C   UNL     1       1.123   9.446  17.675  0.00  0.00    +0.000 C 
ATOM     12  C   UNL     1       2.181   9.111  18.726  0.00  0.00    +0.000 C 
ATOM     13  C   UNL     1       2.690   5.079  20.580  0.00  0.00    +0.000 C 
ATOM     14  C   UNL     1       2.770   3.733  19.852  0.00  0.00    +0.000 C 
ENDROOT
BRANCH   1  16
ATOM     15  O   UNL     1       5.550   3.882  19.370  0.00  0.00    +0.000 OA
ATOM     16  C   UNL     1       4.847   3.985  18.368  0.00  0.00    +0.000 C 
BRANCH  16  17
ATOM     17  C   UNL     1       5.501   4.312  17.054  0.00  0.00    +0.000 A 
ATOM     18  C   UNL     1       6.349   5.430  16.990  0.00  0.00    +0.000 A 
ATOM     19  C   UNL     1       7.045   5.733  15.814  0.00  0.00    +0.000 A 
ATOM     20  C   UNL     1       6.891   4.926  14.691  0.00  0.00    +0.000 A 
ATOM     21 CL   UNL     1       7.786   5.260  13.261  0.00  0.00    +0.000 Cl
ATOM     22  C   UNL     1       6.022   3.837  14.725  0.00  0.00    +0.000 A 
ATOM     23  C   UNL     1       5.322   3.536  15.900  0.00  0.00    +0.000 A 
ENDBRANCH  16  17
ENDBRANCH   1  16
TORSDOF 2
ENDMDL
MODEL 5
REMARK VINA RESULT:      -7.4      1.825      2.251
REMARK  Name = 
REMARK  2 active torsions:
REMARK  status: ('A' for Active; 'I' for Inactive)
REMARK    1  A    between atoms: C_2  and  C_3
REMARK    2  A    between atoms: C_2  and  C_10
REMARK                            x       y       z     vdW  Elec       q    Type
REMARK                         _______ _______ _______ _____ _____    ______ ____
ROOT
ATOM      1  C   UNL     1       6.289   5.790  16.492  0.00  0.00    +0.000 C 
ATOM      2  C   UNL     1       5.812   4.480  17.085  0.00  0.00    +0.000 C 
ATOM      3  C   UNL     1       4.339   4.513  17.448  0.00  0.00    +0.000 C 
ATOM      4  N   UNL     1       3.918   5.627  18.279  0.00  0.00    +0.000 N 
ATOM      5  C   UNL     1       2.834   5.628  19.155  0.00  0.00    +0.000 C 
ATOM      6  O   UNL     1       2.630   6.617  19.872  0.00  0.00    +0.000 OA
ATOM      7  N   UNL     1       2.005   4.526  19.270  0.00  0.00    +0.000 N 
ATOM      8  C   UNL     1       1.133   4.414  20.450  0.00  0.00    +0.000 C 
ATOM      9  C   UNL     1       1.323   3.040  21.133  0.00  0.00    +0.000 C 
ATOM     10  O   UNL     1       1.265   1.931  20.220  0.00  0.00    +0.000 OA
ATOM     11  C   UNL     1       2.170   2.117  19.116  0.00  0.00    +0.000 C 
ATOM     12  C   UNL     1       1.777   3.390  18.370  0.00  0.00    +0.000 C 
ATOM     13  C   UNL     1       4.441   6.943  17.885  0.00  0.00    +0.000 C 
ATOM     14  C   UNL     1       5.902   6.943  17.422  0.00  0.00    +0.000 C 
ENDROOT
BRANCH   1  16
ATOM     15  O   UNL     1       5.086   6.915  14.726  0.00  0.00    +0.000 OA
ATOM     16  C   UNL     1       5.774   5.955  15.059  0.00  0.00    +0.000 C 
BRANCH  16  17
ATOM     17  C   UNL     1       6.108   4.910  14.028  0.00  0.00    +0.000 A 
ATOM     18  C   UNL     1       5.127   3.962  13.696  0.00  0.00    +0.000 A 
ATOM     19  C   UNL     1       5.357   3.019  12.688  0.00  0.00    +0.000 A 
ATOM     20  C   UNL     1       6.572   3.013  12.010  0.00  0.00    +0.000 A 
ATOM     21 CL   UNL     1       6.840   1.893  10.732  0.00  0.00    +0.000 Cl
ATOM     22  C   UNL     1       7.571   3.920  12.356  0.00  0.00    +0.000 A 
ATOM     23  C   UNL     1       7.344   4.861  13.368  0.00  0.00    +0.000 A 
ENDBRANCH  16  17
ENDBRANCH   1  16
TORSDOF 2
ENDMDL
MODEL 6
REMARK VINA RESULT:      -7.2      3.298      4.656
REMARK  Name = 
REMARK  2 active torsions:
REMARK  status: ('A' for Active; 'I' for Inactive)
REMARK    1  A    between atoms: C_2  and  C_3
REMARK    2  A    between atoms: C_2  and  C_10
REMARK                            x       y       z     vdW  Elec       q    Type
REMARK                         _______ _______ _______ _____ _____    ______ ____
ROOT
ATOM      1  C   UNL     1       3.443   3.865  18.381  0.00  0.00    +0.000 C 
ATOM      2  C   UNL     1       2.753   4.974  17.613  0.00  0.00    +0.000 C 
ATOM      3  C   UNL     1       2.732   6.282  18.384  0.00  0.00    +0.000 C 
ATOM      4  N   UNL     1       2.216   6.208  19.738  0.00  0.00    +0.000 N 
ATOM      5  C   UNL     1       1.611   7.250  20.440  0.00  0.00    +0.000 C 
ATOM      6  O   UNL     1       1.135   7.036  21.563  0.00  0.00    +0.000 OA
ATOM      7  N   UNL     1       1.493   8.512  19.885  0.00  0.00    +0.000 N 
ATOM      8  C   UNL     1       0.531   9.458  20.473  0.00  0.00    +0.000 C 
ATOM      9  C   UNL     1      -0.403  10.027  19.379  0.00  0.00    +0.000 C 
ATOM     10  O   UNL     1       0.297  10.506  18.218  0.00  0.00    +0.000 OA
ATOM     11  C   UNL     1       1.192   9.505  17.699  0.00  0.00    +0.000 C 
ATOM     12  C   UNL     1       2.213   9.154  18.780  0.00  0.00    +0.000 C 
ATOM     13  C   UNL     1       2.705   5.078  20.541  0.00  0.00    +0.000 C 
ATOM     14  C   UNL     1       2.830   3.754  19.780  0.00  0.00    +0.000 C 
ENDROOT
BRANCH   1  16
ATOM     15  O   UNL     1       5.609   4.068  19.428  0.00  0.00    +0.000 OA
ATOM     16  C   UNL     1       4.960   4.073  18.386  0.00  0.00    +0.000 C 
BRANCH  16  17
ATOM     17  C   UNL     1       5.680   4.299  17.085  0.00  0.00    +0.000 A 
ATOM     18  C   UNL     1       5.146   3.728  15.918  0.00  0.00    +0.000 A 
ATOM     19  C   UNL     1       5.730   3.973  14.670  0.00  0.00    +0.000 A 
ATOM     20  C   UNL     1       6.859   4.783  14.581  0.00  0.00    +0.000 A 
ATOM     21 CL   UNL     1       7.549   5.133  13.046  0.00  0.00    +0.000 Cl
ATOM     22  C   UNL     1       7.425   5.323  15.734  0.00  0.00    +0.000 A 
ATOM     23  C   UNL     1       6.844   5.074  16.983  0.00  0.00    +0.000 A 
ENDBRANCH  16  17
ENDBRANCH   1  16
TORSDOF 2
ENDMDL
MODEL 7
REMARK VINA RESULT:      -7.1      3.289      5.332
REMARK  Name = 
REMARK  2 active torsions:
REMARK  status: ('A' for Active; 'I' for Inactive)
REMARK    1  A    between atoms: C_2  and  C_3
REMARK    2  A    between atoms: C_2  and  C_10
REMARK                            x       y       z     vdW  Elec       q    Type
REMARK                         _______ _______ _______ _____ _____    ______ ____
ROOT
ATOM      1  C   UNL     1       1.827   2.788  18.507  0.00  0.00    +0.000 C 
ATOM      2  C   UNL     1       1.476   4.028  17.711  0.00  0.00    +0.000 C 
ATOM      3  C   UNL     1       2.014   5.296  18.350  0.00  0.00    +0.000 C 
ATOM      4  N   UNL     1       1.684   5.485  19.751  0.00  0.00    +0.000 N 
ATOM      5  C   UNL     1       1.578   6.710  20.407  0.00  0.00    +0.000 C 
ATOM      6  O   UNL     1       1.207   6.741  21.588  0.00  0.00    +0.000 OA
ATOM      7  N   UNL     1       1.839   7.899  19.749  0.00  0.00    +0.000 N 
ATOM      8  C   UNL     1       1.353   9.157  20.338  0.00  0.00    +0.000 C 
ATOM      9  C   UNL     1       0.545   9.964  19.295  0.00  0.00    +0.000 C 
ATOM     10  O   UNL     1       1.212  10.097  18.028  0.00  0.00    +0.000 OA
ATOM     11  C   UNL     1       1.625   8.815  17.520  0.00  0.00    +0.000 C 
ATOM     12  C   UNL     1       2.589   8.179  18.520  0.00  0.00    +0.000 C 
ATOM     13  C   UNL     1       1.846   4.299  20.605  0.00  0.00    +0.000 C 
ATOM     14  C   UNL     1       1.401   2.980  19.965  0.00  0.00    +0.000 C 
ENDROOT
BRANCH   1  16
ATOM     15  O   UNL     1       3.716   1.286  18.450  0.00  0.00    +0.000 OA
ATOM     16  C   UNL     1       3.309   2.438  18.338  0.00  0.00    +0.000 C 
BRANCH  16  17
ATOM     17  C   UNL     1       4.298   3.531  18.035  0.00  0.00    +0.000 A 
ATOM     18  C   UNL     1       4.970   4.139  19.107  0.00  0.00    +0.000 A 
ATOM     19  C   UNL     1       5.957   5.104  18.877  0.00  0.00    +0.000 A 
ATOM     20  C   UNL     1       6.273   5.473  17.573  0.00  0.00    +0.000 A 
ATOM     21 CL   UNL     1       7.523   6.617  17.280  0.00  0.00    +0.000 Cl
ATOM     22  C   UNL     1       5.586   4.909  16.499  0.00  0.00    +0.000 A 
ATOM     23  C   UNL     1       4.595   3.948  16.729  0.00  0.00    +0.000 A 
ENDBRANCH  16  17
ENDBRANCH   1  16
TORSDOF 2
ENDMDL
MODEL 8
REMARK VINA RESULT:      -7.1      3.244      5.287
REMARK  Name = 
REMARK  2 active torsions:
REMARK  status: ('A' for Active; 'I' for Inactive)
REMARK    1  A    between atoms: C_2  and  C_3
REMARK    2  A    between atoms: C_2  and  C_10
REMARK                            x       y       z     vdW  Elec       q    Type
REMARK                         _______ _______ _______ _____ _____    ______ ____
ROOT
ATOM      1  C   UNL     1       1.861   2.725  18.421  0.00  0.00    +0.000 C 
ATOM      2  C   UNL     1       1.578   3.985  17.628  0.00  0.00    +0.000 C 
ATOM      3  C   UNL     1       2.110   5.230  18.314  0.00  0.00    +0.000 C 
ATOM      4  N   UNL     1       1.713   5.405  19.699  0.00  0.00    +0.000 N 
ATOM      5  C   UNL     1       1.600   6.623  20.369  0.00  0.00    +0.000 C 
ATOM      6  O   UNL     1       1.169   6.644  21.530  0.00  0.00    +0.000 OA
ATOM      7  N   UNL     1       1.920   7.816  19.744  0.00  0.00    +0.000 N 
ATOM      8  C   UNL     1       1.431   9.075  20.328  0.00  0.00    +0.000 C 
ATOM      9  C   UNL     1       0.695   9.916  19.258  0.00  0.00    +0.000 C 
ATOM     10  O   UNL     1       1.429  10.053  18.029  0.00  0.00    +0.000 OA
ATOM     11  C   UNL     1       1.840   8.770  17.522  0.00  0.00    +0.000 C 
ATOM     12  C   UNL     1       2.737   8.097  18.559  0.00  0.00    +0.000 C 
ATOM     13  C   UNL     1       1.805   4.204  20.541  0.00  0.00    +0.000 C 
ATOM     14  C   UNL     1       1.365   2.904  19.858  0.00  0.00    +0.000 C 
ENDROOT
BRANCH   1  16
ATOM     15  O   UNL     1       3.717   1.180  18.424  0.00  0.00    +0.000 OA
ATOM     16  C   UNL     1       3.341   2.344  18.321  0.00  0.00    +0.000 C 
BRANCH  16  17
ATOM     17  C   UNL     1       4.369   3.421  18.101  0.00  0.00    +0.000 A 
ATOM     18  C   UNL     1       4.682   3.784  16.781  0.00  0.00    +0.000 A 
ATOM     19  C   UNL     1       5.571   4.834  16.521  0.00  0.00    +0.000 A 
ATOM     20  C   UNL     1       6.160   5.521  17.578  0.00  0.00    +0.000 A 
ATOM     21 CL   UNL     1       7.209   6.847  17.266  0.00  0.00    +0.000 Cl
ATOM     22  C   UNL     1       5.892   5.146  18.893  0.00  0.00    +0.000 A 
ATOM     23  C   UNL     1       5.006   4.093  19.154  0.00  0.00    +0.000 A 
ENDBRANCH  16  17
ENDBRANCH   1  16
TORSDOF 2
ENDMDL
MODEL 9
REMARK VINA RESULT:      -6.9      3.761      4.976
REMARK  Name = 
REMARK  2 active torsions:
REMARK  status: ('A' for Active; 'I' for Inactive)
REMARK    1  A    between atoms: C_2  and  C_3
REMARK    2  A    between atoms: C_2  and  C_10
REMARK                            x       y       z     vdW  Elec       q    Type
REMARK                         _______ _______ _______ _____ _____    ______ ____
ROOT
ATOM      1  C   UNL     1       6.346   6.908  16.833  0.00  0.00    +0.000 C 
ATOM      2  C   UNL     1       4.990   7.039  17.497  0.00  0.00    +0.000 C 
ATOM      3  C   UNL     1       4.659   5.844  18.373  0.00  0.00    +0.000 C 
ATOM      4  N   UNL     1       4.790   4.544  17.742  0.00  0.00    +0.000 N 
ATOM      5  C   UNL     1       4.087   3.392  18.093  0.00  0.00    +0.000 C 
ATOM      6  O   UNL     1       4.228   2.362  17.420  0.00  0.00    +0.000 OA
ATOM      7  N   UNL     1       3.200   3.390  19.155  0.00  0.00    +0.000 N 
ATOM      8  C   UNL     1       2.212   2.303  19.252  0.00  0.00    +0.000 C 
ATOM      9  C   UNL     1       0.787   2.883  19.414  0.00  0.00    +0.000 C 
ATOM     10  O   UNL     1       0.690   3.893  20.433  0.00  0.00    +0.000 OA
ATOM     11  C   UNL     1       1.676   4.925  20.239  0.00  0.00    +0.000 C 
ATOM     12  C   UNL     1       3.065   4.293  20.303  0.00  0.00    +0.000 C 
ATOM     13  C   UNL     1       6.007   4.348  16.942  0.00  0.00    +0.000 C 
ATOM     14  C   UNL     1       6.433   5.561  16.110  0.00  0.00    +0.000 C 
ENDROOT
BRANCH   1  16
ATOM     15  O   UNL     1       7.966   6.210  18.481  0.00  0.00    +0.000 OA
ATOM     16  C   UNL     1       7.470   7.137  17.849  0.00  0.00    +0.000 C 
BRANCH  16  17
ATOM     17  C   UNL     1       7.977   8.533  18.089  0.00  0.00    +0.000 A 
ATOM     18  C   UNL     1       8.916   8.735  19.113  0.00  0.00    +0.000 A 
ATOM     19  C   UNL     1       9.480   9.998  19.327  0.00  0.00    +0.000 A 
ATOM     20  C   UNL     1       9.103  11.069  18.523  0.00  0.00    +0.000 A 
ATOM     21 CL   UNL     1       9.834  12.610  18.743  0.00  0.00    +0.000 Cl
ATOM     22  C   UNL     1       8.143  10.895  17.529  0.00  0.00    +0.000 A 
ATOM     23  C   UNL     1       7.574   9.633  17.318  0.00  0.00    +0.000 A 
ENDBRANCH  16  17
ENDBRANCH   1  16
TORSDOF 2
ENDMDL
