MODEL 1
REMARK VINA RESULT:      -8.7      0.000      0.000
REMARK  Name = 
REMARK  5 active torsions:
REMARK  status: ('A' for Active; 'I' for Inactive)
REMARK    1  A    between atoms: N_2  and  C_4
REMARK    2  A    between atoms: C_11  and  O_12
REMARK    3  A    between atoms: O_12  and  C_13
REMARK    4  A    between atoms: C_13  and  C_14
REMARK    5  A    between atoms: N_17  and  C_18
REMARK                            x       y       z     vdW  Elec       q    Type
REMARK                         _______ _______ _______ _____ _____    ______ ____
ROOT
ATOM      1  O   UNL     1       4.034   5.354  19.494  0.00  0.00    +0.000 OA
ENDROOT
BRANCH   1   9
ATOM      2  C   UNL     1       6.795   4.769  14.793  0.00  0.00    +0.000 A 
ATOM      3  C   UNL     1       5.694   4.150  15.358  0.00  0.00    +0.000 A 
ATOM      4  N   UNL     1       5.798   4.437  16.687  0.00  0.00    +0.000 N 
ATOM      5  C   UNL     1       6.951   5.137  16.881  0.00  0.00    +0.000 A 
ATOM      6  N   UNL     1       7.578   5.378  15.757  0.00  0.00    +0.000 NA
ATOM      7  O   UNL     1       7.431   5.410  18.083  0.00  0.00    +0.000 OA
ATOM      8  C   UNL     1       6.439   5.646  19.077  0.00  0.00    +0.000 C 
ATOM      9  C   UNL     1       5.243   4.670  19.106  0.00  0.00    +0.000 C 
ATOM     10  C   UNL     1       4.974   3.958  17.768  0.00  0.00    +0.000 C 
BRANCH   2  12
ATOM     11  O   UNL     1       7.969   5.667  13.047  0.00  0.00    +0.000 OA
ATOM     12  N   UNL     1       7.180   4.775  13.401  0.00  0.00    +0.000 N 
ATOM     13  O   UNL     1       6.705   3.902  12.659  0.00  0.00    +0.000 OA
ENDBRANCH   2  12
ENDBRANCH   1   9
BRANCH   1  14
ATOM     14  C   UNL     1       3.205   5.743  18.385  0.00  0.00    +0.000 C 
BRANCH  14  15
ATOM     15  C   UNL     1       2.612   7.105  18.577  0.00  0.00    +0.000 A 
ATOM     16  C   UNL     1       2.538   8.153  17.637  0.00  0.00    +0.000 A 
ATOM     17  C   UNL     1       1.872   9.164  18.286  0.00  0.00    +0.000 A 
ATOM     18  N   UNL     1       1.563   8.705  19.548  0.00  0.00    +0.000 N 
ATOM     19  N   UNL     1       2.039   7.444  19.741  0.00  0.00    +0.000 NA
BRANCH  18  20
ATOM     20  C   UNL     1       0.814   9.374  20.560  0.00  0.00    +0.000 A 
ATOM     21  C   UNL     1       0.624   8.790  21.824  0.00  0.00    +0.000 A 
ATOM     22  C   UNL     1      -0.072   9.481  22.819  0.00  0.00    +0.000 A 
ATOM     23  C   UNL     1      -0.584  10.745  22.553  0.00  0.00    +0.000 A 
ATOM     24  F   UNL     1      -1.238  11.409  23.515  0.00  0.00    +0.000 F 
ATOM     25  C   UNL     1      -0.419  11.333  21.304  0.00  0.00    +0.000 A 
ATOM     26  C   UNL     1       0.282  10.649  20.306  0.00  0.00    +0.000 A 
ENDBRANCH  18  20
ENDBRANCH  14  15
ENDBRANCH   1  14
TORSDOF 5
ENDMDL
MODEL 2
REMARK VINA RESULT:      -8.7      0.487      1.225
REMARK  Name = 
REMARK  5 active torsions:
REMARK  status: ('A' for Active; 'I' for Inactive)
REMARK    1  A    between atoms: N_2  and  C_4
REMARK    2  A    between atoms: C_11  and  O_12
REMARK    3  A    between atoms: O_12  and  C_13
REMARK    4  A    between atoms: C_13  and  C_14
REMARK    5  A    between atoms: N_17  and  C_18
REMARK                            x       y       z     vdW  Elec       q    Type
REMARK                         _______ _______ _______ _____ _____    ______ ____
ROOT
ATOM      1  O   UNL     1       4.139   5.882  19.250  0.00  0.00    +0.000 OA
ENDROOT
BRANCH   1   9
ATOM      2  C   UNL     1       6.796   4.722  14.595  0.00  0.00    +0.000 A 
ATOM      3  C   UNL     1       5.485   4.607  15.021  0.00  0.00    +0.000 A 
ATOM      4  N   UNL     1       5.574   4.637  16.382  0.00  0.00    +0.000 N 
ATOM      5  C   UNL     1       6.893   4.700  16.718  0.00  0.00    +0.000 A 
ATOM      6  N   UNL     1       7.669   4.772  15.666  0.00  0.00    +0.000 NA
ATOM      7  O   UNL     1       7.323   4.562  17.963  0.00  0.00    +0.000 OA
ATOM      8  C   UNL     1       6.449   5.093  18.952  0.00  0.00    +0.000 C 
ATOM      9  C   UNL     1       4.946   4.777  18.790  0.00  0.00    +0.000 C 
ATOM     10  C   UNL     1       4.521   4.451  17.347  0.00  0.00    +0.000 C 
BRANCH   2  12
ATOM     11  O   UNL     1       6.809   3.872  12.471  0.00  0.00    +0.000 OA
ATOM     12  N   UNL     1       7.278   4.734  13.234  0.00  0.00    +0.000 N 
ATOM     13  O   UNL     1       8.118   5.590  12.917  0.00  0.00    +0.000 OA
ENDBRANCH   2  12
ENDBRANCH   1   9
BRANCH   1  14
ATOM     14  C   UNL     1       2.947   6.093  18.473  0.00  0.00    +0.000 C 
BRANCH  14  15
ATOM     15  C   UNL     1       2.368   7.457  18.690  0.00  0.00    +0.000 A 
ATOM     16  C   UNL     1       2.300   8.521  17.769  0.00  0.00    +0.000 A 
ATOM     17  C   UNL     1       1.648   9.528  18.438  0.00  0.00    +0.000 A 
ATOM     18  N   UNL     1       1.340   9.051  19.694  0.00  0.00    +0.000 N 
ATOM     19  N   UNL     1       1.805   7.782  19.863  0.00  0.00    +0.000 NA
BRANCH  18  20
ATOM     20  C   UNL     1       0.604   9.710  20.721  0.00  0.00    +0.000 A 
ATOM     21  C   UNL     1       0.197  11.047  20.575  0.00  0.00    +0.000 A 
ATOM     22  C   UNL     1      -0.565  11.662  21.572  0.00  0.00    +0.000 A 
ATOM     23  C   UNL     1      -0.913  10.950  22.713  0.00  0.00    +0.000 A 
ATOM     24  F   UNL     1      -1.656  11.540  23.658  0.00  0.00    +0.000 F 
ATOM     25  C   UNL     1      -0.508   9.631  22.882  0.00  0.00    +0.000 A 
ATOM     26  C   UNL     1       0.250   9.008  21.885  0.00  0.00    +0.000 A 
ENDBRANCH  18  20
ENDBRANCH  14  15
ENDBRANCH   1  14
TORSDOF 5
ENDMDL
MODEL 3
REMARK VINA RESULT:      -8.6      0.825      1.308
REMARK  Name = 
REMARK  5 active torsions:
REMARK  status: ('A' for Active; 'I' for Inactive)
REMARK    1  A    between atoms: N_2  and  C_4
REMARK    2  A    between atoms: C_11  and  O_12
REMARK    3  A    between atoms: O_12  and  C_13
REMARK    4  A    between atoms: C_13  and  C_14
REMARK    5  A    between atoms: N_17  and  C_18
REMARK                            x       y       z     vdW  Elec       q    Type
REMARK                         _______ _______ _______ _____ _____    ______ ____
ROOT
ATOM      1  O   UNL     1       3.056   4.571  18.571  0.00  0.00    +0.000 OA
ENDROOT
BRANCH   1   9
ATOM      2  C   UNL     1       6.905   4.778  14.671  0.00  0.00    +0.000 A 
ATOM      3  C   UNL     1       5.652   4.199  14.771  0.00  0.00    +0.000 A 
ATOM      4  N   UNL     1       5.424   4.133  16.114  0.00  0.00    +0.000 N 
ATOM      5  C   UNL     1       6.533   4.598  16.756  0.00  0.00    +0.000 A 
ATOM      6  N   UNL     1       7.449   5.016  15.919  0.00  0.00    +0.000 NA
ATOM      7  O   UNL     1       6.698   4.497  18.065  0.00  0.00    +0.000 OA
ATOM      8  C   UNL     1       5.500   4.618  18.824  0.00  0.00    +0.000 C 
ATOM      9  C   UNL     1       4.271   3.841  18.305  0.00  0.00    +0.000 C 
ATOM     10  C   UNL     1       4.313   3.524  16.800  0.00  0.00    +0.000 C 
BRANCH   2  12
ATOM     11  O   UNL     1       8.587   5.870  13.570  0.00  0.00    +0.000 OA
ATOM     12  N   UNL     1       7.641   5.071  13.464  0.00  0.00    +0.000 N 
ATOM     13  O   UNL     1       7.288   4.515  12.413  0.00  0.00    +0.000 OA
ENDBRANCH   2  12
ENDBRANCH   1   9
BRANCH   1  14
ATOM     14  C   UNL     1       3.080   5.310  19.804  0.00  0.00    +0.000 C 
BRANCH  14  15
ATOM     15  C   UNL     1       2.482   6.675  19.654  0.00  0.00    +0.000 A 
ATOM     16  C   UNL     1       2.436   7.473  18.493  0.00  0.00    +0.000 A 
ATOM     17  C   UNL     1       1.753   8.604  18.868  0.00  0.00    +0.000 A 
ATOM     18  N   UNL     1       1.407   8.452  20.194  0.00  0.00    +0.000 N 
ATOM     19  N   UNL     1       1.877   7.275  20.690  0.00  0.00    +0.000 NA
BRANCH  18  20
ATOM     20  C   UNL     1       0.630   9.335  20.999  0.00  0.00    +0.000 A 
ATOM     21  C   UNL     1       0.019  10.471  20.443  0.00  0.00    +0.000 A 
ATOM     22  C   UNL     1      -0.778  11.299  21.238  0.00  0.00    +0.000 A 
ATOM     23  C   UNL     1      -0.958  11.000  22.583  0.00  0.00    +0.000 A 
ATOM     24  F   UNL     1      -1.735  11.789  23.336  0.00  0.00    +0.000 F 
ATOM     25  C   UNL     1      -0.350   9.889  23.154  0.00  0.00    +0.000 A 
ATOM     26  C   UNL     1       0.444   9.053  22.362  0.00  0.00    +0.000 A 
ENDBRANCH  18  20
ENDBRANCH  14  15
ENDBRANCH   1  14
TORSDOF 5
ENDMDL
MODEL 4
REMARK VINA RESULT:      -8.6      0.788      1.015
REMARK  Name = 
REMARK  5 active torsions:
REMARK  status: ('A' for Active; 'I' for Inactive)
REMARK    1  A    between atoms: N_2  and  C_4
REMARK    2  A    between atoms: C_11  and  O_12
REMARK    3  A    between atoms: O_12  and  C_13
REMARK    4  A    between atoms: C_13  and  C_14
REMARK    5  A    between atoms: N_17  and  C_18
REMARK                            x       y       z     vdW  Elec       q    Type
REMARK                         _______ _______ _______ _____ _____    ______ ____
ROOT
ATOM      1  O   UNL     1       3.240   4.907  18.286  0.00  0.00    +0.000 OA
ENDROOT
BRANCH   1   9
ATOM      2  C   UNL     1       7.066   4.962  14.358  0.00  0.00    +0.000 A 
ATOM      3  C   UNL     1       5.931   4.207  14.600  0.00  0.00    +0.000 A 
ATOM      4  N   UNL     1       5.694   4.385  15.932  0.00  0.00    +0.000 N 
ATOM      5  C   UNL     1       6.692   5.159  16.441  0.00  0.00    +0.000 A 
ATOM      6  N   UNL     1       7.537   5.547  15.519  0.00  0.00    +0.000 NA
ATOM      7  O   UNL     1       6.848   5.365  17.739  0.00  0.00    +0.000 OA
ATOM      8  C   UNL     1       5.634   5.431  18.478  0.00  0.00    +0.000 C 
ATOM      9  C   UNL     1       4.569   4.361  18.156  0.00  0.00    +0.000 C 
ATOM     10  C   UNL     1       4.692   3.748  16.749  0.00  0.00    +0.000 C 
BRANCH   2  12
ATOM     11  O   UNL     1       7.327   4.466  12.140  0.00  0.00    +0.000 OA
ATOM     12  N   UNL     1       7.762   5.120  13.103  0.00  0.00    +0.000 N 
ATOM     13  O   UNL     1       8.737   5.886  13.066  0.00  0.00    +0.000 OA
ENDBRANCH   2  12
ENDBRANCH   1   9
BRANCH   1  14
ATOM     14  C   UNL     1       2.961   5.452  19.587  0.00  0.00    +0.000 C 
BRANCH  14  15
ATOM     15  C   UNL     1       2.389   6.834  19.508  0.00  0.00    +0.000 A 
ATOM     16  C   UNL     1       2.386   7.703  18.398  0.00  0.00    +0.000 A 
ATOM     17  C   UNL     1       1.711   8.820  18.825  0.00  0.00    +0.000 A 
ATOM     18  N   UNL     1       1.328   8.593  20.130  0.00  0.00    +0.000 N 
ATOM     19  N   UNL     1       1.766   7.379  20.563  0.00  0.00    +0.000 NA
BRANCH  18  20
ATOM     20  C   UNL     1       0.545   9.438  20.969  0.00  0.00    +0.000 A 
ATOM     21  C   UNL     1       0.253   9.072  22.293  0.00  0.00    +0.000 A 
ATOM     22  C   UNL     1      -0.476   9.934  23.115  0.00  0.00    +0.000 A 
ATOM     23  C   UNL     1      -0.919  11.153  22.617  0.00  0.00    +0.000 A 
ATOM     24  F   UNL     1      -1.605  11.983  23.415  0.00  0.00    +0.000 F 
ATOM     25  C   UNL     1      -0.653  11.527  21.305  0.00  0.00    +0.000 A 
ATOM     26  C   UNL     1       0.081  10.670  20.479  0.00  0.00    +0.000 A 
ENDBRANCH  18  20
ENDBRANCH  14  15
ENDBRANCH   1  14
TORSDOF 5
ENDMDL
MODEL 5
REMARK VINA RESULT:      -8.1      1.229      1.529
REMARK  Name = 
REMARK  5 active torsions:
REMARK  status: ('A' for Active; 'I' for Inactive)
REMARK    1  A    between atoms: N_2  and  C_4
REMARK    2  A    between atoms: C_11  and  O_12
REMARK    3  A    between atoms: O_12  and  C_13
REMARK    4  A    between atoms: C_13  and  C_14
REMARK    5  A    between atoms: N_17  and  C_18
REMARK                            x       y       z     vdW  Elec       q    Type
REMARK                         _______ _______ _______ _____ _____    ______ ____
ROOT
ATOM      1  O   UNL     1       4.305   6.134  19.538  0.00  0.00    +0.000 OA
ENDROOT
BRANCH   1   9
ATOM      2  C   UNL     1       6.873   4.889  14.856  0.00  0.00    +0.000 A 
ATOM      3  C   UNL     1       5.548   4.987  15.242  0.00  0.00    +0.000 A 
ATOM      4  N   UNL     1       5.591   4.886  16.602  0.00  0.00    +0.000 N 
ATOM      5  C   UNL     1       6.885   4.673  16.970  0.00  0.00    +0.000 A 
ATOM      6  N   UNL     1       7.700   4.686  15.945  0.00  0.00    +0.000 NA
ATOM      7  O   UNL     1       7.236   4.354  18.206  0.00  0.00    +0.000 OA
ATOM      8  C   UNL     1       6.439   4.955  19.221  0.00  0.00    +0.000 C 
ATOM      9  C   UNL     1       4.910   4.940  18.999  0.00  0.00    +0.000 C 
ATOM     10  C   UNL     1       4.486   4.820  17.525  0.00  0.00    +0.000 C 
BRANCH   2  12
ATOM     11  O   UNL     1       6.897   4.130  12.698  0.00  0.00    +0.000 OA
ATOM     12  N   UNL     1       7.399   4.924  13.511  0.00  0.00    +0.000 N 
ATOM     13  O   UNL     1       8.305   5.732  13.258  0.00  0.00    +0.000 OA
ENDBRANCH   2  12
ENDBRANCH   1   9
BRANCH   1  14
ATOM     14  C   UNL     1       2.871   6.158  19.427  0.00  0.00    +0.000 C 
BRANCH  14  15
ATOM     15  C   UNL     1       2.362   7.505  19.014  0.00  0.00    +0.000 A 
ATOM     16  C   UNL     1       2.572   8.166  17.787  0.00  0.00    +0.000 A 
ATOM     17  C   UNL     1       1.868   9.341  17.893  0.00  0.00    +0.000 A 
ATOM     18  N   UNL     1       1.264   9.345  19.131  0.00  0.00    +0.000 N 
ATOM     19  N   UNL     1       1.586   8.225  19.836  0.00  0.00    +0.000 NA
BRANCH  18  20
ATOM     20  C   UNL     1       0.375  10.323  19.665  0.00  0.00    +0.000 A 
ATOM     21  C   UNL     1       0.730  11.085  20.791  0.00  0.00    +0.000 A 
ATOM     22  C   UNL     1      -0.134  12.072  21.271  0.00  0.00    +0.000 A 
ATOM     23  C   UNL     1      -1.351  12.293  20.637  0.00  0.00    +0.000 A 
ATOM     24  F   UNL     1      -2.169  13.251  21.093  0.00  0.00    +0.000 F 
ATOM     25  C   UNL     1      -1.726  11.539  19.531  0.00  0.00    +0.000 A 
ATOM     26  C   UNL     1      -0.863  10.554  19.042  0.00  0.00    +0.000 A 
ENDBRANCH  18  20
ENDBRANCH  14  15
ENDBRANCH   1  14
TORSDOF 5
ENDMDL
MODEL 6
REMARK VINA RESULT:      -8.0      2.094      2.899
REMARK  Name = 
REMARK  5 active torsions:
REMARK  status: ('A' for Active; 'I' for Inactive)
REMARK    1  A    between atoms: N_2  and  C_4
REMARK    2  A    between atoms: C_11  and  O_12
REMARK    3  A    between atoms: O_12  and  C_13
REMARK    4  A    between atoms: C_13  and  C_14
REMARK    5  A    between atoms: N_17  and  C_18
REMARK                            x       y       z     vdW  Elec       q    Type
REMARK                         _______ _______ _______ _____ _____    ______ ____
ROOT
ATOM      1  O   UNL     1       1.448   3.987  19.319  0.00  0.00    +0.000 OA
ENDROOT
BRANCH   1   9
ATOM      2  C   UNL     1       6.436   5.777  17.912  0.00  0.00    +0.000 A 
ATOM      3  C   UNL     1       5.216   5.689  17.265  0.00  0.00    +0.000 A 
ATOM      4  N   UNL     1       4.524   4.763  17.988  0.00  0.00    +0.000 N 
ATOM      5  C   UNL     1       5.343   4.294  18.971  0.00  0.00    +0.000 A 
ATOM      6  N   UNL     1       6.506   4.895  18.973  0.00  0.00    +0.000 NA
ATOM      7  O   UNL     1       5.029   3.257  19.731  0.00  0.00    +0.000 OA
ATOM      8  C   UNL     1       3.643   3.142  20.032  0.00  0.00    +0.000 C 
ATOM      9  C   UNL     1       2.660   3.355  18.860  0.00  0.00    +0.000 C 
ATOM     10  C   UNL     1       3.227   4.201  17.706  0.00  0.00    +0.000 C 
BRANCH   2  12
ATOM     11  O   UNL     1       8.199   7.115  18.492  0.00  0.00    +0.000 OA
ATOM     12  N   UNL     1       7.560   6.610  17.553  0.00  0.00    +0.000 N 
ATOM     13  O   UNL     1       7.813   6.766  16.349  0.00  0.00    +0.000 OA
ENDBRANCH   2  12
ENDBRANCH   1   9
BRANCH   1  14
ATOM     14  C   UNL     1       1.583   4.652  20.587  0.00  0.00    +0.000 C 
BRANCH  14  15
ATOM     15  C   UNL     1       1.625   6.142  20.440  0.00  0.00    +0.000 A 
ATOM     16  C   UNL     1       2.297   6.892  19.454  0.00  0.00    +0.000 A 
ATOM     17  C   UNL     1       1.990   8.201  19.735  0.00  0.00    +0.000 A 
ATOM     18  N   UNL     1       1.159   8.200  20.834  0.00  0.00    +0.000 N 
ATOM     19  N   UNL     1       0.951   6.933  21.288  0.00  0.00    +0.000 NA
BRANCH  18  20
ATOM     20  C   UNL     1       0.525   9.317  21.450  0.00  0.00    +0.000 A 
ATOM     21  C   UNL     1       0.584  10.594  20.867  0.00  0.00    +0.000 A 
ATOM     22  C   UNL     1      -0.083  11.669  21.461  0.00  0.00    +0.000 A 
ATOM     23  C   UNL     1      -0.799  11.473  22.636  0.00  0.00    +0.000 A 
ATOM     24  F   UNL     1      -1.450  12.504  23.192  0.00  0.00    +0.000 F 
ATOM     25  C   UNL     1      -0.857  10.220  23.235  0.00  0.00    +0.000 A 
ATOM     26  C   UNL     1      -0.196   9.140  22.643  0.00  0.00    +0.000 A 
ENDBRANCH  18  20
ENDBRANCH  14  15
ENDBRANCH   1  14
TORSDOF 5
ENDMDL
MODEL 7
REMARK VINA RESULT:      -8.0      1.811      2.758
REMARK  Name = 
REMARK  5 active torsions:
REMARK  status: ('A' for Active; 'I' for Inactive)
REMARK    1  A    between atoms: N_2  and  C_4
REMARK    2  A    between atoms: C_11  and  O_12
REMARK    3  A    between atoms: O_12  and  C_13
REMARK    4  A    between atoms: C_13  and  C_14
REMARK    5  A    between atoms: N_17  and  C_18
REMARK                            x       y       z     vdW  Elec       q    Type
REMARK                         _______ _______ _______ _____ _____    ______ ____
ROOT
ATOM      1  O   UNL     1       6.406   5.276  19.649  0.00  0.00    +0.000 OA
ENDROOT
BRANCH   1   9
ATOM      2  C   UNL     1       6.306   4.332  14.249  0.00  0.00    +0.000 A 
ATOM      3  C   UNL     1       6.628   3.576  15.363  0.00  0.00    +0.000 A 
ATOM      4  N   UNL     1       6.879   4.504  16.331  0.00  0.00    +0.000 N 
ATOM      5  C   UNL     1       6.767   5.741  15.771  0.00  0.00    +0.000 A 
ATOM      6  N   UNL     1       6.403   5.685  14.515  0.00  0.00    +0.000 NA
ATOM      7  O   UNL     1       7.125   6.848  16.402  0.00  0.00    +0.000 OA
ATOM      8  C   UNL     1       6.898   6.828  17.807  0.00  0.00    +0.000 C 
ATOM      9  C   UNL     1       7.309   5.542  18.556  0.00  0.00    +0.000 C 
ATOM     10  C   UNL     1       7.361   4.284  17.671  0.00  0.00    +0.000 C 
BRANCH   2  12
ATOM     11  O   UNL     1       6.904   3.687  12.137  0.00  0.00    +0.000 OA
ATOM     12  N   UNL     1       5.963   3.849  12.932  0.00  0.00    +0.000 N 
ATOM     13  O   UNL     1       4.768   3.631  12.681  0.00  0.00    +0.000 OA
ENDBRANCH   2  12
ENDBRANCH   1   9
BRANCH   1  14
ATOM     14  C   UNL     1       5.286   4.448  19.289  0.00  0.00    +0.000 C 
BRANCH  14  15
ATOM     15  C   UNL     1       3.977   5.112  19.589  0.00  0.00    +0.000 A 
ATOM     16  C   UNL     1       2.904   4.599  20.346  0.00  0.00    +0.000 A 
ATOM     17  C   UNL     1       1.966   5.601  20.356  0.00  0.00    +0.000 A 
ATOM     18  N   UNL     1       2.489   6.658  19.641  0.00  0.00    +0.000 N 
ATOM     19  N   UNL     1       3.719   6.351  19.145  0.00  0.00    +0.000 NA
BRANCH  18  20
ATOM     20  C   UNL     1       1.910   7.943  19.436  0.00  0.00    +0.000 A 
ATOM     21  C   UNL     1       1.966   8.569  18.180  0.00  0.00    +0.000 A 
ATOM     22  C   UNL     1       1.351   9.809  17.985  0.00  0.00    +0.000 A 
ATOM     23  C   UNL     1       0.692  10.426  19.041  0.00  0.00    +0.000 A 
ATOM     24  F   UNL     1       0.092  11.608  18.844  0.00  0.00    +0.000 F 
ATOM     25  C   UNL     1       0.640   9.830  20.295  0.00  0.00    +0.000 A 
ATOM     26  C   UNL     1       1.247   8.587  20.495  0.00  0.00    +0.000 A 
ENDBRANCH  18  20
ENDBRANCH  14  15
ENDBRANCH   1  14
TORSDOF 5
ENDMDL
MODEL 8
REMARK VINA RESULT:      -8.0      0.948      1.067
REMARK  Name = 
REMARK  5 active torsions:
REMARK  status: ('A' for Active; 'I' for Inactive)
REMARK    1  A    between atoms: N_2  and  C_4
REMARK    2  A    between atoms: C_11  and  O_12
REMARK    3  A    between atoms: O_12  and  C_13
REMARK    4  A    between atoms: C_13  and  C_14
REMARK    5  A    between atoms: N_17  and  C_18
REMARK                            x       y       z     vdW  Elec       q    Type
REMARK                         _______ _______ _______ _____ _____    ______ ____
ROOT
ATOM      1  O   UNL     1       4.929   6.447  18.562  0.00  0.00    +0.000 OA
ENDROOT
BRANCH   1   9
ATOM      2  C   UNL     1       6.248   4.078  13.796  0.00  0.00    +0.000 A 
ATOM      3  C   UNL     1       5.175   3.983  14.665  0.00  0.00    +0.000 A 
ATOM      4  N   UNL     1       5.661   4.470  15.843  0.00  0.00    +0.000 N 
ATOM      5  C   UNL     1       6.978   4.769  15.668  0.00  0.00    +0.000 A 
ATOM      6  N   UNL     1       7.372   4.564  14.436  0.00  0.00    +0.000 NA
ATOM      7  O   UNL     1       7.779   5.093  16.671  0.00  0.00    +0.000 OA
ATOM      8  C   UNL     1       7.153   5.833  17.712  0.00  0.00    +0.000 C 
ATOM      9  C   UNL     1       5.767   5.337  18.178  0.00  0.00    +0.000 C 
ATOM     10  C   UNL     1       5.005   4.512  17.126  0.00  0.00    +0.000 C 
BRANCH   2  12
ATOM     11  O   UNL     1       7.345   3.914  11.795  0.00  0.00    +0.000 OA
ATOM     12  N   UNL     1       6.288   3.686  12.406  0.00  0.00    +0.000 N 
ATOM     13  O   UNL     1       5.279   3.154  11.919  0.00  0.00    +0.000 OA
ENDBRANCH   2  12
ENDBRANCH   1   9
BRANCH   1  14
ATOM     14  C   UNL     1       3.521   6.156  18.513  0.00  0.00    +0.000 C 
BRANCH  14  15
ATOM     15  C   UNL     1       2.686   7.391  18.656  0.00  0.00    +0.000 A 
ATOM     16  C   UNL     1       2.348   8.323  17.655  0.00  0.00    +0.000 A 
ATOM     17  C   UNL     1       1.541   9.240  18.283  0.00  0.00    +0.000 A 
ATOM     18  N   UNL     1       1.409   8.838  19.595  0.00  0.00    +0.000 N 
ATOM     19  N   UNL     1       2.135   7.711  19.836  0.00  0.00    +0.000 NA
BRANCH  18  20
ATOM     20  C   UNL     1       0.611   9.434  20.614  0.00  0.00    +0.000 A 
ATOM     21  C   UNL     1       0.513   8.852  21.888  0.00  0.00    +0.000 A 
ATOM     22  C   UNL     1      -0.236   9.477  22.890  0.00  0.00    +0.000 A 
ATOM     23  C   UNL     1      -0.890  10.672  22.619  0.00  0.00    +0.000 A 
ATOM     24  F   UNL     1      -1.594  11.274  23.587  0.00  0.00    +0.000 F 
ATOM     25  C   UNL     1      -0.817  11.256  21.359  0.00  0.00    +0.000 A 
ATOM     26  C   UNL     1      -0.064  10.638  20.355  0.00  0.00    +0.000 A 
ENDBRANCH  18  20
ENDBRANCH  14  15
ENDBRANCH   1  14
TORSDOF 5
ENDMDL
MODEL 9
REMARK VINA RESULT:      -7.9      1.733      2.550
REMARK  Name = 
REMARK  5 active torsions:
REMARK  status: ('A' for Active; 'I' for Inactive)
REMARK    1  A    between atoms: N_2  and  C_4
REMARK    2  A    between atoms: C_11  and  O_12
REMARK    3  A    between atoms: O_12  and  C_13
REMARK    4  A    between atoms: C_13  and  C_14
REMARK    5  A    between atoms: N_17  and  C_18
REMARK                            x       y       z     vdW  Elec       q    Type
REMARK                         _______ _______ _______ _____ _____    ______ ____
ROOT
ATOM      1  O   UNL     1       6.470   5.392  19.569  0.00  0.00    +0.000 OA
ENDROOT
BRANCH   1   9
ATOM      2  C   UNL     1       6.376   4.290  14.198  0.00  0.00    +0.000 A 
ATOM      3  C   UNL     1       6.488   3.525  15.346  0.00  0.00    +0.000 A 
ATOM      4  N   UNL     1       6.894   4.414  16.298  0.00  0.00    +0.000 N 
ATOM      5  C   UNL     1       7.068   5.626  15.699  0.00  0.00    +0.000 A 
ATOM      6  N   UNL     1       6.748   5.601  14.430  0.00  0.00    +0.000 NA
ATOM      7  O   UNL     1       7.629   6.655  16.314  0.00  0.00    +0.000 OA
ATOM      8  C   UNL     1       7.350   6.735  17.707  0.00  0.00    +0.000 C 
ATOM      9  C   UNL     1       7.449   5.420  18.510  0.00  0.00    +0.000 C 
ATOM     10  C   UNL     1       7.267   4.147  17.664  0.00  0.00    +0.000 C 
BRANCH   2  12
ATOM     11  O   UNL     1       4.782   3.599  12.710  0.00  0.00    +0.000 OA
ATOM     12  N   UNL     1       5.988   3.842  12.881  0.00  0.00    +0.000 N 
ATOM     13  O   UNL     1       6.871   3.730  12.017  0.00  0.00    +0.000 OA
ENDBRANCH   2  12
ENDBRANCH   1   9
BRANCH   1  14
ATOM     14  C   UNL     1       5.417   4.434  19.361  0.00  0.00    +0.000 C 
BRANCH  14  15
ATOM     15  C   UNL     1       4.136   5.088  18.943  0.00  0.00    +0.000 A 
ATOM     16  C   UNL     1       3.084   4.522  18.195  0.00  0.00    +0.000 A 
ATOM     17  C   UNL     1       2.133   5.511  18.118  0.00  0.00    +0.000 A 
ATOM     18  N   UNL     1       2.618   6.599  18.811  0.00  0.00    +0.000 N 
ATOM     19  N   UNL     1       3.864   6.352  19.300  0.00  0.00    +0.000 NA
BRANCH  18  20
ATOM     20  C   UNL     1       1.958   7.836  19.065  0.00  0.00    +0.000 A 
ATOM     21  C   UNL     1       1.479   8.149  20.348  0.00  0.00    +0.000 A 
ATOM     22  C   UNL     1       0.876   9.386  20.590  0.00  0.00    +0.000 A 
ATOM     23  C   UNL     1       0.744  10.304  19.555  0.00  0.00    +0.000 A 
ATOM     24  F   UNL     1       0.178  11.495  19.796  0.00  0.00    +0.000 F 
ATOM     25  C   UNL     1       1.198  10.006  18.275  0.00  0.00    +0.000 A 
ATOM     26  C   UNL     1       1.807   8.772  18.029  0.00  0.00    +0.000 A 
ENDBRANCH  18  20
ENDBRANCH  14  15
ENDBRANCH   1  14
TORSDOF 5
ENDMDL
