MODEL 1
REMARK VINA RESULT:      -6.8      0.000      0.000
REMARK  Name = 
REMARK  3 active torsions:
REMARK  status: ('A' for Active; 'I' for Inactive)
REMARK    1  A    between atoms: C_2  and  C_21
REMARK    2  A    between atoms: C_7  and  C_8
REMARK    3  A    between atoms: C_14  and  C_15
REMARK                            x       y       z     vdW  Elec       q    Type
REMARK                         _______ _______ _______ _____ _____    ______ ____
ROOT
ATOM      1  O   UNL     1       5.051   6.956  17.459  0.00  0.00    +0.000 OA
ATOM      2  C   UNL     1       4.391   6.054  17.954  0.00  0.00    +0.000 C 
ATOM      3  N   UNL     1       3.124   6.177  18.472  0.00  0.00    +0.000 N 
ATOM      4  C   UNL     1       2.459   7.405  18.534  0.00  0.00    +0.000 A 
ATOM      5  C   UNL     1       2.508   8.357  17.522  0.00  0.00    +0.000 A 
ATOM      6  N   UNL     1       1.908   9.570  17.625  0.00  0.00    +0.000 NA
ATOM      7  C   UNL     1       1.313   9.860  18.818  0.00  0.00    +0.000 A 
ATOM      8  C   UNL     1       1.300   8.894  19.846  0.00  0.00    +0.000 A 
ATOM      9  N   UNL     1       1.789   7.631  19.680  0.00  0.00    +0.000 NA
ATOM     10  H   UNL     1       2.838   5.511  19.174  0.00  0.00    +0.000 HD
ENDROOT
BRANCH   7  11
ATOM     11  C   UNL     1       0.776  11.240  18.917  0.00  0.00    +0.000 A 
ATOM     12  C   UNL     1       1.566  12.349  19.257  0.00  0.00    +0.000 A 
ATOM     13  C   UNL     1       1.017  13.620  19.201  0.00  0.00    +0.000 A 
ATOM     14  N   UNL     1      -0.270  13.870  18.894  0.00  0.00    +0.000 NA
ATOM     15  C   UNL     1      -1.046  12.796  18.641  0.00  0.00    +0.000 A 
ATOM     16  C   UNL     1      -0.577  11.491  18.641  0.00  0.00    +0.000 A 
ENDBRANCH   7  11
BRANCH   8  17
ATOM     17  C   UNL     1       0.907   9.152  21.215  0.00  0.00    +0.000 A 
ATOM     18  C   UNL     1       1.569   9.338  22.406  0.00  0.00    +0.000 A 
ATOM     19  N   UNL     1       0.668   9.565  23.419  0.00  0.00    +0.000 NA
ATOM     20  C   UNL     1      -0.493   9.564  22.801  0.00  0.00    +0.000 A 
ATOM     21  O   UNL     1      -0.430   9.337  21.461  0.00  0.00    +0.000 OA
ENDBRANCH   8  17
BRANCH   2  22
ATOM     22  C   UNL     1       4.964   4.688  18.115  0.00  0.00    +0.000 C 
ATOM     23  C   UNL     1       4.051   3.503  18.336  0.00  0.00    +0.000 C 
ATOM     24  C   UNL     1       4.785   3.644  17.036  0.00  0.00    +0.000 C 
ENDBRANCH   2  22
TORSDOF 3
ENDMDL
MODEL 2
REMARK VINA RESULT:      -6.8      0.944      1.037
REMARK  Name = 
REMARK  3 active torsions:
REMARK  status: ('A' for Active; 'I' for Inactive)
REMARK    1  A    between atoms: C_2  and  C_21
REMARK    2  A    between atoms: C_7  and  C_8
REMARK    3  A    between atoms: C_14  and  C_15
REMARK                            x       y       z     vdW  Elec       q    Type
REMARK                         _______ _______ _______ _____ _____    ______ ____
ROOT
ATOM      1  O   UNL     1       5.063   5.876  18.332  0.00  0.00    +0.000 OA
ATOM      2  C   UNL     1       4.318   5.101  18.912  0.00  0.00    +0.000 C 
ATOM      3  N   UNL     1       3.033   5.373  19.318  0.00  0.00    +0.000 N 
ATOM      4  C   UNL     1       2.449   6.631  19.149  0.00  0.00    +0.000 A 
ATOM      5  C   UNL     1       2.619   7.411  18.010  0.00  0.00    +0.000 A 
ATOM      6  N   UNL     1       2.095   8.656  17.887  0.00  0.00    +0.000 NA
ATOM      7  C   UNL     1       1.452   9.161  18.980  0.00  0.00    +0.000 A 
ATOM      8  C   UNL     1       1.316   8.369  20.139  0.00  0.00    +0.000 A 
ATOM      9  N   UNL     1       1.729   7.070  20.199  0.00  0.00    +0.000 NA
ATOM     10  H   UNL     1       2.664   4.841  20.092  0.00  0.00    +0.000 HD
ENDROOT
BRANCH   7  11
ATOM     11  C   UNL     1       1.003  10.569  18.833  0.00  0.00    +0.000 A 
ATOM     12  C   UNL     1       1.889  11.651  18.730  0.00  0.00    +0.000 A 
ATOM     13  C   UNL     1       1.392  12.917  18.466  0.00  0.00    +0.000 A 
ATOM     14  N   UNL     1       0.081  13.201  18.356  0.00  0.00    +0.000 NA
ATOM     15  C   UNL     1      -0.774  12.171  18.529  0.00  0.00    +0.000 A 
ATOM     16  C   UNL     1      -0.367  10.866  18.765  0.00  0.00    +0.000 A 
ENDBRANCH   7  11
BRANCH   8  17
ATOM     17  C   UNL     1       0.863   8.858  21.424  0.00  0.00    +0.000 A 
ATOM     18  C   UNL     1       1.458   9.446  22.515  0.00  0.00    +0.000 A 
ATOM     19  N   UNL     1       0.518   9.722  23.479  0.00  0.00    +0.000 NA
ATOM     20  C   UNL     1      -0.611   9.345  22.920  0.00  0.00    +0.000 A 
ATOM     21  O   UNL     1      -0.487   8.826  21.667  0.00  0.00    +0.000 OA
ENDBRANCH   8  17
BRANCH   2  22
ATOM     22  C   UNL     1       4.789   3.746  19.316  0.00  0.00    +0.000 C 
ATOM     23  C   UNL     1       3.869   2.818  20.077  0.00  0.00    +0.000 C 
ATOM     24  C   UNL     1       4.230   2.505  18.655  0.00  0.00    +0.000 C 
ENDBRANCH   2  22
TORSDOF 3
ENDMDL
MODEL 3
REMARK VINA RESULT:      -6.7      0.876      1.150
REMARK  Name = 
REMARK  3 active torsions:
REMARK  status: ('A' for Active; 'I' for Inactive)
REMARK    1  A    between atoms: C_2  and  C_21
REMARK    2  A    between atoms: C_7  and  C_8
REMARK    3  A    between atoms: C_14  and  C_15
REMARK                            x       y       z     vdW  Elec       q    Type
REMARK                         _______ _______ _______ _____ _____    ______ ____
ROOT
ATOM      1  O   UNL     1       5.378   7.078  17.492  0.00  0.00    +0.000 OA
ATOM      2  C   UNL     1       4.890   6.137  18.101  0.00  0.00    +0.000 C 
ATOM      3  N   UNL     1       3.631   6.102  18.650  0.00  0.00    +0.000 N 
ATOM      4  C   UNL     1       2.769   7.202  18.611  0.00  0.00    +0.000 A 
ATOM      5  C   UNL     1       2.637   8.036  17.506  0.00  0.00    +0.000 A 
ATOM      6  N   UNL     1       1.842   9.136  17.507  0.00  0.00    +0.000 NA
ATOM      7  C   UNL     1       1.230   9.449  18.686  0.00  0.00    +0.000 A 
ATOM      8  C   UNL     1       1.401   8.610  19.807  0.00  0.00    +0.000 A 
ATOM      9  N   UNL     1       2.092   7.434  19.752  0.00  0.00    +0.000 NA
ATOM     10  H   UNL     1       3.475   5.476  19.426  0.00  0.00    +0.000 HD
ENDROOT
BRANCH   7  11
ATOM     11  C   UNL     1       0.470  10.724  18.664  0.00  0.00    +0.000 A 
ATOM     12  C   UNL     1       1.065  11.977  18.878  0.00  0.00    +0.000 A 
ATOM     13  C   UNL     1       0.310  13.127  18.712  0.00  0.00    +0.000 A 
ATOM     14  N   UNL     1      -1.002  13.127  18.412  0.00  0.00    +0.000 NA
ATOM     15  C   UNL     1      -1.589  11.920  18.281  0.00  0.00    +0.000 A 
ATOM     16  C   UNL     1      -0.907  10.717  18.395  0.00  0.00    +0.000 A 
ENDBRANCH   7  11
BRANCH   8  17
ATOM     17  C   UNL     1       0.997   8.943  21.156  0.00  0.00    +0.000 A 
ATOM     18  C   UNL     1       1.640   9.368  22.295  0.00  0.00    +0.000 A 
ATOM     19  N   UNL     1       0.734   9.546  23.313  0.00  0.00    +0.000 NA
ATOM     20  C   UNL     1      -0.421   9.278  22.744  0.00  0.00    +0.000 A 
ATOM     21  O   UNL     1      -0.347   8.921  21.433  0.00  0.00    +0.000 OA
ENDBRANCH   8  17
BRANCH   2  22
ATOM     22  C   UNL     1       5.688   4.910  18.378  0.00  0.00    +0.000 C 
ATOM     23  C   UNL     1       7.120   4.810  17.903  0.00  0.00    +0.000 C 
ATOM     24  C   UNL     1       6.831   4.940  19.369  0.00  0.00    +0.000 C 
ENDBRANCH   2  22
TORSDOF 3
ENDMDL
MODEL 4
REMARK VINA RESULT:      -6.7      1.072      1.526
REMARK  Name = 
REMARK  3 active torsions:
REMARK  status: ('A' for Active; 'I' for Inactive)
REMARK    1  A    between atoms: C_2  and  C_21
REMARK    2  A    between atoms: C_7  and  C_8
REMARK    3  A    between atoms: C_14  and  C_15
REMARK                            x       y       z     vdW  Elec       q    Type
REMARK                         _______ _______ _______ _____ _____    ______ ____
ROOT
ATOM      1  O   UNL     1       5.043   5.622  18.430  0.00  0.00    +0.000 OA
ATOM      2  C   UNL     1       4.262   4.885  19.013  0.00  0.00    +0.000 C 
ATOM      3  N   UNL     1       2.980   5.209  19.390  0.00  0.00    +0.000 N 
ATOM      4  C   UNL     1       2.442   6.482  19.184  0.00  0.00    +0.000 A 
ATOM      5  C   UNL     1       2.659   7.231  18.032  0.00  0.00    +0.000 A 
ATOM      6  N   UNL     1       2.180   8.490  17.873  0.00  0.00    +0.000 NA
ATOM      7  C   UNL     1       1.536   9.040  18.944  0.00  0.00    +0.000 A 
ATOM      8  C   UNL     1       1.352   8.279  20.116  0.00  0.00    +0.000 A 
ATOM      9  N   UNL     1       1.720   6.967  20.211  0.00  0.00    +0.000 NA
ATOM     10  H   UNL     1       2.580   4.707  20.168  0.00  0.00    +0.000 HD
ENDROOT
BRANCH   7  11
ATOM     11  C   UNL     1       1.138  10.458  18.759  0.00  0.00    +0.000 A 
ATOM     12  C   UNL     1      -0.196  10.892  18.792  0.00  0.00    +0.000 A 
ATOM     13  C   UNL     1      -0.473  12.249  18.740  0.00  0.00    +0.000 A 
ATOM     14  N   UNL     1       0.466  13.203  18.596  0.00  0.00    +0.000 NA
ATOM     15  C   UNL     1       1.742  12.778  18.489  0.00  0.00    +0.000 A 
ATOM     16  C   UNL     1       2.117  11.444  18.563  0.00  0.00    +0.000 A 
ENDBRANCH   7  11
BRANCH   8  17
ATOM     17  C   UNL     1       0.893   8.810  21.382  0.00  0.00    +0.000 A 
ATOM     18  C   UNL     1       1.489   9.406  22.469  0.00  0.00    +0.000 A 
ATOM     19  N   UNL     1       0.542   9.731  23.410  0.00  0.00    +0.000 NA
ATOM     20  C   UNL     1      -0.589   9.374  22.842  0.00  0.00    +0.000 A 
ATOM     21  O   UNL     1      -0.461   8.823  21.604  0.00  0.00    +0.000 OA
ENDBRANCH   8  17
BRANCH   2  22
ATOM     22  C   UNL     1       4.679   3.524  19.454  0.00  0.00    +0.000 C 
ATOM     23  C   UNL     1       3.728   2.658  20.248  0.00  0.00    +0.000 C 
ATOM     24  C   UNL     1       4.063   2.289  18.834  0.00  0.00    +0.000 C 
ENDBRANCH   2  22
TORSDOF 3
ENDMDL
MODEL 5
REMARK VINA RESULT:      -6.7      2.574      7.107
REMARK  Name = 
REMARK  3 active torsions:
REMARK  status: ('A' for Active; 'I' for Inactive)
REMARK    1  A    between atoms: C_2  and  C_21
REMARK    2  A    between atoms: C_7  and  C_8
REMARK    3  A    between atoms: C_14  and  C_15
REMARK                            x       y       z     vdW  Elec       q    Type
REMARK                         _______ _______ _______ _____ _____    ______ ____
ROOT
ATOM      1  O   UNL     1      -0.449  10.390  19.030  0.00  0.00    +0.000 OA
ATOM      2  C   UNL     1      -0.319  10.303  20.242  0.00  0.00    +0.000 C 
ATOM      3  N   UNL     1       0.545   9.459  20.899  0.00  0.00    +0.000 N 
ATOM      4  C   UNL     1       1.354   8.544  20.220  0.00  0.00    +0.000 A 
ATOM      5  C   UNL     1       2.000   8.831  19.022  0.00  0.00    +0.000 A 
ATOM      6  N   UNL     1       2.732   7.910  18.344  0.00  0.00    +0.000 NA
ATOM      7  C   UNL     1       2.740   6.642  18.847  0.00  0.00    +0.000 A 
ATOM      8  C   UNL     1       2.052   6.361  20.046  0.00  0.00    +0.000 A 
ATOM      9  N   UNL     1       1.435   7.326  20.788  0.00  0.00    +0.000 NA
ATOM     10  H   UNL     1       0.311   9.190  21.843  0.00  0.00    +0.000 HD
ENDROOT
BRANCH   7  11
ATOM     11  C   UNL     1       3.455   5.651  18.004  0.00  0.00    +0.000 A 
ATOM     12  C   UNL     1       2.924   4.395  17.676  0.00  0.00    +0.000 A 
ATOM     13  C   UNL     1       3.598   3.582  16.780  0.00  0.00    +0.000 A 
ATOM     14  N   UNL     1       4.788   3.893  16.232  0.00  0.00    +0.000 NA
ATOM     15  C   UNL     1       5.333   5.068  16.607  0.00  0.00    +0.000 A 
ATOM     16  C   UNL     1       4.716   5.960  17.472  0.00  0.00    +0.000 A 
ENDBRANCH   7  11
BRANCH   8  17
ATOM     17  C   UNL     1       1.797   5.032  20.560  0.00  0.00    +0.000 A 
ATOM     18  C   UNL     1       0.818   4.083  20.380  0.00  0.00    +0.000 A 
ATOM     19  N   UNL     1       1.097   2.965  21.131  0.00  0.00    +0.000 NA
ATOM     20  C   UNL     1       2.253   3.253  21.688  0.00  0.00    +0.000 A 
ATOM     21  O   UNL     1       2.751   4.481  21.378  0.00  0.00    +0.000 OA
ENDBRANCH   8  17
BRANCH   2  22
ATOM     22  C   UNL     1      -1.185  11.092  21.163  0.00  0.00    +0.000 C 
ATOM     23  C   UNL     1      -0.927  11.072  22.653  0.00  0.00    +0.000 C 
ATOM     24  C   UNL     1      -0.647  12.319  21.866  0.00  0.00    +0.000 C 
ENDBRANCH   2  22
TORSDOF 3
ENDMDL
MODEL 6
REMARK VINA RESULT:      -6.6      2.628      4.278
REMARK  Name = 
REMARK  3 active torsions:
REMARK  status: ('A' for Active; 'I' for Inactive)
REMARK    1  A    between atoms: C_2  and  C_21
REMARK    2  A    between atoms: C_7  and  C_8
REMARK    3  A    between atoms: C_14  and  C_15
REMARK                            x       y       z     vdW  Elec       q    Type
REMARK                         _______ _______ _______ _____ _____    ______ ____
ROOT
ATOM      1  O   UNL     1       6.791   6.610  16.331  0.00  0.00    +0.000 OA
ATOM      2  C   UNL     1       6.273   5.597  15.884  0.00  0.00    +0.000 C 
ATOM      3  N   UNL     1       4.977   5.195  16.102  0.00  0.00    +0.000 N 
ATOM      4  C   UNL     1       4.105   5.905  16.933  0.00  0.00    +0.000 A 
ATOM      5  C   UNL     1       4.044   7.294  16.974  0.00  0.00    +0.000 A 
ATOM      6  N   UNL     1       3.236   7.968  17.831  0.00  0.00    +0.000 NA
ATOM      7  C   UNL     1       2.534   7.218  18.730  0.00  0.00    +0.000 A 
ATOM      8  C   UNL     1       2.633   5.812  18.696  0.00  0.00    +0.000 A 
ATOM      9  N   UNL     1       3.343   5.144  17.740  0.00  0.00    +0.000 NA
ATOM     10  H   UNL     1       4.773   4.209  16.027  0.00  0.00    +0.000 HD
ENDROOT
BRANCH   7  11
ATOM     11  C   UNL     1       1.760   8.010  19.719  0.00  0.00    +0.000 A 
ATOM     12  C   UNL     1       1.690   7.681  21.081  0.00  0.00    +0.000 A 
ATOM     13  C   UNL     1       1.054   8.544  21.959  0.00  0.00    +0.000 A 
ATOM     14  N   UNL     1       0.429   9.675  21.580  0.00  0.00    +0.000 NA
ATOM     15  C   UNL     1       0.433   9.950  20.260  0.00  0.00    +0.000 A 
ATOM     16  C   UNL     1       1.072   9.164  19.312  0.00  0.00    +0.000 A 
ENDBRANCH   7  11
BRANCH   8  17
ATOM     17  C   UNL     1       2.125   4.924  19.720  0.00  0.00    +0.000 A 
ATOM     18  C   UNL     1       0.975   4.192  19.900  0.00  0.00    +0.000 A 
ATOM     19  N   UNL     1       1.036   3.497  21.085  0.00  0.00    +0.000 NA
ATOM     20  C   UNL     1       2.232   3.787  21.548  0.00  0.00    +0.000 A 
ATOM     21  O   UNL     1       2.960   4.632  20.769  0.00  0.00    +0.000 OA
ENDBRANCH   8  17
BRANCH   2  22
ATOM     22  C   UNL     1       7.065   4.622  15.083  0.00  0.00    +0.000 C 
ATOM     23  C   UNL     1       6.407   3.845  13.965  0.00  0.00    +0.000 C 
ATOM     24  C   UNL     1       7.412   4.910  13.639  0.00  0.00    +0.000 C 
ENDBRANCH   2  22
TORSDOF 3
ENDMDL
MODEL 7
REMARK VINA RESULT:      -6.6      2.551      7.129
REMARK  Name = 
REMARK  3 active torsions:
REMARK  status: ('A' for Active; 'I' for Inactive)
REMARK    1  A    between atoms: C_2  and  C_21
REMARK    2  A    between atoms: C_7  and  C_8
REMARK    3  A    between atoms: C_14  and  C_15
REMARK                            x       y       z     vdW  Elec       q    Type
REMARK                         _______ _______ _______ _____ _____    ______ ____
ROOT
ATOM      1  O   UNL     1      -0.303  10.123  18.246  0.00  0.00    +0.000 OA
ATOM      2  C   UNL     1      -0.227  10.184  19.465  0.00  0.00    +0.000 C 
ATOM      3  N   UNL     1       0.636   9.460  20.253  0.00  0.00    +0.000 N 
ATOM      4  C   UNL     1       1.509   8.507  19.723  0.00  0.00    +0.000 A 
ATOM      5  C   UNL     1       2.200   8.678  18.528  0.00  0.00    +0.000 A 
ATOM      6  N   UNL     1       2.996   7.716  17.995  0.00  0.00    +0.000 NA
ATOM      7  C   UNL     1       3.027   6.517  18.646  0.00  0.00    +0.000 A 
ATOM      8  C   UNL     1       2.295   6.349  19.840  0.00  0.00    +0.000 A 
ATOM      9  N   UNL     1       1.608   7.368  20.435  0.00  0.00    +0.000 NA
ATOM     10  H   UNL     1       0.368   9.294  21.212  0.00  0.00    +0.000 HD
ENDROOT
BRANCH   7  11
ATOM     11  C   UNL     1       3.818   5.465  17.958  0.00  0.00    +0.000 A 
ATOM     12  C   UNL     1       3.238   4.336  17.360  0.00  0.00    +0.000 A 
ATOM     13  C   UNL     1       4.032   3.469  16.627  0.00  0.00    +0.000 A 
ATOM     14  N   UNL     1       5.365   3.603  16.493  0.00  0.00    +0.000 NA
ATOM     15  C   UNL     1       5.931   4.648  17.132  0.00  0.00    +0.000 A 
ATOM     16  C   UNL     1       5.212   5.585  17.860  0.00  0.00    +0.000 A 
ENDBRANCH   7  11
BRANCH   8  17
ATOM     17  C   UNL     1       2.065   5.080  20.496  0.00  0.00    +0.000 A 
ATOM     18  C   UNL     1       2.610   4.422  21.574  0.00  0.00    +0.000 A 
ATOM     19  N   UNL     1       1.978   3.216  21.762  0.00  0.00    +0.000 NA
ATOM     20  C   UNL     1       1.046   3.212  20.835  0.00  0.00    +0.000 A 
ATOM     21  O   UNL     1       1.023   4.315  20.038  0.00  0.00    +0.000 OA
ENDBRANCH   8  17
BRANCH   2  22
ATOM     22  C   UNL     1      -1.163  11.039  20.247  0.00  0.00    +0.000 C 
ATOM     23  C   UNL     1      -0.625  12.052  21.232  0.00  0.00    +0.000 C 
ATOM     24  C   UNL     1      -1.276  12.520  19.964  0.00  0.00    +0.000 C 
ENDBRANCH   2  22
TORSDOF 3
ENDMDL
MODEL 8
REMARK VINA RESULT:      -6.5      2.540      7.033
REMARK  Name = 
REMARK  3 active torsions:
REMARK  status: ('A' for Active; 'I' for Inactive)
REMARK    1  A    between atoms: C_2  and  C_21
REMARK    2  A    between atoms: C_7  and  C_8
REMARK    3  A    between atoms: C_14  and  C_15
REMARK                            x       y       z     vdW  Elec       q    Type
REMARK                         _______ _______ _______ _____ _____    ______ ____
ROOT
ATOM      1  O   UNL     1      -0.384  10.282  18.514  0.00  0.00    +0.000 OA
ATOM      2  C   UNL     1      -0.253  10.302  19.729  0.00  0.00    +0.000 C 
ATOM      3  N   UNL     1       0.637   9.544  20.453  0.00  0.00    +0.000 N 
ATOM      4  C   UNL     1       1.474   8.601  19.853  0.00  0.00    +0.000 A 
ATOM      5  C   UNL     1       2.113   8.805  18.634  0.00  0.00    +0.000 A 
ATOM      6  N   UNL     1       2.874   7.855  18.035  0.00  0.00    +0.000 NA
ATOM      7  C   UNL     1       2.921   6.634  18.643  0.00  0.00    +0.000 A 
ATOM      8  C   UNL     1       2.241   6.433  19.863  0.00  0.00    +0.000 A 
ATOM      9  N   UNL     1       1.593   7.438  20.522  0.00  0.00    +0.000 NA
ATOM     10  H   UNL     1       0.409   9.348  21.417  0.00  0.00    +0.000 HD
ENDROOT
BRANCH   7  11
ATOM     11  C   UNL     1       3.668   5.599  17.886  0.00  0.00    +0.000 A 
ATOM     12  C   UNL     1       5.017   5.736  17.523  0.00  0.00    +0.000 A 
ATOM     13  C   UNL     1       5.675   4.670  16.931  0.00  0.00    +0.000 A 
ATOM     14  N   UNL     1       5.084   3.502  16.617  0.00  0.00    +0.000 NA
ATOM     15  C   UNL     1       3.768   3.400  16.899  0.00  0.00    +0.000 A 
ATOM     16  C   UNL     1       3.035   4.401  17.520  0.00  0.00    +0.000 A 
ENDBRANCH   7  11
BRANCH   8  17
ATOM     17  C   UNL     1       2.028   5.145  20.487  0.00  0.00    +0.000 A 
ATOM     18  C   UNL     1       2.613   4.445  21.516  0.00  0.00    +0.000 A 
ATOM     19  N   UNL     1       1.977   3.240  21.693  0.00  0.00    +0.000 NA
ATOM     20  C   UNL     1       1.003   3.276  20.810  0.00  0.00    +0.000 A 
ATOM     21  O   UNL     1       0.957   4.406  20.052  0.00  0.00    +0.000 OA
ENDBRANCH   8  17
BRANCH   2  22
ATOM     22  C   UNL     1      -1.144  11.138  20.581  0.00  0.00    +0.000 C 
ATOM     23  C   UNL     1      -0.687  11.582  21.952  0.00  0.00    +0.000 C 
ATOM     24  C   UNL     1      -0.816  12.591  20.849  0.00  0.00    +0.000 C 
ENDBRANCH   2  22
TORSDOF 3
ENDMDL
MODEL 9
REMARK VINA RESULT:      -6.5      2.397      7.447
REMARK  Name = 
REMARK  3 active torsions:
REMARK  status: ('A' for Active; 'I' for Inactive)
REMARK    1  A    between atoms: C_2  and  C_21
REMARK    2  A    between atoms: C_7  and  C_8
REMARK    3  A    between atoms: C_14  and  C_15
REMARK                            x       y       z     vdW  Elec       q    Type
REMARK                         _______ _______ _______ _____ _____    ______ ____
ROOT
ATOM      1  O   UNL     1       0.479   9.669  17.798  0.00  0.00    +0.000 OA
ATOM      2  C   UNL     1       0.440   9.505  19.008  0.00  0.00    +0.000 C 
ATOM      3  N   UNL     1       1.279   8.696  19.737  0.00  0.00    +0.000 N 
ATOM      4  C   UNL     1       2.264   7.909  19.136  0.00  0.00    +0.000 A 
ATOM      5  C   UNL     1       3.046   8.338  18.069  0.00  0.00    +0.000 A 
ATOM      6  N   UNL     1       3.956   7.539  17.456  0.00  0.00    +0.000 NA
ATOM      7  C   UNL     1       4.016   6.243  17.879  0.00  0.00    +0.000 A 
ATOM      8  C   UNL     1       3.193   5.815  18.942  0.00  0.00    +0.000 A 
ATOM      9  N   UNL     1       2.382   6.665  19.637  0.00  0.00    +0.000 NA
ATOM     10  H   UNL     1       0.938   8.339  20.618  0.00  0.00    +0.000 HD
ENDROOT
BRANCH   7  11
ATOM     11  C   UNL     1       4.941   5.384  17.098  0.00  0.00    +0.000 A 
ATOM     12  C   UNL     1       4.534   4.627  15.988  0.00  0.00    +0.000 A 
ATOM     13  C   UNL     1       5.484   3.955  15.236  0.00  0.00    +0.000 A 
ATOM     14  N   UNL     1       6.796   3.925  15.536  0.00  0.00    +0.000 NA
ATOM     15  C   UNL     1       7.174   4.592  16.646  0.00  0.00    +0.000 A 
ATOM     16  C   UNL     1       6.300   5.320  17.440  0.00  0.00    +0.000 A 
ENDBRANCH   7  11
BRANCH   8  17
ATOM     17  C   UNL     1       2.999   4.435  19.331  0.00  0.00    +0.000 A 
ATOM     18  C   UNL     1       1.976   3.521  19.227  0.00  0.00    +0.000 A 
ATOM     19  N   UNL     1       2.357   2.318  19.773  0.00  0.00    +0.000 NA
ATOM     20  C   UNL     1       3.604   2.528  20.134  0.00  0.00    +0.000 A 
ATOM     21  O   UNL     1       4.072   3.781  19.884  0.00  0.00    +0.000 OA
ENDBRANCH   8  17
BRANCH   2  22
ATOM     22  C   UNL     1      -0.624  10.145  19.832  0.00  0.00    +0.000 C 
ATOM     23  C   UNL     1      -0.358  10.493  21.279  0.00  0.00    +0.000 C 
ATOM     24  C   UNL     1      -0.502  11.589  20.265  0.00  0.00    +0.000 C 
ENDBRANCH   2  22
TORSDOF 3
ENDMDL
