MODEL 1
REMARK VINA RESULT:      -5.6      0.000      0.000
REMARK  Name = 
REMARK  10 active torsions:
REMARK  status: ('A' for Active; 'I' for Inactive)
REMARK    1  A    between atoms: C_2  and  C_3
REMARK    2  A    between atoms: C_3  and  N_4
REMARK    3  A    between atoms: C_6  and  C_7
REMARK    4  A    between atoms: C_7  and  N_8
REMARK    5  A    between atoms: N_8  and  C_9
REMARK    6  A    between atoms: C_9  and  C_10
REMARK    7  A    between atoms: C_10  and  O_11
REMARK    8  A    between atoms: O_11  and  C_12
REMARK    9  A    between atoms: C_12  and  C_13
REMARK   10  A    between atoms: C_14  and  C_15
REMARK                            x       y       z     vdW  Elec       q    Type
REMARK                         _______ _______ _______ _____ _____    ______ ____
ROOT
ATOM      1  N   UNL     1       6.082   5.051  15.532  0.00  0.00    +0.000 N 
ATOM      2  C   UNL     1       6.111   4.286  16.660  0.00  0.00    +0.000 A 
ATOM      3  C   UNL     1       5.364   4.957  17.612  0.00  0.00    +0.000 A 
ATOM      4  C   UNL     1       4.881   6.106  16.926  0.00  0.00    +0.000 A 
ATOM      5  C   UNL     1       3.995   7.184  17.430  0.00  0.00    +0.000 C 
ATOM      6  N   UNL     1       5.316   6.153  15.657  0.00  0.00    +0.000 NA
ENDROOT
BRANCH   1   7
ATOM      7  C   UNL     1       6.751   4.756  14.270  0.00  0.00    +0.000 C 
BRANCH   7   9
ATOM      8  C   UNL     1       6.290   3.427  12.174  0.00  0.00    +0.000 C 
ATOM      9  C   UNL     1       5.973   3.783  13.425  0.00  0.00    +0.000 C 
ENDBRANCH   7   9
ENDBRANCH   1   7
BRANCH   3  10
ATOM     10  C   UNL     1       5.114   4.553  19.023  0.00  0.00    +0.000 C 
BRANCH  10  11
ATOM     11  N   UNL     1       5.224   3.102  19.110  0.00  0.00    +0.000 NA
ATOM     12  H   UNL     1       6.142   2.850  19.487  0.00  0.00    +0.000 HD
BRANCH  11  13
ATOM     13  C   UNL     1       4.205   2.545  20.005  0.00  0.00    +0.000 C 
BRANCH  13  14
ATOM     14  C   UNL     1       3.013   3.502  20.105  0.00  0.00    +0.000 C 
BRANCH  14  15
ATOM     15  O   UNL     1       1.823   2.825  19.687  0.00  0.00    +0.000 OA
BRANCH  15  16
ATOM     16  C   UNL     1       1.708   2.814  18.267  0.00  0.00    +0.000 C 
ATOM     17  C   UNL     1       1.627   4.245  17.776  0.00  0.00    +0.000 C 
ENDBRANCH  15  16
ENDBRANCH  14  15
ENDBRANCH  13  14
ENDBRANCH  11  13
ENDBRANCH  10  11
ENDBRANCH   3  10
TORSDOF 8
ENDMDL
MODEL 2
REMARK VINA RESULT:      -5.6      1.231      1.493
REMARK  Name = 
REMARK  10 active torsions:
REMARK  status: ('A' for Active; 'I' for Inactive)
REMARK    1  A    between atoms: C_2  and  C_3
REMARK    2  A    between atoms: C_3  and  N_4
REMARK    3  A    between atoms: C_6  and  C_7
REMARK    4  A    between atoms: C_7  and  N_8
REMARK    5  A    between atoms: N_8  and  C_9
REMARK    6  A    between atoms: C_9  and  C_10
REMARK    7  A    between atoms: C_10  and  O_11
REMARK    8  A    between atoms: O_11  and  C_12
REMARK    9  A    between atoms: C_12  and  C_13
REMARK   10  A    between atoms: C_14  and  C_15
REMARK                            x       y       z     vdW  Elec       q    Type
REMARK                         _______ _______ _______ _____ _____    ______ ____
ROOT
ATOM      1  N   UNL     1       6.779   4.834  15.126  0.00  0.00    +0.000 N 
ATOM      2  C   UNL     1       5.862   4.355  16.014  0.00  0.00    +0.000 A 
ATOM      3  C   UNL     1       6.035   5.070  17.186  0.00  0.00    +0.000 A 
ATOM      4  C   UNL     1       7.062   6.003  16.873  0.00  0.00    +0.000 A 
ATOM      5  C   UNL     1       7.651   7.059  17.734  0.00  0.00    +0.000 C 
ATOM      6  N   UNL     1       7.506   5.858  15.614  0.00  0.00    +0.000 NA
ENDROOT
BRANCH   1   7
ATOM      7  C   UNL     1       6.986   4.367  13.760  0.00  0.00    +0.000 C 
BRANCH   7   9
ATOM      8  C   UNL     1       5.712   3.036  12.034  0.00  0.00    +0.000 C 
ATOM      9  C   UNL     1       5.755   3.718  13.185  0.00  0.00    +0.000 C 
ENDBRANCH   7   9
ENDBRANCH   1   7
BRANCH   3  10
ATOM     10  C   UNL     1       5.298   4.906  18.469  0.00  0.00    +0.000 C 
BRANCH  10  11
ATOM     11  N   UNL     1       5.323   3.495  18.834  0.00  0.00    +0.000 NA
ATOM     12  H   UNL     1       6.181   3.290  19.355  0.00  0.00    +0.000 HD
BRANCH  11  13
ATOM     13  C   UNL     1       4.185   3.148  19.690  0.00  0.00    +0.000 C 
BRANCH  13  14
ATOM     14  C   UNL     1       3.299   4.377  19.912  0.00  0.00    +0.000 C 
BRANCH  14  15
ATOM     15  O   UNL     1       1.923   3.991  19.840  0.00  0.00    +0.000 OA
BRANCH  15  16
ATOM     16  C   UNL     1       1.597   3.480  18.551  0.00  0.00    +0.000 C 
ATOM     17  C   UNL     1       0.692   2.276  18.721  0.00  0.00    +0.000 C 
ENDBRANCH  15  16
ENDBRANCH  14  15
ENDBRANCH  13  14
ENDBRANCH  11  13
ENDBRANCH  10  11
ENDBRANCH   3  10
TORSDOF 8
ENDMDL
MODEL 3
REMARK VINA RESULT:      -5.5      1.577      1.944
REMARK  Name = 
REMARK  10 active torsions:
REMARK  status: ('A' for Active; 'I' for Inactive)
REMARK    1  A    between atoms: C_2  and  C_3
REMARK    2  A    between atoms: C_3  and  N_4
REMARK    3  A    between atoms: C_6  and  C_7
REMARK    4  A    between atoms: C_7  and  N_8
REMARK    5  A    between atoms: N_8  and  C_9
REMARK    6  A    between atoms: C_9  and  C_10
REMARK    7  A    between atoms: C_10  and  O_11
REMARK    8  A    between atoms: O_11  and  C_12
REMARK    9  A    between atoms: C_12  and  C_13
REMARK   10  A    between atoms: C_14  and  C_15
REMARK                            x       y       z     vdW  Elec       q    Type
REMARK                         _______ _______ _______ _____ _____    ______ ____
ROOT
ATOM      1  N   UNL     1       6.822   4.951  15.386  0.00  0.00    +0.000 N 
ATOM      2  C   UNL     1       6.040   4.250  16.256  0.00  0.00    +0.000 A 
ATOM      3  C   UNL     1       6.257   4.791  17.509  0.00  0.00    +0.000 A 
ATOM      4  C   UNL     1       7.162   5.863  17.271  0.00  0.00    +0.000 A 
ATOM      5  C   UNL     1       7.732   6.830  18.242  0.00  0.00    +0.000 C 
ATOM      6  N   UNL     1       7.496   5.959  15.975  0.00  0.00    +0.000 NA
ENDROOT
BRANCH   1   7
ATOM      7  C   UNL     1       6.941   4.722  13.951  0.00  0.00    +0.000 C 
BRANCH   7   9
ATOM      8  C   UNL     1       5.873   3.262  12.191  0.00  0.00    +0.000 C 
ATOM      9  C   UNL     1       5.939   3.717  13.448  0.00  0.00    +0.000 C 
ENDBRANCH   7   9
ENDBRANCH   1   7
BRANCH   3  10
ATOM     10  C   UNL     1       5.663   4.357  18.804  0.00  0.00    +0.000 C 
BRANCH  10  11
ATOM     11  N   UNL     1       4.212   4.414  18.683  0.00  0.00    +0.000 NA
ATOM     12  H   UNL     1       3.793   3.649  19.220  0.00  0.00    +0.000 HD
BRANCH  11  13
ATOM     13  C   UNL     1       3.684   5.674  19.213  0.00  0.00    +0.000 C 
BRANCH  13  14
ATOM     14  C   UNL     1       2.438   5.407  20.063  0.00  0.00    +0.000 C 
BRANCH  14  15
ATOM     15  O   UNL     1       2.521   4.094  20.628  0.00  0.00    +0.000 OA
BRANCH  15  16
ATOM     16  C   UNL     1       1.229   3.513  20.776  0.00  0.00    +0.000 C 
ATOM     17  C   UNL     1       0.866   2.804  19.486  0.00  0.00    +0.000 C 
ENDBRANCH  15  16
ENDBRANCH  14  15
ENDBRANCH  13  14
ENDBRANCH  11  13
ENDBRANCH  10  11
ENDBRANCH   3  10
TORSDOF 8
ENDMDL
MODEL 4
REMARK VINA RESULT:      -5.5      2.218      3.690
REMARK  Name = 
REMARK  10 active torsions:
REMARK  status: ('A' for Active; 'I' for Inactive)
REMARK    1  A    between atoms: C_2  and  C_3
REMARK    2  A    between atoms: C_3  and  N_4
REMARK    3  A    between atoms: C_6  and  C_7
REMARK    4  A    between atoms: C_7  and  N_8
REMARK    5  A    between atoms: N_8  and  C_9
REMARK    6  A    between atoms: C_9  and  C_10
REMARK    7  A    between atoms: C_10  and  O_11
REMARK    8  A    between atoms: O_11  and  C_12
REMARK    9  A    between atoms: C_12  and  C_13
REMARK   10  A    between atoms: C_14  and  C_15
REMARK                            x       y       z     vdW  Elec       q    Type
REMARK                         _______ _______ _______ _____ _____    ______ ____
ROOT
ATOM      1  N   UNL     1       7.038   6.121  17.475  0.00  0.00    +0.000 N 
ATOM      2  C   UNL     1       5.922   5.502  17.955  0.00  0.00    +0.000 A 
ATOM      3  C   UNL     1       5.405   4.752  16.914  0.00  0.00    +0.000 A 
ATOM      4  C   UNL     1       6.330   4.954  15.851  0.00  0.00    +0.000 A 
ATOM      5  C   UNL     1       6.315   4.373  14.485  0.00  0.00    +0.000 C 
ATOM      6  N   UNL     1       7.325   5.783  16.202  0.00  0.00    +0.000 NA
ENDROOT
BRANCH   1   7
ATOM      7  C   UNL     1       7.904   7.035  18.209  0.00  0.00    +0.000 C 
BRANCH   7   9
ATOM      8  C   UNL     1       8.479   9.493  18.191  0.00  0.00    +0.000 C 
ATOM      9  C   UNL     1       7.852   8.436  17.660  0.00  0.00    +0.000 C 
ENDBRANCH   7   9
ENDBRANCH   1   7
BRANCH   3  10
ATOM     10  C   UNL     1       4.173   3.916  16.918  0.00  0.00    +0.000 C 
BRANCH  10  11
ATOM     11  N   UNL     1       4.477   2.658  17.589  0.00  0.00    +0.000 NA
ATOM     12  H   UNL     1       4.967   2.848  18.468  0.00  0.00    +0.000 HD
BRANCH  11  13
ATOM     13  C   UNL     1       3.253   1.919  17.910  0.00  0.00    +0.000 C 
BRANCH  13  14
ATOM     14  C   UNL     1       2.233   2.851  18.571  0.00  0.00    +0.000 C 
BRANCH  14  15
ATOM     15  O   UNL     1       2.454   2.872  19.985  0.00  0.00    +0.000 OA
BRANCH  15  16
ATOM     16  C   UNL     1       2.764   4.186  20.440  0.00  0.00    +0.000 C 
ATOM     17  C   UNL     1       1.477   4.980  20.540  0.00  0.00    +0.000 C 
ENDBRANCH  15  16
ENDBRANCH  14  15
ENDBRANCH  13  14
ENDBRANCH  11  13
ENDBRANCH  10  11
ENDBRANCH   3  10
TORSDOF 8
ENDMDL
MODEL 5
REMARK VINA RESULT:      -5.5      1.528      2.289
REMARK  Name = 
REMARK  10 active torsions:
REMARK  status: ('A' for Active; 'I' for Inactive)
REMARK    1  A    between atoms: C_2  and  C_3
REMARK    2  A    between atoms: C_3  and  N_4
REMARK    3  A    between atoms: C_6  and  C_7
REMARK    4  A    between atoms: C_7  and  N_8
REMARK    5  A    between atoms: N_8  and  C_9
REMARK    6  A    between atoms: C_9  and  C_10
REMARK    7  A    between atoms: C_10  and  O_11
REMARK    8  A    between atoms: O_11  and  C_12
REMARK    9  A    between atoms: C_12  and  C_13
REMARK   10  A    between atoms: C_14  and  C_15
REMARK                            x       y       z     vdW  Elec       q    Type
REMARK                         _______ _______ _______ _____ _____    ______ ____
ROOT
ATOM      1  N   UNL     1       6.636   4.488  15.589  0.00  0.00    +0.000 N 
ATOM      2  C   UNL     1       5.469   4.130  16.197  0.00  0.00    +0.000 A 
ATOM      3  C   UNL     1       5.634   4.378  17.547  0.00  0.00    +0.000 A 
ATOM      4  C   UNL     1       6.937   4.941  17.639  0.00  0.00    +0.000 A 
ATOM      5  C   UNL     1       7.651   5.436  18.842  0.00  0.00    +0.000 C 
ATOM      6  N   UNL     1       7.539   5.012  16.442  0.00  0.00    +0.000 NA
ENDROOT
BRANCH   1   7
ATOM      7  C   UNL     1       6.939   4.384  14.167  0.00  0.00    +0.000 C 
BRANCH   7   9
ATOM      8  C   UNL     1       5.907   3.231  12.172  0.00  0.00    +0.000 C 
ATOM      9  C   UNL     1       5.797   3.796  13.381  0.00  0.00    +0.000 C 
ENDBRANCH   7   9
ENDBRANCH   1   7
BRANCH   3  10
ATOM     10  C   UNL     1       4.659   4.126  18.644  0.00  0.00    +0.000 C 
BRANCH  10  11
ATOM     11  N   UNL     1       3.848   5.324  18.820  0.00  0.00    +0.000 NA
ATOM     12  H   UNL     1       4.318   6.123  18.385  0.00  0.00    +0.000 HD
BRANCH  11  13
ATOM     13  C   UNL     1       2.536   5.176  18.183  0.00  0.00    +0.000 C 
BRANCH  13  14
ATOM     14  C   UNL     1       1.802   3.965  18.767  0.00  0.00    +0.000 C 
BRANCH  14  15
ATOM     15  O   UNL     1       1.257   4.310  20.045  0.00  0.00    +0.000 OA
BRANCH  15  16
ATOM     16  C   UNL     1       1.094   3.157  20.865  0.00  0.00    +0.000 C 
ATOM     17  C   UNL     1       2.430   2.818  21.497  0.00  0.00    +0.000 C 
ENDBRANCH  15  16
ENDBRANCH  14  15
ENDBRANCH  13  14
ENDBRANCH  11  13
ENDBRANCH  10  11
ENDBRANCH   3  10
TORSDOF 8
ENDMDL
MODEL 6
REMARK VINA RESULT:      -5.4      1.595      2.155
REMARK  Name = 
REMARK  10 active torsions:
REMARK  status: ('A' for Active; 'I' for Inactive)
REMARK    1  A    between atoms: C_2  and  C_3
REMARK    2  A    between atoms: C_3  and  N_4
REMARK    3  A    between atoms: C_6  and  C_7
REMARK    4  A    between atoms: C_7  and  N_8
REMARK    5  A    between atoms: N_8  and  C_9
REMARK    6  A    between atoms: C_9  and  C_10
REMARK    7  A    between atoms: C_10  and  O_11
REMARK    8  A    between atoms: O_11  and  C_12
REMARK    9  A    between atoms: C_12  and  C_13
REMARK   10  A    between atoms: C_14  and  C_15
REMARK                            x       y       z     vdW  Elec       q    Type
REMARK                         _______ _______ _______ _____ _____    ______ ____
ROOT
ATOM      1  N   UNL     1       6.451   4.930  15.110  0.00  0.00    +0.000 N 
ATOM      2  C   UNL     1       5.222   5.077  15.683  0.00  0.00    +0.000 A 
ATOM      3  C   UNL     1       5.388   5.920  16.767  0.00  0.00    +0.000 A 
ATOM      4  C   UNL     1       6.767   6.269  16.725  0.00  0.00    +0.000 A 
ATOM      5  C   UNL     1       7.522   7.177  17.624  0.00  0.00    +0.000 C 
ATOM      6  N   UNL     1       7.407   5.668  15.709  0.00  0.00    +0.000 NA
ENDROOT
BRANCH   1   7
ATOM      7  C   UNL     1       6.771   4.112  13.947  0.00  0.00    +0.000 C 
BRANCH   7   9
ATOM      8  C   UNL     1       5.559   3.099  11.978  0.00  0.00    +0.000 C 
ATOM      9  C   UNL     1       5.548   3.753  13.146  0.00  0.00    +0.000 C 
ENDBRANCH   7   9
ENDBRANCH   1   7
BRANCH   3  10
ATOM     10  C   UNL     1       4.353   6.367  17.739  0.00  0.00    +0.000 C 
BRANCH  10  11
ATOM     11  N   UNL     1       4.140   5.297  18.705  0.00  0.00    +0.000 NA
ATOM     12  H   UNL     1       4.625   5.522  19.579  0.00  0.00    +0.000 HD
BRANCH  11  13
ATOM     13  C   UNL     1       2.716   5.135  19.012  0.00  0.00    +0.000 C 
BRANCH  13  14
ATOM     14  C   UNL     1       1.967   4.619  17.780  0.00  0.00    +0.000 C 
BRANCH  14  15
ATOM     15  O   UNL     1       2.575   3.404  17.328  0.00  0.00    +0.000 OA
BRANCH  15  16
ATOM     16  C   UNL     1       2.250   2.314  18.186  0.00  0.00    +0.000 C 
ATOM     17  C   UNL     1       3.507   1.506  18.440  0.00  0.00    +0.000 C 
ENDBRANCH  15  16
ENDBRANCH  14  15
ENDBRANCH  13  14
ENDBRANCH  11  13
ENDBRANCH  10  11
ENDBRANCH   3  10
TORSDOF 8
ENDMDL
MODEL 7
REMARK VINA RESULT:      -5.4      1.446      1.968
REMARK  Name = 
REMARK  10 active torsions:
REMARK  status: ('A' for Active; 'I' for Inactive)
REMARK    1  A    between atoms: C_2  and  C_3
REMARK    2  A    between atoms: C_3  and  N_4
REMARK    3  A    between atoms: C_6  and  C_7
REMARK    4  A    between atoms: C_7  and  N_8
REMARK    5  A    between atoms: N_8  and  C_9
REMARK    6  A    between atoms: C_9  and  C_10
REMARK    7  A    between atoms: C_10  and  O_11
REMARK    8  A    between atoms: O_11  and  C_12
REMARK    9  A    between atoms: C_12  and  C_13
REMARK   10  A    between atoms: C_14  and  C_15
REMARK                            x       y       z     vdW  Elec       q    Type
REMARK                         _______ _______ _______ _____ _____    ______ ____
ROOT
ATOM      1  N   UNL     1       6.807   4.997  15.346  0.00  0.00    +0.000 N 
ATOM      2  C   UNL     1       6.017   4.316  16.224  0.00  0.00    +0.000 A 
ATOM      3  C   UNL     1       6.246   4.866  17.472  0.00  0.00    +0.000 A 
ATOM      4  C   UNL     1       7.167   5.921  17.221  0.00  0.00    +0.000 A 
ATOM      5  C   UNL     1       7.754   6.889  18.181  0.00  0.00    +0.000 C 
ATOM      6  N   UNL     1       7.499   6.000  15.923  0.00  0.00    +0.000 NA
ENDROOT
BRANCH   1   7
ATOM      7  C   UNL     1       6.919   4.753  13.913  0.00  0.00    +0.000 C 
BRANCH   7   9
ATOM      8  C   UNL     1       5.892   3.199  12.209  0.00  0.00    +0.000 C 
ATOM      9  C   UNL     1       5.889   3.773  13.419  0.00  0.00    +0.000 C 
ENDBRANCH   7   9
ENDBRANCH   1   7
BRANCH   3  10
ATOM     10  C   UNL     1       5.649   4.453  18.773  0.00  0.00    +0.000 C 
BRANCH  10  11
ATOM     11  N   UNL     1       4.213   4.292  18.586  0.00  0.00    +0.000 NA
ATOM     12  H   UNL     1       3.978   4.427  17.598  0.00  0.00    +0.000 HD
BRANCH  11  13
ATOM     13  C   UNL     1       3.775   2.947  18.970  0.00  0.00    +0.000 C 
BRANCH  13  14
ATOM     14  C   UNL     1       2.245   2.875  18.980  0.00  0.00    +0.000 C 
BRANCH  14  15
ATOM     15  O   UNL     1       1.721   3.993  19.705  0.00  0.00    +0.000 OA
BRANCH  15  16
ATOM     16  C   UNL     1       2.040   3.905  21.090  0.00  0.00    +0.000 C 
ATOM     17  C   UNL     1       1.359   2.681  21.668  0.00  0.00    +0.000 C 
ENDBRANCH  15  16
ENDBRANCH  14  15
ENDBRANCH  13  14
ENDBRANCH  11  13
ENDBRANCH  10  11
ENDBRANCH   3  10
TORSDOF 8
ENDMDL
MODEL 8
REMARK VINA RESULT:      -5.4      2.807      3.454
REMARK  Name = 
REMARK  10 active torsions:
REMARK  status: ('A' for Active; 'I' for Inactive)
REMARK    1  A    between atoms: C_2  and  C_3
REMARK    2  A    between atoms: C_3  and  N_4
REMARK    3  A    between atoms: C_6  and  C_7
REMARK    4  A    between atoms: C_7  and  N_8
REMARK    5  A    between atoms: N_8  and  C_9
REMARK    6  A    between atoms: C_9  and  C_10
REMARK    7  A    between atoms: C_10  and  O_11
REMARK    8  A    between atoms: O_11  and  C_12
REMARK    9  A    between atoms: C_12  and  C_13
REMARK   10  A    between atoms: C_14  and  C_15
REMARK                            x       y       z     vdW  Elec       q    Type
REMARK                         _______ _______ _______ _____ _____    ______ ____
ROOT
ATOM      1  N   UNL     1       6.525   5.987  18.128  0.00  0.00    +0.000 N 
ATOM      2  C   UNL     1       6.402   4.705  18.576  0.00  0.00    +0.000 A 
ATOM      3  C   UNL     1       5.047   4.432  18.630  0.00  0.00    +0.000 A 
ATOM      4  C   UNL     1       4.436   5.618  18.137  0.00  0.00    +0.000 A 
ATOM      5  C   UNL     1       2.994   5.904  17.934  0.00  0.00    +0.000 C 
ATOM      6  N   UNL     1       5.342   6.559  17.826  0.00  0.00    +0.000 NA
ENDROOT
BRANCH   1   7
ATOM      7  C   UNL     1       7.770   6.720  17.932  0.00  0.00    +0.000 C 
BRANCH   7   9
ATOM      8  C   UNL     1       8.245   9.197  18.032  0.00  0.00    +0.000 C 
ATOM      9  C   UNL     1       7.533   8.162  17.570  0.00  0.00    +0.000 C 
ENDBRANCH   7   9
ENDBRANCH   1   7
BRANCH   3  10
ATOM     10  C   UNL     1       4.389   3.176  19.085  0.00  0.00    +0.000 C 
BRANCH  10  11
ATOM     11  N   UNL     1       4.105   2.358  17.912  0.00  0.00    +0.000 NA
ATOM     12  H   UNL     1       4.555   1.444  18.014  0.00  0.00    +0.000 HD
BRANCH  11  13
ATOM     13  C   UNL     1       2.665   2.134  17.758  0.00  0.00    +0.000 C 
BRANCH  13  14
ATOM     14  C   UNL     1       1.974   2.194  19.124  0.00  0.00    +0.000 C 
BRANCH  14  15
ATOM     15  O   UNL     1       1.003   3.247  19.119  0.00  0.00    +0.000 OA
BRANCH  15  16
ATOM     16  C   UNL     1       0.911   3.869  20.397  0.00  0.00    +0.000 C 
ATOM     17  C   UNL     1       1.531   2.951  21.430  0.00  0.00    +0.000 C 
ENDBRANCH  15  16
ENDBRANCH  14  15
ENDBRANCH  13  14
ENDBRANCH  11  13
ENDBRANCH  10  11
ENDBRANCH   3  10
TORSDOF 8
ENDMDL
MODEL 9
REMARK VINA RESULT:      -5.4      2.361      5.559
REMARK  Name = 
REMARK  10 active torsions:
REMARK  status: ('A' for Active; 'I' for Inactive)
REMARK    1  A    between atoms: C_2  and  C_3
REMARK    2  A    between atoms: C_3  and  N_4
REMARK    3  A    between atoms: C_6  and  C_7
REMARK    4  A    between atoms: C_7  and  N_8
REMARK    5  A    between atoms: N_8  and  C_9
REMARK    6  A    between atoms: C_9  and  C_10
REMARK    7  A    between atoms: C_10  and  O_11
REMARK    8  A    between atoms: O_11  and  C_12
REMARK    9  A    between atoms: C_12  and  C_13
REMARK   10  A    between atoms: C_14  and  C_15
REMARK                            x       y       z     vdW  Elec       q    Type
REMARK                         _______ _______ _______ _____ _____    ______ ____
ROOT
ATOM      1  N   UNL     1       2.939   4.113  18.921  0.00  0.00    +0.000 N 
ATOM      2  C   UNL     1       4.223   3.977  19.361  0.00  0.00    +0.000 A 
ATOM      3  C   UNL     1       4.940   5.028  18.819  0.00  0.00    +0.000 A 
ATOM      4  C   UNL     1       3.967   5.776  18.100  0.00  0.00    +0.000 A 
ATOM      5  C   UNL     1       4.144   7.036  17.334  0.00  0.00    +0.000 C 
ATOM      6  N   UNL     1       2.749   5.217  18.172  0.00  0.00    +0.000 NA
ENDROOT
BRANCH   1   7
ATOM      7  C   UNL     1       1.824   3.221  19.217  0.00  0.00    +0.000 C 
BRANCH   7   9
ATOM      8  C   UNL     1       1.323   2.700  21.636  0.00  0.00    +0.000 C 
ATOM      9  C   UNL     1       1.215   3.498  20.566  0.00  0.00    +0.000 C 
ENDBRANCH   7   9
ENDBRANCH   1   7
BRANCH   3  10
ATOM     10  C   UNL     1       6.394   5.312  18.971  0.00  0.00    +0.000 C 
BRANCH  10  11
ATOM     11  N   UNL     1       7.135   4.362  18.151  0.00  0.00    +0.000 NA
ATOM     12  H   UNL     1       6.644   3.463  18.140  0.00  0.00    +0.000 HD
BRANCH  11  13
ATOM     13  C   UNL     1       7.246   4.829  16.766  0.00  0.00    +0.000 C 
BRANCH  13  14
ATOM     14  C   UNL     1       6.454   3.906  15.835  0.00  0.00    +0.000 C 
BRANCH  14  15
ATOM     15  O   UNL     1       5.967   4.661  14.720  0.00  0.00    +0.000 OA
BRANCH  15  16
ATOM     16  C   UNL     1       6.720   4.386  13.542  0.00  0.00    +0.000 C 
ATOM     17  C   UNL     1       5.881   3.523  12.621  0.00  0.00    +0.000 C 
ENDBRANCH  15  16
ENDBRANCH  14  15
ENDBRANCH  13  14
ENDBRANCH  11  13
ENDBRANCH  10  11
ENDBRANCH   3  10
TORSDOF 8
ENDMDL
