MODEL 1
REMARK VINA RESULT:      -8.1      0.000      0.000
REMARK  Name = 
REMARK  5 active torsions:
REMARK  status: ('A' for Active; 'I' for Inactive)
REMARK    1  A    between atoms: C_1  and  O_2
REMARK    2  A    between atoms: O_2  and  C_3
REMARK    3  A    between atoms: C_6  and  C_7
REMARK    4  A    between atoms: C_18  and  C_19
REMARK    5  A    between atoms: C_19  and  C_21
REMARK                            x       y       z     vdW  Elec       q    Type
REMARK                         _______ _______ _______ _____ _____    ______ ____
ROOT
ATOM      1  C   UNL     1       1.283   8.462  20.318  0.00  0.00    +0.000 A 
ATOM      2  N   UNL     1       1.632   7.200  20.817  0.00  0.00    +0.000 NA
ATOM      3  C   UNL     1       2.271   6.471  19.932  0.00  0.00    +0.000 A 
ATOM      4  N   UNL     1       2.652   5.169  20.115  0.00  0.00    +0.000 N 
ATOM      5  C   UNL     1       3.737   4.576  19.342  0.00  0.00    +0.000 C 
ATOM      6  C   UNL     1       3.173   3.692  18.230  0.00  0.00    +0.000 C 
ATOM      7  C   UNL     1       2.660   2.340  18.719  0.00  0.00    +0.000 C 
ATOM      8  C   UNL     1       1.615   2.406  19.835  0.00  0.00    +0.000 C 
ATOM      9  C   UNL     1       2.175   2.937  21.158  0.00  0.00    +0.000 C 
ATOM     10  C   UNL     1       2.158   4.465  21.296  0.00  0.00    +0.000 C 
ATOM     11  S   UNL     1       2.554   7.320  18.457  0.00  0.00    +0.000 S 
ATOM     12  C   UNL     1       1.596   8.649  18.981  0.00  0.00    +0.000 A 
ENDROOT
BRANCH   1  16
ATOM     13  C   UNL     1      -0.811  11.164  22.926  0.00  0.00    +0.000 A 
ATOM     14  C   UNL     1      -0.961   9.783  23.043  0.00  0.00    +0.000 A 
ATOM     15  C   UNL     1      -0.251   8.915  22.206  0.00  0.00    +0.000 A 
ATOM     16  C   UNL     1       0.612   9.410  21.215  0.00  0.00    +0.000 A 
ATOM     17  C   UNL     1       0.747  10.799  21.102  0.00  0.00    +0.000 A 
ATOM     18  C   UNL     1       0.053  11.669  21.957  0.00  0.00    +0.000 A 
BRANCH  13  20
ATOM     19  C   UNL     1      -2.904  12.208  23.325  0.00  0.00    +0.000 C 
ATOM     20  O   UNL     1      -1.588  11.908  23.771  0.00  0.00    +0.000 OA
ENDBRANCH  13  20
ENDBRANCH   1  16
BRANCH  12  21
ATOM     21  C   UNL     1       1.371   9.757  18.068  0.00  0.00    +0.000 C 
ATOM     22  O   UNL     1       2.257  10.254  17.371  0.00  0.00    +0.000 OA
BRANCH  21  23
ATOM     23  C   UNL     1      -0.005  10.341  17.920  0.00  0.00    +0.000 A 
ATOM     24  C   UNL     1      -1.038   9.504  17.479  0.00  0.00    +0.000 A 
ATOM     25  C   UNL     1      -2.348   9.980  17.413  0.00  0.00    +0.000 A 
ATOM     26  C   UNL     1      -2.638  11.293  17.782  0.00  0.00    +0.000 A 
ATOM     27  C   UNL     1      -1.610  12.147  18.177  0.00  0.00    +0.000 A 
ATOM     28  C   UNL     1      -0.293  11.682  18.224  0.00  0.00    +0.000 A 
ENDBRANCH  21  23
ENDBRANCH  12  21
TORSDOF 4
ENDMDL
MODEL 2
REMARK VINA RESULT:      -7.9      0.422      1.354
REMARK  Name = 
REMARK  5 active torsions:
REMARK  status: ('A' for Active; 'I' for Inactive)
REMARK    1  A    between atoms: C_1  and  O_2
REMARK    2  A    between atoms: O_2  and  C_3
REMARK    3  A    between atoms: C_6  and  C_7
REMARK    4  A    between atoms: C_18  and  C_19
REMARK    5  A    between atoms: C_19  and  C_21
REMARK                            x       y       z     vdW  Elec       q    Type
REMARK                         _______ _______ _______ _____ _____    ______ ____
ROOT
ATOM      1  C   UNL     1       1.229   8.397  20.320  0.00  0.00    +0.000 A 
ATOM      2  N   UNL     1       1.609   7.148  20.828  0.00  0.00    +0.000 NA
ATOM      3  C   UNL     1       2.298   6.444  19.962  0.00  0.00    +0.000 A 
ATOM      4  N   UNL     1       2.720   5.156  20.155  0.00  0.00    +0.000 N 
ATOM      5  C   UNL     1       3.847   4.603  19.412  0.00  0.00    +0.000 C 
ATOM      6  C   UNL     1       3.346   3.701  18.285  0.00  0.00    +0.000 C 
ATOM      7  C   UNL     1       2.868   2.331  18.759  0.00  0.00    +0.000 C 
ATOM      8  C   UNL     1       1.791   2.358  19.845  0.00  0.00    +0.000 C 
ATOM      9  C   UNL     1       2.294   2.907  21.183  0.00  0.00    +0.000 C 
ATOM     10  C   UNL     1       2.219   4.433  21.321  0.00  0.00    +0.000 C 
ATOM     11  S   UNL     1       2.592   7.304  18.495  0.00  0.00    +0.000 S 
ATOM     12  C   UNL     1       1.572   8.597  18.993  0.00  0.00    +0.000 A 
ENDROOT
BRANCH   1  16
ATOM     13  C   UNL     1      -0.778  11.176  22.916  0.00  0.00    +0.000 A 
ATOM     14  C   UNL     1       0.085  11.616  21.914  0.00  0.00    +0.000 A 
ATOM     15  C   UNL     1       0.709  10.701  21.058  0.00  0.00    +0.000 A 
ATOM     16  C   UNL     1       0.500   9.319  21.198  0.00  0.00    +0.000 A 
ATOM     17  C   UNL     1      -0.362   8.890  22.215  0.00  0.00    +0.000 A 
ATOM     18  C   UNL     1      -1.006   9.809  23.058  0.00  0.00    +0.000 A 
BRANCH  13  20
ATOM     19  C   UNL     1      -1.272  13.481  23.189  0.00  0.00    +0.000 C 
ATOM     20  O   UNL     1      -1.294  12.160  23.715  0.00  0.00    +0.000 OA
ENDBRANCH  13  20
ENDBRANCH   1  16
BRANCH  12  21
ATOM     21  C   UNL     1       1.334   9.698  18.074  0.00  0.00    +0.000 C 
ATOM     22  O   UNL     1       2.219  10.222  17.397  0.00  0.00    +0.000 OA
BRANCH  21  23
ATOM     23  C   UNL     1      -0.056  10.239  17.895  0.00  0.00    +0.000 A 
ATOM     24  C   UNL     1      -0.296  11.577  18.234  0.00  0.00    +0.000 A 
ATOM     25  C   UNL     1      -1.548  12.147  18.000  0.00  0.00    +0.000 A 
ATOM     26  C   UNL     1      -2.570  11.387  17.431  0.00  0.00    +0.000 A 
ATOM     27  C   UNL     1      -2.354  10.043  17.133  0.00  0.00    +0.000 A 
ATOM     28  C   UNL     1      -1.108   9.462  17.386  0.00  0.00    +0.000 A 
ENDBRANCH  21  23
ENDBRANCH  12  21
TORSDOF 4
ENDMDL
MODEL 3
REMARK VINA RESULT:      -7.8      3.948      8.014
REMARK  Name = 
REMARK  5 active torsions:
REMARK  status: ('A' for Active; 'I' for Inactive)
REMARK    1  A    between atoms: C_1  and  O_2
REMARK    2  A    between atoms: O_2  and  C_3
REMARK    3  A    between atoms: C_6  and  C_7
REMARK    4  A    between atoms: C_18  and  C_19
REMARK    5  A    between atoms: C_19  and  C_21
REMARK                            x       y       z     vdW  Elec       q    Type
REMARK                         _______ _______ _______ _____ _____    ______ ____
ROOT
ATOM      1  C   UNL     1       0.685  11.868  19.022  0.00  0.00    +0.000 A 
ATOM      2  N   UNL     1       1.640  12.885  18.894  0.00  0.00    +0.000 NA
ATOM      3  C   UNL     1       1.106  14.082  18.951  0.00  0.00    +0.000 A 
ATOM      4  N   UNL     1       1.787  15.255  18.765  0.00  0.00    +0.000 N 
ATOM      5  C   UNL     1       1.288  16.519  19.295  0.00  0.00    +0.000 C 
ATOM      6  C   UNL     1       0.644  17.342  18.180  0.00  0.00    +0.000 C 
ATOM      7  C   UNL     1       1.651  18.022  17.256  0.00  0.00    +0.000 C 
ATOM      8  C   UNL     1       2.675  17.086  16.610  0.00  0.00    +0.000 C 
ATOM      9  C   UNL     1       3.655  16.474  17.615  0.00  0.00    +0.000 C 
ATOM     10  C   UNL     1       3.165  15.184  18.286  0.00  0.00    +0.000 C 
ATOM     11  S   UNL     1      -0.594  14.036  19.243  0.00  0.00    +0.000 S 
ATOM     12  C   UNL     1      -0.623  12.323  19.087  0.00  0.00    +0.000 A 
ENDROOT
BRANCH   1  16
ATOM     13  C   UNL     1       2.089   7.807  19.195  0.00  0.00    +0.000 A 
ATOM     14  C   UNL     1       1.458   8.402  20.287  0.00  0.00    +0.000 A 
ATOM     15  C   UNL     1       0.980   9.715  20.205  0.00  0.00    +0.000 A 
ATOM     16  C   UNL     1       1.142  10.474  19.035  0.00  0.00    +0.000 A 
ATOM     17  C   UNL     1       1.786   9.867  17.949  0.00  0.00    +0.000 A 
ATOM     18  C   UNL     1       2.244   8.543  18.023  0.00  0.00    +0.000 A 
BRANCH  13  20
ATOM     19  C   UNL     1       3.207   5.907  18.318  0.00  0.00    +0.000 C 
ATOM     20  O   UNL     1       2.549   6.537  19.410  0.00  0.00    +0.000 OA
ENDBRANCH  13  20
ENDBRANCH   1  16
BRANCH  12  21
ATOM     21  C   UNL     1      -1.898  11.631  19.168  0.00  0.00    +0.000 C 
ATOM     22  O   UNL     1      -2.508  11.450  20.222  0.00  0.00    +0.000 OA
BRANCH  21  23
ATOM     23  C   UNL     1      -2.552  11.113  17.918  0.00  0.00    +0.000 A 
ATOM     24  C   UNL     1      -3.808  11.624  17.566  0.00  0.00    +0.000 A 
ATOM     25  C   UNL     1      -4.412  11.239  16.368  0.00  0.00    +0.000 A 
ATOM     26  C   UNL     1      -3.772  10.340  15.516  0.00  0.00    +0.000 A 
ATOM     27  C   UNL     1      -2.544   9.791  15.881  0.00  0.00    +0.000 A 
ATOM     28  C   UNL     1      -1.945  10.157  17.089  0.00  0.00    +0.000 A 
ENDBRANCH  21  23
ENDBRANCH  12  21
TORSDOF 4
ENDMDL
MODEL 4
REMARK VINA RESULT:      -7.8      2.891      8.539
REMARK  Name = 
REMARK  5 active torsions:
REMARK  status: ('A' for Active; 'I' for Inactive)
REMARK    1  A    between atoms: C_1  and  O_2
REMARK    2  A    between atoms: O_2  and  C_3
REMARK    3  A    between atoms: C_6  and  C_7
REMARK    4  A    between atoms: C_18  and  C_19
REMARK    5  A    between atoms: C_19  and  C_21
REMARK                            x       y       z     vdW  Elec       q    Type
REMARK                         _______ _______ _______ _____ _____    ______ ____
ROOT
ATOM      1  C   UNL     1       3.125   6.540  19.135  0.00  0.00    +0.000 A 
ATOM      2  N   UNL     1       2.780   7.877  18.897  0.00  0.00    +0.000 NA
ATOM      3  C   UNL     1       1.863   8.313  19.729  0.00  0.00    +0.000 A 
ATOM      4  N   UNL     1       1.275   9.547  19.672  0.00  0.00    +0.000 N 
ATOM      5  C   UNL     1       0.650  10.149  20.845  0.00  0.00    +0.000 C 
ATOM      6  C   UNL     1      -0.870  10.014  20.763  0.00  0.00    +0.000 C 
ATOM      7  C   UNL     1      -1.524  10.998  19.796  0.00  0.00    +0.000 C 
ATOM      8  C   UNL     1      -0.977  10.966  18.367  0.00  0.00    +0.000 C 
ATOM      9  C   UNL     1       0.469  11.459  18.261  0.00  0.00    +0.000 C 
ATOM     10  C   UNL     1       1.535  10.382  18.502  0.00  0.00    +0.000 C 
ATOM     11  S   UNL     1       1.424   7.131  20.907  0.00  0.00    +0.000 S 
ATOM     12  C   UNL     1       2.373   5.928  20.125  0.00  0.00    +0.000 A 
ENDROOT
BRANCH   1  16
ATOM     13  C   UNL     1       6.120   4.662  16.686  0.00  0.00    +0.000 A 
ATOM     14  C   UNL     1       4.872   5.006  16.168  0.00  0.00    +0.000 A 
ATOM     15  C   UNL     1       3.918   5.643  16.969  0.00  0.00    +0.000 A 
ATOM     16  C   UNL     1       4.182   5.933  18.318  0.00  0.00    +0.000 A 
ATOM     17  C   UNL     1       5.435   5.574  18.828  0.00  0.00    +0.000 A 
ATOM     18  C   UNL     1       6.401   4.956  18.018  0.00  0.00    +0.000 A 
BRANCH  13  20
ATOM     19  C   UNL     1       6.703   4.202  14.432  0.00  0.00    +0.000 C 
ATOM     20  O   UNL     1       6.951   4.008  15.818  0.00  0.00    +0.000 OA
ENDBRANCH  13  20
ENDBRANCH   1  16
BRANCH  12  21
ATOM     21  C   UNL     1       2.359   4.572  20.647  0.00  0.00    +0.000 C 
ATOM     22  O   UNL     1       2.018   4.289  21.796  0.00  0.00    +0.000 OA
BRANCH  21  23
ATOM     23  C   UNL     1       2.752   3.423  19.763  0.00  0.00    +0.000 A 
ATOM     24  C   UNL     1       1.965   3.153  18.636  0.00  0.00    +0.000 A 
ATOM     25  C   UNL     1       2.342   2.153  17.738  0.00  0.00    +0.000 A 
ATOM     26  C   UNL     1       3.504   1.413  17.959  0.00  0.00    +0.000 A 
ATOM     27  C   UNL     1       4.268   1.643  19.102  0.00  0.00    +0.000 A 
ATOM     28  C   UNL     1       3.882   2.628  20.015  0.00  0.00    +0.000 A 
ENDBRANCH  21  23
ENDBRANCH  12  21
TORSDOF 4
ENDMDL
MODEL 5
REMARK VINA RESULT:      -7.6      3.893      7.833
REMARK  Name = 
REMARK  5 active torsions:
REMARK  status: ('A' for Active; 'I' for Inactive)
REMARK    1  A    between atoms: C_1  and  O_2
REMARK    2  A    between atoms: O_2  and  C_3
REMARK    3  A    between atoms: C_6  and  C_7
REMARK    4  A    between atoms: C_18  and  C_19
REMARK    5  A    between atoms: C_19  and  C_21
REMARK                            x       y       z     vdW  Elec       q    Type
REMARK                         _______ _______ _______ _____ _____    ______ ____
ROOT
ATOM      1  C   UNL     1       0.733  11.713  19.054  0.00  0.00    +0.000 A 
ATOM      2  N   UNL     1       1.705  12.718  18.961  0.00  0.00    +0.000 NA
ATOM      3  C   UNL     1       1.183  13.922  18.993  0.00  0.00    +0.000 A 
ATOM      4  N   UNL     1       1.884  15.086  18.831  0.00  0.00    +0.000 N 
ATOM      5  C   UNL     1       1.379  16.358  19.337  0.00  0.00    +0.000 C 
ATOM      6  C   UNL     1       0.789  17.184  18.195  0.00  0.00    +0.000 C 
ATOM      7  C   UNL     1       1.841  17.849  17.310  0.00  0.00    +0.000 C 
ATOM      8  C   UNL     1       2.879  16.899  16.708  0.00  0.00    +0.000 C 
ATOM      9  C   UNL     1       3.810  16.280  17.753  0.00  0.00    +0.000 C 
ATOM     10  C   UNL     1       3.279  14.998  18.408  0.00  0.00    +0.000 C 
ATOM     11  S   UNL     1      -0.528  13.896  19.218  0.00  0.00    +0.000 S 
ATOM     12  C   UNL     1      -0.570  12.183  19.065  0.00  0.00    +0.000 A 
ENDROOT
BRANCH   1  16
ATOM     13  C   UNL     1       2.094   7.641  19.289  0.00  0.00    +0.000 A 
ATOM     14  C   UNL     1       1.527   8.279  20.391  0.00  0.00    +0.000 A 
ATOM     15  C   UNL     1       1.062   9.595  20.291  0.00  0.00    +0.000 A 
ATOM     16  C   UNL     1       1.173  10.314  19.089  0.00  0.00    +0.000 A 
ATOM     17  C   UNL     1       1.754   9.664  17.993  0.00  0.00    +0.000 A 
ATOM     18  C   UNL     1       2.199   8.336  18.087  0.00  0.00    +0.000 A 
BRANCH  13  20
ATOM     19  C   UNL     1       1.822   5.599  20.468  0.00  0.00    +0.000 C 
ATOM     20  O   UNL     1       2.549   6.371  19.521  0.00  0.00    +0.000 OA
ENDBRANCH  13  20
ENDBRANCH   1  16
BRANCH  12  21
ATOM     21  C   UNL     1      -1.856  11.506  19.097  0.00  0.00    +0.000 C 
ATOM     22  O   UNL     1      -2.449  11.220  20.138  0.00  0.00    +0.000 OA
BRANCH  21  23
ATOM     23  C   UNL     1      -2.543  11.138  17.813  0.00  0.00    +0.000 A 
ATOM     24  C   UNL     1      -1.906  10.232  16.955  0.00  0.00    +0.000 A 
ATOM     25  C   UNL     1      -2.546   9.793  15.795  0.00  0.00    +0.000 A 
ATOM     26  C   UNL     1      -3.824  10.257  15.480  0.00  0.00    +0.000 A 
ATOM     27  C   UNL     1      -4.446  11.193  16.303  0.00  0.00    +0.000 A 
ATOM     28  C   UNL     1      -3.799  11.652  17.454  0.00  0.00    +0.000 A 
ENDBRANCH  21  23
ENDBRANCH  12  21
TORSDOF 4
ENDMDL
MODEL 6
REMARK VINA RESULT:      -7.5      3.939      7.043
REMARK  Name = 
REMARK  5 active torsions:
REMARK  status: ('A' for Active; 'I' for Inactive)
REMARK    1  A    between atoms: C_1  and  O_2
REMARK    2  A    between atoms: O_2  and  C_3
REMARK    3  A    between atoms: C_6  and  C_7
REMARK    4  A    between atoms: C_18  and  C_19
REMARK    5  A    between atoms: C_19  and  C_21
REMARK                            x       y       z     vdW  Elec       q    Type
REMARK                         _______ _______ _______ _____ _____    ______ ____
ROOT
ATOM      1  C   UNL     1       0.673  12.520  20.200  0.00  0.00    +0.000 A 
ATOM      2  N   UNL     1       1.463  13.666  20.361  0.00  0.00    +0.000 NA
ATOM      3  C   UNL     1       2.343  13.806  19.398  0.00  0.00    +0.000 A 
ATOM      4  N   UNL     1       3.302  14.781  19.348  0.00  0.00    +0.000 N 
ATOM      5  C   UNL     1       3.915  15.183  18.086  0.00  0.00    +0.000 C 
ATOM      6  C   UNL     1       5.305  14.562  17.952  0.00  0.00    +0.000 C 
ATOM      7  C   UNL     1       6.372  15.253  18.797  0.00  0.00    +0.000 C 
ATOM      8  C   UNL     1       6.053  15.358  20.290  0.00  0.00    +0.000 C 
ATOM      9  C   UNL     1       4.875  16.289  20.593  0.00  0.00    +0.000 C 
ATOM     10  C   UNL     1       3.495  15.622  20.526  0.00  0.00    +0.000 C 
ATOM     11  S   UNL     1       2.205  12.581  18.191  0.00  0.00    +0.000 S 
ATOM     12  C   UNL     1       1.038  11.727  19.123  0.00  0.00    +0.000 A 
ENDROOT
BRANCH   1  16
ATOM     13  C   UNL     1      -2.469  11.915  23.072  0.00  0.00    +0.000 A 
ATOM     14  C   UNL     1      -2.560  12.909  22.099  0.00  0.00    +0.000 A 
ATOM     15  C   UNL     1      -1.542  13.075  21.153  0.00  0.00    +0.000 A 
ATOM     16  C   UNL     1      -0.397  12.263  21.171  0.00  0.00    +0.000 A 
ATOM     17  C   UNL     1      -0.314  11.275  22.159  0.00  0.00    +0.000 A 
ATOM     18  C   UNL     1      -1.345  11.093  23.094  0.00  0.00    +0.000 A 
BRANCH  13  20
ATOM     19  C   UNL     1      -4.148  13.115  24.244  0.00  0.00    +0.000 C 
ATOM     20  O   UNL     1      -3.505  11.878  23.966  0.00  0.00    +0.000 OA
ENDBRANCH  13  20
ENDBRANCH   1  16
BRANCH  12  21
ATOM     21  C   UNL     1       0.538  10.455  18.629  0.00  0.00    +0.000 C 
ATOM     22  O   UNL     1      -0.523  10.332  18.016  0.00  0.00    +0.000 OA
BRANCH  21  23
ATOM     23  C   UNL     1       1.339   9.201  18.838  0.00  0.00    +0.000 A 
ATOM     24  C   UNL     1       1.311   8.598  20.103  0.00  0.00    +0.000 A 
ATOM     25  C   UNL     1       1.967   7.385  20.318  0.00  0.00    +0.000 A 
ATOM     26  C   UNL     1       2.658   6.767  19.276  0.00  0.00    +0.000 A 
ATOM     27  C   UNL     1       2.731   7.382  18.028  0.00  0.00    +0.000 A 
ATOM     28  C   UNL     1       2.094   8.608  17.814  0.00  0.00    +0.000 A 
ENDBRANCH  21  23
ENDBRANCH  12  21
TORSDOF 4
ENDMDL
MODEL 7
REMARK VINA RESULT:      -7.5      2.922      8.553
REMARK  Name = 
REMARK  5 active torsions:
REMARK  status: ('A' for Active; 'I' for Inactive)
REMARK    1  A    between atoms: C_1  and  O_2
REMARK    2  A    between atoms: O_2  and  C_3
REMARK    3  A    between atoms: C_6  and  C_7
REMARK    4  A    between atoms: C_18  and  C_19
REMARK    5  A    between atoms: C_19  and  C_21
REMARK                            x       y       z     vdW  Elec       q    Type
REMARK                         _______ _______ _______ _____ _____    ______ ____
ROOT
ATOM      1  C   UNL     1       3.082   6.643  19.052  0.00  0.00    +0.000 A 
ATOM      2  N   UNL     1       2.751   7.989  18.846  0.00  0.00    +0.000 NA
ATOM      3  C   UNL     1       1.849   8.419  19.696  0.00  0.00    +0.000 A 
ATOM      4  N   UNL     1       1.275   9.661  19.671  0.00  0.00    +0.000 N 
ATOM      5  C   UNL     1       0.671  10.246  20.863  0.00  0.00    +0.000 C 
ATOM      6  C   UNL     1      -0.852  10.132  20.795  0.00  0.00    +0.000 C 
ATOM      7  C   UNL     1      -1.503  11.145  19.856  0.00  0.00    +0.000 C 
ATOM      8  C   UNL     1      -0.971  11.136  18.421  0.00  0.00    +0.000 C 
ATOM      9  C   UNL     1       0.479  11.613  18.310  0.00  0.00    +0.000 C 
ATOM     10  C   UNL     1       1.534  10.518  18.517  0.00  0.00    +0.000 C 
ATOM     11  S   UNL     1       1.407   7.218  20.854  0.00  0.00    +0.000 S 
ATOM     12  C   UNL     1       2.333   6.020  20.037  0.00  0.00    +0.000 A 
ENDROOT
BRANCH   1  16
ATOM     13  C   UNL     1       6.222   4.990  16.623  0.00  0.00    +0.000 A 
ATOM     14  C   UNL     1       6.474   5.458  17.912  0.00  0.00    +0.000 A 
ATOM     15  C   UNL     1       5.436   5.966  18.701  0.00  0.00    +0.000 A 
ATOM     16  C   UNL     1       4.122   6.040  18.211  0.00  0.00    +0.000 A 
ATOM     17  C   UNL     1       3.884   5.576  16.911  0.00  0.00    +0.000 A 
ATOM     18  C   UNL     1       4.921   5.044  16.128  0.00  0.00    +0.000 A 
BRANCH  13  20
ATOM     19  C   UNL     1       7.312   4.760  14.528  0.00  0.00    +0.000 C 
ATOM     20  O   UNL     1       7.322   4.556  15.935  0.00  0.00    +0.000 OA
ENDBRANCH  13  20
ENDBRANCH   1  16
BRANCH  12  21
ATOM     21  C   UNL     1       2.306   4.654  20.531  0.00  0.00    +0.000 C 
ATOM     22  O   UNL     1       1.925   4.346  21.660  0.00  0.00    +0.000 OA
BRANCH  21  23
ATOM     23  C   UNL     1       2.738   3.524  19.639  0.00  0.00    +0.000 A 
ATOM     24  C   UNL     1       3.931   2.856  19.945  0.00  0.00    +0.000 A 
ATOM     25  C   UNL     1       4.325   1.744  19.198  0.00  0.00    +0.000 A 
ATOM     26  C   UNL     1       3.536   1.295  18.139  0.00  0.00    +0.000 A 
ATOM     27  C   UNL     1       2.373   1.981  17.798  0.00  0.00    +0.000 A 
ATOM     28  C   UNL     1       1.985   3.108  18.529  0.00  0.00    +0.000 A 
ENDBRANCH  21  23
ENDBRANCH  12  21
TORSDOF 4
ENDMDL
MODEL 8
REMARK VINA RESULT:      -7.5      1.118      1.243
REMARK  Name = 
REMARK  5 active torsions:
REMARK  status: ('A' for Active; 'I' for Inactive)
REMARK    1  A    between atoms: C_1  and  O_2
REMARK    2  A    between atoms: O_2  and  C_3
REMARK    3  A    between atoms: C_6  and  C_7
REMARK    4  A    between atoms: C_18  and  C_19
REMARK    5  A    between atoms: C_19  and  C_21
REMARK                            x       y       z     vdW  Elec       q    Type
REMARK                         _______ _______ _______ _____ _____    ______ ____
ROOT
ATOM      1  C   UNL     1       1.812   7.637  20.062  0.00  0.00    +0.000 A 
ATOM      2  N   UNL     1       2.200   6.330  20.387  0.00  0.00    +0.000 NA
ATOM      3  C   UNL     1       2.904   5.766  19.434  0.00  0.00    +0.000 A 
ATOM      4  N   UNL     1       3.336   4.467  19.442  0.00  0.00    +0.000 N 
ATOM      5  C   UNL     1       4.475   4.038  18.637  0.00  0.00    +0.000 C 
ATOM      6  C   UNL     1       3.992   3.306  17.386  0.00  0.00    +0.000 C 
ATOM      7  C   UNL     1       3.524   1.877  17.651  0.00  0.00    +0.000 C 
ATOM      8  C   UNL     1       2.437   1.737  18.719  0.00  0.00    +0.000 C 
ATOM      9  C   UNL     1       2.924   2.089  20.127  0.00  0.00    +0.000 C 
ATOM     10  C   UNL     1       2.833   3.579  20.485  0.00  0.00    +0.000 C 
ATOM     11  S   UNL     1       3.201   6.833  18.111  0.00  0.00    +0.000 S 
ATOM     12  C   UNL     1       2.165   8.031  18.782  0.00  0.00    +0.000 A 
ENDROOT
BRANCH   1  16
ATOM     13  C   UNL     1      -0.482   9.936  22.880  0.00  0.00    +0.000 A 
ATOM     14  C   UNL     1      -1.068   8.918  22.129  0.00  0.00    +0.000 A 
ATOM     15  C   UNL     1      -0.302   8.159  21.237  0.00  0.00    +0.000 A 
ATOM     16  C   UNL     1       1.067   8.415  21.058  0.00  0.00    +0.000 A 
ATOM     17  C   UNL     1       1.641   9.447  21.811  0.00  0.00    +0.000 A 
ATOM     18  C   UNL     1       0.878  10.193  22.724  0.00  0.00    +0.000 A 
BRANCH  13  20
ATOM     19  C   UNL     1      -1.977  11.766  23.105  0.00  0.00    +0.000 C 
ATOM     20  O   UNL     1      -1.340  10.634  23.685  0.00  0.00    +0.000 OA
ENDBRANCH  13  20
ENDBRANCH   1  16
BRANCH  12  21
ATOM     21  C   UNL     1       1.924   9.252  18.030  0.00  0.00    +0.000 C 
ATOM     22  O   UNL     1       2.674   9.666  17.146  0.00  0.00    +0.000 OA
BRANCH  21  23
ATOM     23  C   UNL     1       0.693  10.070  18.302  0.00  0.00    +0.000 A 
ATOM     24  C   UNL     1      -0.540   9.584  17.847  0.00  0.00    +0.000 A 
ATOM     25  C   UNL     1      -1.720  10.265  18.153  0.00  0.00    +0.000 A 
ATOM     26  C   UNL     1      -1.678  11.434  18.912  0.00  0.00    +0.000 A 
ATOM     27  C   UNL     1      -0.453  11.949  19.329  0.00  0.00    +0.000 A 
ATOM     28  C   UNL     1       0.733  11.284  19.006  0.00  0.00    +0.000 A 
ENDBRANCH  21  23
ENDBRANCH  12  21
TORSDOF 4
ENDMDL
MODEL 9
REMARK VINA RESULT:      -7.3      3.680      7.688
REMARK  Name = 
REMARK  5 active torsions:
REMARK  status: ('A' for Active; 'I' for Inactive)
REMARK    1  A    between atoms: C_1  and  O_2
REMARK    2  A    between atoms: O_2  and  C_3
REMARK    3  A    between atoms: C_6  and  C_7
REMARK    4  A    between atoms: C_18  and  C_19
REMARK    5  A    between atoms: C_19  and  C_21
REMARK                            x       y       z     vdW  Elec       q    Type
REMARK                         _______ _______ _______ _____ _____    ______ ____
ROOT
ATOM      1  C   UNL     1       1.151  10.978  19.008  0.00  0.00    +0.000 A 
ATOM      2  N   UNL     1       2.063  12.042  19.016  0.00  0.00    +0.000 NA
ATOM      3  C   UNL     1       1.469  13.208  19.114  0.00  0.00    +0.000 A 
ATOM      4  N   UNL     1       2.104  14.419  19.055  0.00  0.00    +0.000 N 
ATOM      5  C   UNL     1       1.510  15.621  19.631  0.00  0.00    +0.000 C 
ATOM      6  C   UNL     1       0.904  16.490  18.531  0.00  0.00    +0.000 C 
ATOM      7  C   UNL     1       1.938  17.276  17.727  0.00  0.00    +0.000 C 
ATOM      8  C   UNL     1       3.047  16.432  17.094  0.00  0.00    +0.000 C 
ATOM      9  C   UNL     1       3.985  15.795  18.123  0.00  0.00    +0.000 C 
ATOM     10  C   UNL     1       3.513  14.441  18.672  0.00  0.00    +0.000 C 
ATOM     11  S   UNL     1      -0.242  13.068  19.282  0.00  0.00    +0.000 S 
ATOM     12  C   UNL     1      -0.178  11.370  19.011  0.00  0.00    +0.000 A 
ENDROOT
BRANCH   1  16
ATOM     13  C   UNL     1       2.611   6.942  18.738  0.00  0.00    +0.000 A 
ATOM     14  C   UNL     1       2.692   7.815  17.655  0.00  0.00    +0.000 A 
ATOM     15  C   UNL     1       2.239   9.134  17.767  0.00  0.00    +0.000 A 
ATOM     16  C   UNL     1       1.673   9.607  18.962  0.00  0.00    +0.000 A 
ATOM     17  C   UNL     1       1.589   8.717  20.040  0.00  0.00    +0.000 A 
ATOM     18  C   UNL     1       2.066   7.401  19.935  0.00  0.00    +0.000 A 
BRANCH  13  20
ATOM     19  C   UNL     1       2.824   4.713  19.523  0.00  0.00    +0.000 C 
ATOM     20  O   UNL     1       3.047   5.669  18.494  0.00  0.00    +0.000 OA
ENDBRANCH  13  20
ENDBRANCH   1  16
BRANCH  12  21
ATOM     21  C   UNL     1      -1.422  10.620  18.956  0.00  0.00    +0.000 C 
ATOM     22  O   UNL     1      -1.834   9.918  19.880  0.00  0.00    +0.000 OA
BRANCH  21  23
ATOM     23  C   UNL     1      -2.291  10.695  17.732  0.00  0.00    +0.000 A 
ATOM     24  C   UNL     1      -1.942   9.916  16.621  0.00  0.00    +0.000 A 
ATOM     25  C   UNL     1      -2.768   9.886  15.497  0.00  0.00    +0.000 A 
ATOM     26  C   UNL     1      -3.945  10.635  15.471  0.00  0.00    +0.000 A 
ATOM     27  C   UNL     1      -4.276  11.449  16.552  0.00  0.00    +0.000 A 
ATOM     28  C   UNL     1      -3.440  11.499  17.671  0.00  0.00    +0.000 A 
ENDBRANCH  21  23
ENDBRANCH  12  21
TORSDOF 4
ENDMDL
