MODEL 1
REMARK VINA RESULT:      -6.9      0.000      0.000
REMARK  Name = 
REMARK  5 active torsions:
REMARK  status: ('A' for Active; 'I' for Inactive)
REMARK    1  A    between atoms: C_1  and  C_2
REMARK    2  A    between atoms: C_9  and  C_10
REMARK    3  A    between atoms: C_12  and  C_13
REMARK    4  A    between atoms: N_14  and  C_15
REMARK    5  A    between atoms: C_21  and  C_22
REMARK                            x       y       z     vdW  Elec       q    Type
REMARK                         _______ _______ _______ _____ _____    ______ ____
ROOT
ATOM      1  C   UNL     1       5.333   4.051  17.208  0.00  0.00    +0.000 C 
ATOM      2  C   UNL     1       4.606   5.286  17.614  0.00  0.00    +0.000 C 
ATOM      3  C   UNL     1       4.622   6.422  16.912  0.00  0.00    +0.000 C 
ATOM      4  C   UNL     1       3.617   7.183  17.638  0.00  0.00    +0.000 C 
ATOM      5  N   UNL     1       3.192   8.332  17.248  0.00  0.00    +0.000 NA
ATOM      6  C   UNL     1       2.141   8.919  17.932  0.00  0.00    +0.000 C 
ATOM      7  O   UNL     1       1.568   9.874  17.427  0.00  0.00    +0.000 OA
ATOM      8  C   UNL     1       1.701   8.319  19.270  0.00  0.00    +0.000 C 
ATOM      9  C   UNL     1       0.700   8.875  19.991  0.00  0.00    +0.000 C 
ATOM     10  C   UNL     1       2.353   7.000  19.703  0.00  0.00    +0.000 C 
ATOM     11  N   UNL     1       2.173   6.411  20.841  0.00  0.00    +0.000 NA
ATOM     12  N   UNL     1       3.187   6.519  18.728  0.00  0.00    +0.000 N 
ATOM     13  O   UNL     1       3.806   5.264  18.782  0.00  0.00    +0.000 OA
ATOM     14  H   UNL     1       1.558   6.925  21.473  0.00  0.00    +0.000 HD
ENDROOT
BRANCH   9  15
ATOM     15  C   UNL     1      -0.083  10.024  19.643  0.00  0.00    +0.000 A 
ATOM     16  C   UNL     1      -1.281  10.038  18.910  0.00  0.00    +0.000 A 
ATOM     17  C   UNL     1      -1.679  11.356  18.773  0.00  0.00    +0.000 A 
ATOM     18  C   UNL     1      -2.807  11.842  17.923  0.00  0.00    +0.000 C 
ATOM     19  N   UNL     1      -0.778  12.172  19.473  0.00  0.00    +0.000 N 
ATOM     20  C   UNL     1       0.213  11.329  20.011  0.00  0.00    +0.000 A 
ATOM     21  C   UNL     1       1.311  11.750  20.936  0.00  0.00    +0.000 C 
BRANCH  19  22
ATOM     22  C   UNL     1      -0.842  13.607  19.562  0.00  0.00    +0.000 A 
ATOM     23  C   UNL     1      -1.648  14.233  20.525  0.00  0.00    +0.000 A 
ATOM     24  C   UNL     1      -1.774  15.627  20.565  0.00  0.00    +0.000 A 
ATOM     25  C   UNL     1      -1.048  16.416  19.680  0.00  0.00    +0.000 A 
ATOM     26  C   UNL     1      -0.212  15.813  18.746  0.00  0.00    +0.000 A 
ATOM     27  C   UNL     1      -0.127  14.417  18.670  0.00  0.00    +0.000 A 
ENDBRANCH  19  22
ENDBRANCH   9  15
TORSDOF 2
ENDMDL
MODEL 2
REMARK VINA RESULT:      -6.9      1.957      2.424
REMARK  Name = 
REMARK  5 active torsions:
REMARK  status: ('A' for Active; 'I' for Inactive)
REMARK    1  A    between atoms: C_1  and  C_2
REMARK    2  A    between atoms: C_9  and  C_10
REMARK    3  A    between atoms: C_12  and  C_13
REMARK    4  A    between atoms: N_14  and  C_15
REMARK    5  A    between atoms: C_21  and  C_22
REMARK                            x       y       z     vdW  Elec       q    Type
REMARK                         _______ _______ _______ _____ _____    ______ ____
ROOT
ATOM      1  C   UNL     1       4.989   3.899  16.593  0.00  0.00    +0.000 C 
ATOM      2  C   UNL     1       4.366   5.021  17.348  0.00  0.00    +0.000 C 
ATOM      3  C   UNL     1       4.374   6.290  16.933  0.00  0.00    +0.000 C 
ATOM      4  C   UNL     1       3.480   6.884  17.915  0.00  0.00    +0.000 C 
ATOM      5  N   UNL     1       3.078   8.104  17.851  0.00  0.00    +0.000 NA
ATOM      6  C   UNL     1       2.127   8.540  18.757  0.00  0.00    +0.000 C 
ATOM      7  O   UNL     1       1.558   9.602  18.550  0.00  0.00    +0.000 OA
ATOM      8  C   UNL     1       1.783   7.651  19.956  0.00  0.00    +0.000 C 
ATOM      9  C   UNL     1       0.883   8.047  20.884  0.00  0.00    +0.000 C 
ATOM     10  C   UNL     1       2.406   6.250  19.999  0.00  0.00    +0.000 C 
ATOM     11  N   UNL     1       2.303   5.413  20.980  0.00  0.00    +0.000 NA
ATOM     12  N   UNL     1       3.120   5.992  18.859  0.00  0.00    +0.000 N 
ATOM     13  O   UNL     1       3.677   4.744  18.555  0.00  0.00    +0.000 OA
ATOM     14  H   UNL     1       1.775   5.778  21.774  0.00  0.00    +0.000 HD
ENDROOT
BRANCH   9  15
ATOM     15  C   UNL     1       0.129   9.266  20.897  0.00  0.00    +0.000 A 
ATOM     16  C   UNL     1      -0.448   9.913  19.792  0.00  0.00    +0.000 A 
ATOM     17  C   UNL     1      -1.049  11.073  20.246  0.00  0.00    +0.000 A 
ATOM     18  C   UNL     1      -1.635  12.144  19.386  0.00  0.00    +0.000 C 
ATOM     19  N   UNL     1      -0.915  11.132  21.641  0.00  0.00    +0.000 N 
ATOM     20  C   UNL     1      -0.178   9.999  22.035  0.00  0.00    +0.000 A 
ATOM     21  C   UNL     1       0.101   9.584  23.445  0.00  0.00    +0.000 C 
BRANCH  19  22
ATOM     22  C   UNL     1      -1.399  12.192  22.486  0.00  0.00    +0.000 A 
ATOM     23  C   UNL     1      -2.634  12.083  23.142  0.00  0.00    +0.000 A 
ATOM     24  C   UNL     1      -3.144  13.142  23.901  0.00  0.00    +0.000 A 
ATOM     25  C   UNL     1      -2.398  14.304  24.063  0.00  0.00    +0.000 A 
ATOM     26  C   UNL     1      -1.152  14.413  23.452  0.00  0.00    +0.000 A 
ATOM     27  C   UNL     1      -0.666  13.375  22.648  0.00  0.00    +0.000 A 
ENDBRANCH  19  22
ENDBRANCH   9  15
TORSDOF 2
ENDMDL
MODEL 3
REMARK VINA RESULT:      -6.6      2.860      8.591
REMARK  Name = 
REMARK  5 active torsions:
REMARK  status: ('A' for Active; 'I' for Inactive)
REMARK    1  A    between atoms: C_1  and  C_2
REMARK    2  A    between atoms: C_9  and  C_10
REMARK    3  A    between atoms: C_12  and  C_13
REMARK    4  A    between atoms: N_14  and  C_15
REMARK    5  A    between atoms: C_21  and  C_22
REMARK                            x       y       z     vdW  Elec       q    Type
REMARK                         _______ _______ _______ _____ _____    ______ ____
ROOT
ATOM      1  C   UNL     1      -2.368  12.101  23.347  0.00  0.00    +0.000 C 
ATOM      2  C   UNL     1      -1.345  11.331  22.586  0.00  0.00    +0.000 C 
ATOM      3  C   UNL     1      -0.537  10.423  23.138  0.00  0.00    +0.000 C 
ATOM      4  C   UNL     1       0.076   9.868  21.941  0.00  0.00    +0.000 C 
ATOM      5  N   UNL     1       0.862   8.851  21.963  0.00  0.00    +0.000 NA
ATOM      6  C   UNL     1       1.292   8.315  20.761  0.00  0.00    +0.000 C 
ATOM      7  O   UNL     1       1.822   7.214  20.761  0.00  0.00    +0.000 OA
ATOM      8  C   UNL     1       1.039   9.098  19.469  0.00  0.00    +0.000 C 
ATOM      9  C   UNL     1       1.467   8.632  18.274  0.00  0.00    +0.000 C 
ATOM     10  C   UNL     1       0.181  10.366  19.567  0.00  0.00    +0.000 C 
ATOM     11  N   UNL     1      -0.046  11.195  18.599  0.00  0.00    +0.000 NA
ATOM     12  N   UNL     1      -0.309  10.534  20.834  0.00  0.00    +0.000 N 
ATOM     13  O   UNL     1      -1.238  11.521  21.186  0.00  0.00    +0.000 OA
ATOM     14  H   UNL     1       0.431  10.948  17.731  0.00  0.00    +0.000 HD
ENDROOT
BRANCH   9  15
ATOM     15  C   UNL     1       2.159   7.402  18.020  0.00  0.00    +0.000 A 
ATOM     16  C   UNL     1       1.608   6.110  18.010  0.00  0.00    +0.000 A 
ATOM     17  C   UNL     1       2.633   5.215  17.761  0.00  0.00    +0.000 A 
ATOM     18  C   UNL     1       2.524   3.726  17.829  0.00  0.00    +0.000 C 
ATOM     19  N   UNL     1       3.817   5.935  17.545  0.00  0.00    +0.000 N 
ATOM     20  C   UNL     1       3.508   7.299  17.711  0.00  0.00    +0.000 A 
ATOM     21  C   UNL     1       4.438   8.442  17.455  0.00  0.00    +0.000 C 
BRANCH  19  22
ATOM     22  C   UNL     1       5.107   5.363  17.266  0.00  0.00    +0.000 A 
ATOM     23  C   UNL     1       6.107   5.325  18.250  0.00  0.00    +0.000 A 
ATOM     24  C   UNL     1       7.387   4.840  17.960  0.00  0.00    +0.000 A 
ATOM     25  C   UNL     1       7.668   4.330  16.697  0.00  0.00    +0.000 A 
ATOM     26  C   UNL     1       6.676   4.323  15.721  0.00  0.00    +0.000 A 
ATOM     27  C   UNL     1       5.411   4.858  15.994  0.00  0.00    +0.000 A 
ENDBRANCH  19  22
ENDBRANCH   9  15
TORSDOF 2
ENDMDL
MODEL 4
REMARK VINA RESULT:      -6.5      3.600      5.215
REMARK  Name = 
REMARK  5 active torsions:
REMARK  status: ('A' for Active; 'I' for Inactive)
REMARK    1  A    between atoms: C_1  and  C_2
REMARK    2  A    between atoms: C_9  and  C_10
REMARK    3  A    between atoms: C_12  and  C_13
REMARK    4  A    between atoms: N_14  and  C_15
REMARK    5  A    between atoms: C_21  and  C_22
REMARK                            x       y       z     vdW  Elec       q    Type
REMARK                         _______ _______ _______ _____ _____    ______ ____
ROOT
ATOM      1  C   UNL     1       2.208   7.828  17.903  0.00  0.00    +0.000 C 
ATOM      2  C   UNL     1       1.539   8.878  18.721  0.00  0.00    +0.000 C 
ATOM      3  C   UNL     1       0.892   9.924  18.201  0.00  0.00    +0.000 C 
ATOM      4  C   UNL     1       0.289  10.474  19.406  0.00  0.00    +0.000 C 
ATOM      5  N   UNL     1      -0.547  11.450  19.389  0.00  0.00    +0.000 NA
ATOM      6  C   UNL     1      -1.166  11.817  20.571  0.00  0.00    +0.000 C 
ATOM      7  O   UNL     1      -2.136  12.560  20.524  0.00  0.00    +0.000 OA
ATOM      8  C   UNL     1      -0.648  11.236  21.890  0.00  0.00    +0.000 C 
ATOM      9  C   UNL     1      -1.200  11.587  23.073  0.00  0.00    +0.000 C 
ATOM     10  C   UNL     1       0.436  10.154  21.808  0.00  0.00    +0.000 C 
ATOM     11  N   UNL     1       1.052   9.631  22.819  0.00  0.00    +0.000 NA
ATOM     12  N   UNL     1       0.697   9.813  20.508  0.00  0.00    +0.000 N 
ATOM     13  O   UNL     1       1.533   8.755  20.132  0.00  0.00    +0.000 OA
ATOM     14  H   UNL     1       0.773  10.028  23.717  0.00  0.00    +0.000 HD
ENDROOT
BRANCH   9  15
ATOM     15  C   UNL     1      -2.301  12.480  23.285  0.00  0.00    +0.000 A 
ATOM     16  C   UNL     1      -3.651  12.131  23.449  0.00  0.00    +0.000 A 
ATOM     17  C   UNL     1      -4.378  13.300  23.589  0.00  0.00    +0.000 A 
ATOM     18  C   UNL     1      -5.868  13.400  23.618  0.00  0.00    +0.000 C 
ATOM     19  N   UNL     1      -3.489  14.384  23.583  0.00  0.00    +0.000 N 
ATOM     20  C   UNL     1      -2.196  13.860  23.392  0.00  0.00    +0.000 A 
ATOM     21  C   UNL     1      -0.921  14.640  23.441  0.00  0.00    +0.000 C 
BRANCH  19  22
ATOM     22  C   UNL     1      -3.858  15.771  23.694  0.00  0.00    +0.000 A 
ATOM     23  C   UNL     1      -4.003  16.379  24.950  0.00  0.00    +0.000 A 
ATOM     24  C   UNL     1      -4.437  17.705  25.064  0.00  0.00    +0.000 A 
ATOM     25  C   UNL     1      -4.676  18.459  23.921  0.00  0.00    +0.000 A 
ATOM     26  C   UNL     1      -4.498  17.884  22.666  0.00  0.00    +0.000 A 
ATOM     27  C   UNL     1      -4.116  16.541  22.552  0.00  0.00    +0.000 A 
ENDBRANCH  19  22
ENDBRANCH   9  15
TORSDOF 2
ENDMDL
MODEL 5
REMARK VINA RESULT:      -6.5      2.569      4.057
REMARK  Name = 
REMARK  5 active torsions:
REMARK  status: ('A' for Active; 'I' for Inactive)
REMARK    1  A    between atoms: C_1  and  C_2
REMARK    2  A    between atoms: C_9  and  C_10
REMARK    3  A    between atoms: C_12  and  C_13
REMARK    4  A    between atoms: N_14  and  C_15
REMARK    5  A    between atoms: C_21  and  C_22
REMARK                            x       y       z     vdW  Elec       q    Type
REMARK                         _______ _______ _______ _____ _____    ______ ____
ROOT
ATOM      1  C   UNL     1       4.035   5.239  19.066  0.00  0.00    +0.000 C 
ATOM      2  C   UNL     1       2.999   6.275  19.332  0.00  0.00    +0.000 C 
ATOM      3  C   UNL     1       2.158   6.235  20.368  0.00  0.00    +0.000 C 
ATOM      4  C   UNL     1       1.542   7.547  20.246  0.00  0.00    +0.000 C 
ATOM      5  N   UNL     1       0.726   8.023  21.118  0.00  0.00    +0.000 NA
ATOM      6  C   UNL     1       0.294   9.331  20.982  0.00  0.00    +0.000 C 
ATOM      7  O   UNL     1      -0.269   9.868  21.926  0.00  0.00    +0.000 OA
ATOM      8  C   UNL     1       0.584  10.074  19.676  0.00  0.00    +0.000 C 
ATOM      9  C   UNL     1       0.156  11.343  19.483  0.00  0.00    +0.000 C 
ATOM     10  C   UNL     1       1.478   9.373  18.646  0.00  0.00    +0.000 C 
ATOM     11  N   UNL     1       1.741   9.811  17.457  0.00  0.00    +0.000 NA
ATOM     12  N   UNL     1       1.959   8.187  19.136  0.00  0.00    +0.000 N 
ATOM     13  O   UNL     1       2.913   7.402  18.478  0.00  0.00    +0.000 OA
ATOM     14  H   UNL     1       1.267  10.686  17.231  0.00  0.00    +0.000 HD
ENDROOT
BRANCH   9  15
ATOM     15  C   UNL     1      -0.569  12.163  20.408  0.00  0.00    +0.000 A 
ATOM     16  C   UNL     1      -0.034  12.932  21.454  0.00  0.00    +0.000 A 
ATOM     17  C   UNL     1      -1.086  13.535  22.120  0.00  0.00    +0.000 A 
ATOM     18  C   UNL     1      -0.983  14.305  23.395  0.00  0.00    +0.000 C 
ATOM     19  N   UNL     1      -2.280  13.206  21.461  0.00  0.00    +0.000 N 
ATOM     20  C   UNL     1      -1.944  12.350  20.395  0.00  0.00    +0.000 A 
ATOM     21  C   UNL     1      -2.887  11.847  19.349  0.00  0.00    +0.000 C 
BRANCH  19  22
ATOM     22  C   UNL     1      -3.598  13.631  21.854  0.00  0.00    +0.000 A 
ATOM     23  C   UNL     1      -4.128  14.849  21.402  0.00  0.00    +0.000 A 
ATOM     24  C   UNL     1      -5.376  15.302  21.843  0.00  0.00    +0.000 A 
ATOM     25  C   UNL     1      -6.139  14.514  22.698  0.00  0.00    +0.000 A 
ATOM     26  C   UNL     1      -5.646  13.285  23.125  0.00  0.00    +0.000 A 
ATOM     27  C   UNL     1      -4.374  12.856  22.727  0.00  0.00    +0.000 A 
ENDBRANCH  19  22
ENDBRANCH   9  15
TORSDOF 2
ENDMDL
MODEL 6
REMARK VINA RESULT:      -6.4      1.916      3.211
REMARK  Name = 
REMARK  5 active torsions:
REMARK  status: ('A' for Active; 'I' for Inactive)
REMARK    1  A    between atoms: C_1  and  C_2
REMARK    2  A    between atoms: C_9  and  C_10
REMARK    3  A    between atoms: C_12  and  C_13
REMARK    4  A    between atoms: N_14  and  C_15
REMARK    5  A    between atoms: C_21  and  C_22
REMARK                            x       y       z     vdW  Elec       q    Type
REMARK                         _______ _______ _______ _____ _____    ______ ____
ROOT
ATOM      1  C   UNL     1       4.447   3.519  19.315  0.00  0.00    +0.000 C 
ATOM      2  C   UNL     1       3.550   4.706  19.399  0.00  0.00    +0.000 C 
ATOM      3  C   UNL     1       2.692   4.919  20.399  0.00  0.00    +0.000 C 
ATOM      4  C   UNL     1       2.256   6.269  20.076  0.00  0.00    +0.000 C 
ATOM      5  N   UNL     1       1.493   6.962  20.844  0.00  0.00    +0.000 NA
ATOM      6  C   UNL     1       1.240   8.283  20.515  0.00  0.00    +0.000 C 
ATOM      7  O   UNL     1       0.735   9.014  21.355  0.00  0.00    +0.000 OA
ATOM      8  C   UNL     1       1.649   8.792  19.131  0.00  0.00    +0.000 C 
ATOM      9  C   UNL     1       1.396  10.065  18.751  0.00  0.00    +0.000 C 
ATOM     10  C   UNL     1       2.463   7.845  18.240  0.00  0.00    +0.000 C 
ATOM     11  N   UNL     1       2.803   8.075  17.013  0.00  0.00    +0.000 NA
ATOM     12  N   UNL     1       2.775   6.689  18.905  0.00  0.00    +0.000 N 
ATOM     13  O   UNL     1       3.629   5.703  18.396  0.00  0.00    +0.000 OA
ATOM     14  H   UNL     1       2.452   8.963  16.652  0.00  0.00    +0.000 HD
ENDROOT
BRANCH   9  15
ATOM     15  C   UNL     1       0.767  11.093  19.528  0.00  0.00    +0.000 A 
ATOM     16  C   UNL     1       1.398  12.170  20.171  0.00  0.00    +0.000 A 
ATOM     17  C   UNL     1       0.426  12.895  20.837  0.00  0.00    +0.000 A 
ATOM     18  C   UNL     1       0.676  14.023  21.784  0.00  0.00    +0.000 C 
ATOM     19  N   UNL     1      -0.826  12.324  20.564  0.00  0.00    +0.000 N 
ATOM     20  C   UNL     1      -0.599  11.200  19.747  0.00  0.00    +0.000 A 
ATOM     21  C   UNL     1      -1.657  10.355  19.110  0.00  0.00    +0.000 C 
BRANCH  19  22
ATOM     22  C   UNL     1      -2.088  12.784  21.082  0.00  0.00    +0.000 A 
ATOM     23  C   UNL     1      -2.573  12.320  22.314  0.00  0.00    +0.000 A 
ATOM     24  C   UNL     1      -3.833  12.705  22.784  0.00  0.00    +0.000 A 
ATOM     25  C   UNL     1      -4.602  13.606  22.056  0.00  0.00    +0.000 A 
ATOM     26  C   UNL     1      -4.118  14.107  20.851  0.00  0.00    +0.000 A 
ATOM     27  C   UNL     1      -2.881  13.681  20.354  0.00  0.00    +0.000 A 
ENDBRANCH  19  22
ENDBRANCH   9  15
TORSDOF 2
ENDMDL
MODEL 7
REMARK VINA RESULT:      -6.3      2.116      8.672
REMARK  Name = 
REMARK  5 active torsions:
REMARK  status: ('A' for Active; 'I' for Inactive)
REMARK    1  A    between atoms: C_1  and  C_2
REMARK    2  A    between atoms: C_9  and  C_10
REMARK    3  A    between atoms: C_12  and  C_13
REMARK    4  A    between atoms: N_14  and  C_15
REMARK    5  A    between atoms: C_21  and  C_22
REMARK                            x       y       z     vdW  Elec       q    Type
REMARK                         _______ _______ _______ _____ _____    ______ ____
ROOT
ATOM      1  C   UNL     1      -1.945  14.805  20.420  0.00  0.00    +0.000 C 
ATOM      2  C   UNL     1      -1.447  13.424  20.168  0.00  0.00    +0.000 C 
ATOM      3  C   UNL     1      -1.475  12.832  18.971  0.00  0.00    +0.000 C 
ATOM      4  C   UNL     1      -0.705  11.633  19.264  0.00  0.00    +0.000 C 
ATOM      5  N   UNL     1      -0.356  10.787  18.361  0.00  0.00    +0.000 NA
ATOM      6  C   UNL     1       0.486   9.746  18.714  0.00  0.00    +0.000 C 
ATOM      7  O   UNL     1       1.022   9.094  17.830  0.00  0.00    +0.000 OA
ATOM      8  C   UNL     1       0.757   9.484  20.198  0.00  0.00    +0.000 C 
ATOM      9  C   UNL     1       1.548   8.461  20.595  0.00  0.00    +0.000 C 
ATOM     10  C   UNL     1       0.198  10.494  21.209  0.00  0.00    +0.000 C 
ATOM     11  N   UNL     1       0.248  10.374  22.496  0.00  0.00    +0.000 NA
ATOM     12  N   UNL     1      -0.394  11.553  20.572  0.00  0.00    +0.000 N 
ATOM     13  O   UNL     1      -0.862  12.695  21.232  0.00  0.00    +0.000 OA
ATOM     14  H   UNL     1       0.682   9.504  22.808  0.00  0.00    +0.000 HD
ENDROOT
BRANCH   9  15
ATOM     15  C   UNL     1       2.240   7.526  19.757  0.00  0.00    +0.000 A 
ATOM     16  C   UNL     1       3.102   7.825  18.691  0.00  0.00    +0.000 A 
ATOM     17  C   UNL     1       3.520   6.630  18.134  0.00  0.00    +0.000 A 
ATOM     18  C   UNL     1       4.311   6.485  16.875  0.00  0.00    +0.000 C 
ATOM     19  N   UNL     1       2.982   5.573  18.884  0.00  0.00    +0.000 N 
ATOM     20  C   UNL     1       2.185   6.146  19.893  0.00  0.00    +0.000 A 
ATOM     21  C   UNL     1       1.514   5.401  21.004  0.00  0.00    +0.000 C 
BRANCH  19  22
ATOM     22  C   UNL     1       3.176   4.173  18.617  0.00  0.00    +0.000 A 
ATOM     23  C   UNL     1       2.389   3.504  17.667  0.00  0.00    +0.000 A 
ATOM     24  C   UNL     1       2.521   2.127  17.460  0.00  0.00    +0.000 A 
ATOM     25  C   UNL     1       3.486   1.408  18.158  0.00  0.00    +0.000 A 
ATOM     26  C   UNL     1       4.303   2.063  19.074  0.00  0.00    +0.000 A 
ATOM     27  C   UNL     1       4.134   3.431  19.321  0.00  0.00    +0.000 A 
ENDBRANCH  19  22
ENDBRANCH   9  15
TORSDOF 2
ENDMDL
MODEL 8
REMARK VINA RESULT:      -6.2      2.085      8.507
REMARK  Name = 
REMARK  5 active torsions:
REMARK  status: ('A' for Active; 'I' for Inactive)
REMARK    1  A    between atoms: C_1  and  C_2
REMARK    2  A    between atoms: C_9  and  C_10
REMARK    3  A    between atoms: C_12  and  C_13
REMARK    4  A    between atoms: N_14  and  C_15
REMARK    5  A    between atoms: C_21  and  C_22
REMARK                            x       y       z     vdW  Elec       q    Type
REMARK                         _______ _______ _______ _____ _____    ______ ____
ROOT
ATOM      1  C   UNL     1      -0.129  13.915  20.785  0.00  0.00    +0.000 C 
ATOM      2  C   UNL     1       0.101  12.500  20.379  0.00  0.00    +0.000 C 
ATOM      3  C   UNL     1      -0.174  12.022  19.163  0.00  0.00    +0.000 C 
ATOM      4  C   UNL     1       0.421  10.699  19.270  0.00  0.00    +0.000 C 
ATOM      5  N   UNL     1       0.511   9.888  18.277  0.00  0.00    +0.000 NA
ATOM      6  C   UNL     1       1.210   8.705  18.444  0.00  0.00    +0.000 C 
ATOM      7  O   UNL     1       1.517   8.056  17.455  0.00  0.00    +0.000 OA
ATOM      8  C   UNL     1       1.619   8.280  19.857  0.00  0.00    +0.000 C 
ATOM      9  C   UNL     1       2.276   7.119  20.075  0.00  0.00    +0.000 C 
ATOM     10  C   UNL     1       1.364   9.275  20.996  0.00  0.00    +0.000 C 
ATOM     11  N   UNL     1       1.555   9.041  22.255  0.00  0.00    +0.000 NA
ATOM     12  N   UNL     1       0.878  10.462  20.516  0.00  0.00    +0.000 N 
ATOM     13  O   UNL     1       0.688  11.603  21.305  0.00  0.00    +0.000 OA
ATOM     14  H   UNL     1       1.877   8.091  22.448  0.00  0.00    +0.000 HD
ENDROOT
BRANCH   9  15
ATOM     15  C   UNL     1       2.696   6.162  19.093  0.00  0.00    +0.000 A 
ATOM     16  C   UNL     1       2.041   4.971  18.741  0.00  0.00    +0.000 A 
ATOM     17  C   UNL     1       2.807   4.333  17.782  0.00  0.00    +0.000 A 
ATOM     18  C   UNL     1       2.569   2.957  17.251  0.00  0.00    +0.000 C 
ATOM     19  N   UNL     1       3.908   5.146  17.474  0.00  0.00    +0.000 N 
ATOM     20  C   UNL     1       3.827   6.284  18.299  0.00  0.00    +0.000 A 
ATOM     21  C   UNL     1       4.724   7.478  18.229  0.00  0.00    +0.000 C 
BRANCH  19  22
ATOM     22  C   UNL     1       4.945   4.827  16.528  0.00  0.00    +0.000 A 
ATOM     23  C   UNL     1       6.235   4.486  16.962  0.00  0.00    +0.000 A 
ATOM     24  C   UNL     1       7.266   4.252  16.045  0.00  0.00    +0.000 A 
ATOM     25  C   UNL     1       7.007   4.297  14.680  0.00  0.00    +0.000 A 
ATOM     26  C   UNL     1       5.723   4.594  14.233  0.00  0.00    +0.000 A 
ATOM     27  C   UNL     1       4.704   4.882  15.149  0.00  0.00    +0.000 A 
ENDBRANCH  19  22
ENDBRANCH   9  15
TORSDOF 2
ENDMDL
MODEL 9
REMARK VINA RESULT:      -6.2      3.449      5.065
REMARK  Name = 
REMARK  5 active torsions:
REMARK  status: ('A' for Active; 'I' for Inactive)
REMARK    1  A    between atoms: C_1  and  C_2
REMARK    2  A    between atoms: C_9  and  C_10
REMARK    3  A    between atoms: C_12  and  C_13
REMARK    4  A    between atoms: N_14  and  C_15
REMARK    5  A    between atoms: C_21  and  C_22
REMARK                            x       y       z     vdW  Elec       q    Type
REMARK                         _______ _______ _______ _____ _____    ______ ____
ROOT
ATOM      1  C   UNL     1       3.192   7.068  18.438  0.00  0.00    +0.000 C 
ATOM      2  C   UNL     1       2.168   7.872  19.162  0.00  0.00    +0.000 C 
ATOM      3  C   UNL     1       1.877   7.712  20.456  0.00  0.00    +0.000 C 
ATOM      4  C   UNL     1       0.998   8.853  20.662  0.00  0.00    +0.000 C 
ATOM      5  N   UNL     1       0.548   9.192  21.817  0.00  0.00    +0.000 NA
ATOM      6  C   UNL     1      -0.174  10.367  21.931  0.00  0.00    +0.000 C 
ATOM      7  O   UNL     1      -0.385  10.824  23.046  0.00  0.00    +0.000 OA
ATOM      8  C   UNL     1      -0.635  11.080  20.657  0.00  0.00    +0.000 C 
ATOM      9  C   UNL     1      -1.369  12.215  20.717  0.00  0.00    +0.000 C 
ATOM     10  C   UNL     1      -0.134  10.528  19.317  0.00  0.00    +0.000 C 
ATOM     11  N   UNL     1      -0.503  10.944  18.148  0.00  0.00    +0.000 NA
ATOM     12  N   UNL     1       0.755   9.503  19.506  0.00  0.00    +0.000 N 
ATOM     13  O   UNL     1       1.484   8.903  18.473  0.00  0.00    +0.000 OA
ATOM     14  H   UNL     1      -1.206  11.683  18.182  0.00  0.00    +0.000 HD
ENDROOT
BRANCH   9  15
ATOM     15  C   UNL     1      -1.792  12.912  21.896  0.00  0.00    +0.000 A 
ATOM     16  C   UNL     1      -2.890  12.600  22.713  0.00  0.00    +0.000 A 
ATOM     17  C   UNL     1      -2.957  13.550  23.717  0.00  0.00    +0.000 A 
ATOM     18  C   UNL     1      -4.067  13.696  24.705  0.00  0.00    +0.000 C 
ATOM     19  N   UNL     1      -1.867  14.422  23.581  0.00  0.00    +0.000 N 
ATOM     20  C   UNL     1      -1.148  14.014  22.441  0.00  0.00    +0.000 A 
ATOM     21  C   UNL     1       0.158  14.581  21.983  0.00  0.00    +0.000 C 
BRANCH  19  22
ATOM     22  C   UNL     1      -1.589  15.553  24.427  0.00  0.00    +0.000 A 
ATOM     23  C   UNL     1      -1.059  15.376  25.714  0.00  0.00    +0.000 A 
ATOM     24  C   UNL     1      -0.860  16.466  26.569  0.00  0.00    +0.000 A 
ATOM     25  C   UNL     1      -1.132  17.755  26.126  0.00  0.00    +0.000 A 
ATOM     26  C   UNL     1      -1.619  17.953  24.837  0.00  0.00    +0.000 A 
ATOM     27  C   UNL     1      -1.870  16.858  24.001  0.00  0.00    +0.000 A 
ENDBRANCH  19  22
ENDBRANCH   9  15
TORSDOF 2
ENDMDL
