MODEL 1
REMARK VINA RESULT:      -7.9      0.000      0.000
REMARK  Name = 
REMARK  7 active torsions:
REMARK  status: ('A' for Active; 'I' for Inactive)
REMARK    1  A    between atoms: C_1  and  C_2
REMARK    2  A    between atoms: C_3  and  C_4
REMARK    3  A    between atoms: C_4  and  N_5
REMARK    4  A    between atoms: C_6  and  C_8
REMARK    5  A    between atoms: C_14  and  C_16
REMARK    6  A    between atoms: C_16  and  N_17
REMARK    7  A    between atoms: C_19  and  C_20
REMARK                            x       y       z     vdW  Elec       q    Type
REMARK                         _______ _______ _______ _____ _____    ______ ____
ROOT
ATOM      1  C   UNL     1       0.121  10.421  20.159  0.00  0.00    +0.000 C 
ATOM      2  C   UNL     1       0.473  10.994  21.547  0.00  0.00    +0.000 C 
ATOM      3  C   UNL     1       0.460   9.791  22.467  0.00  0.00    +0.000 C 
ATOM      4  C   UNL     1      -0.594   8.709  22.417  0.00  0.00    +0.000 C 
ATOM      5  C   UNL     1       0.651   8.591  21.589  0.00  0.00    +0.000 C 
ATOM      6  N   UNL     1       0.685   9.034  20.204  0.00  0.00    +0.000 N 
ATOM      7  C   UNL     1       1.599   8.541  19.267  0.00  0.00    +0.000 C 
ATOM      8  O   UNL     1       1.734   9.035  18.154  0.00  0.00    +0.000 OA
ENDROOT
BRANCH   1  10
ATOM      9  N   UNL     1       1.608  11.949  19.009  0.00  0.00    +0.000 N 
ATOM     10  C   UNL     1       0.354  11.369  18.965  0.00  0.00    +0.000 C 
ATOM     11  O   UNL     1      -0.420  11.486  18.018  0.00  0.00    +0.000 OA
ATOM     12  H   UNL     1       1.988  12.026  19.947  0.00  0.00    +0.000 HD
BRANCH   9  13
ATOM     13  C   UNL     1       2.040  12.982  18.089  0.00  0.00    +0.000 C 
BRANCH  13  16
ATOM     14  C   UNL     1       3.616  15.667  17.595  0.00  0.00    +0.000 C 
ATOM     15  C   UNL     1       2.357  15.585  18.389  0.00  0.00    +0.000 C 
ATOM     16  C   UNL     1       1.617  14.290  18.676  0.00  0.00    +0.000 C 
ATOM     17  C   UNL     1       2.344  15.009  19.787  0.00  0.00    +0.000 C 
ATOM     18 CL   UNL     1       3.809  14.348  20.484  0.00  0.00    +0.000 Cl
ATOM     19 CL   UNL     1       1.354  15.880  20.970  0.00  0.00    +0.000 Cl
ENDBRANCH  13  16
ENDBRANCH   9  13
ENDBRANCH   1  10
BRANCH   7  20
ATOM     20  C   UNL     1       2.377   7.331  19.739  0.00  0.00    +0.000 C 
BRANCH  20  21
ATOM     21  N   UNL     1       2.819   6.443  18.684  0.00  0.00    +0.000 N 
ATOM     22  N   UNL     1       3.878   6.816  17.935  0.00  0.00    +0.000 NA
ATOM     23  C   UNL     1       4.183   5.710  17.229  0.00  0.00    +0.000 A 
ATOM     24  C   UNL     1       3.322   4.626  17.561  0.00  0.00    +0.000 A 
ATOM     25  C   UNL     1       3.191   3.276  17.180  0.00  0.00    +0.000 A 
ATOM     26  C   UNL     1       2.203   2.486  17.786  0.00  0.00    +0.000 A 
ATOM     27  C   UNL     1       1.369   3.013  18.769  0.00  0.00    +0.000 A 
ATOM     28  C   UNL     1       1.489   4.341  19.172  0.00  0.00    +0.000 A 
ATOM     29  C   UNL     1       2.462   5.127  18.536  0.00  0.00    +0.000 A 
BRANCH  23  30
ATOM     30  C   UNL     1       5.315   5.716  16.291  0.00  0.00    +0.000 C 
ATOM     31  N   UNL     1       5.252   6.703  15.346  0.00  0.00    +0.000 N 
ATOM     32  O   UNL     1       6.255   4.929  16.329  0.00  0.00    +0.000 OA
ATOM     33  H   UNL     1       4.450   7.324  15.340  0.00  0.00    +0.000 HD
ATOM     34  H   UNL     1       5.976   6.779  14.648  0.00  0.00    +0.000 HD
ENDBRANCH  23  30
ENDBRANCH  20  21
ENDBRANCH   7  20
TORSDOF 6
ENDMDL
MODEL 2
REMARK VINA RESULT:      -7.8      1.111      1.488
REMARK  Name = 
REMARK  7 active torsions:
REMARK  status: ('A' for Active; 'I' for Inactive)
REMARK    1  A    between atoms: C_1  and  C_2
REMARK    2  A    between atoms: C_3  and  C_4
REMARK    3  A    between atoms: C_4  and  N_5
REMARK    4  A    between atoms: C_6  and  C_8
REMARK    5  A    between atoms: C_14  and  C_16
REMARK    6  A    between atoms: C_16  and  N_17
REMARK    7  A    between atoms: C_19  and  C_20
REMARK                            x       y       z     vdW  Elec       q    Type
REMARK                         _______ _______ _______ _____ _____    ______ ____
ROOT
ATOM      1  C   UNL     1       0.122  10.380  20.116  0.00  0.00    +0.000 C 
ATOM      2  C   UNL     1       0.415  10.942  21.522  0.00  0.00    +0.000 C 
ATOM      3  C   UNL     1       0.434   9.723  22.421  0.00  0.00    +0.000 C 
ATOM      4  C   UNL     1      -0.571   8.597  22.326  0.00  0.00    +0.000 C 
ATOM      5  C   UNL     1       0.698   8.549  21.527  0.00  0.00    +0.000 C 
ATOM      6  N   UNL     1       0.746   9.018  20.151  0.00  0.00    +0.000 N 
ATOM      7  C   UNL     1       1.703   8.583  19.229  0.00  0.00    +0.000 C 
ATOM      8  O   UNL     1       1.842   9.102  18.128  0.00  0.00    +0.000 OA
ENDROOT
BRANCH   1  10
ATOM      9  N   UNL     1       1.544  12.032  19.058  0.00  0.00    +0.000 N 
ATOM     10  C   UNL     1       0.342  11.359  18.945  0.00  0.00    +0.000 C 
ATOM     11  O   UNL     1      -0.391  11.429  17.960  0.00  0.00    +0.000 OA
ATOM     12  H   UNL     1       1.869  12.124  20.014  0.00  0.00    +0.000 HD
BRANCH   9  13
ATOM     13  C   UNL     1       1.941  13.106  18.171  0.00  0.00    +0.000 C 
BRANCH  13  16
ATOM     14  C   UNL     1       2.635  15.441  20.172  0.00  0.00    +0.000 C 
ATOM     15  C   UNL     1       3.663  14.568  19.538  0.00  0.00    +0.000 C 
ATOM     16  C   UNL     1       3.343  13.472  18.533  0.00  0.00    +0.000 C 
ATOM     17  C   UNL     1       4.047  14.731  18.084  0.00  0.00    +0.000 C 
ATOM     18 CL   UNL     1       3.231  15.913  17.082  0.00  0.00    +0.000 Cl
ATOM     19 CL   UNL     1       5.777  14.606  17.726  0.00  0.00    +0.000 Cl
ENDBRANCH  13  16
ENDBRANCH   9  13
ENDBRANCH   1  10
BRANCH   7  20
ATOM     20  C   UNL     1       2.523   7.400  19.699  0.00  0.00    +0.000 C 
BRANCH  20  21
ATOM     21  N   UNL     1       2.853   6.440  18.667  0.00  0.00    +0.000 N 
ATOM     22  N   UNL     1       3.886   6.716  17.844  0.00  0.00    +0.000 NA
ATOM     23  C   UNL     1       4.088   5.563  17.176  0.00  0.00    +0.000 A 
ATOM     24  C   UNL     1       3.189   4.547  17.609  0.00  0.00    +0.000 A 
ATOM     25  C   UNL     1       2.961   3.191  17.302  0.00  0.00    +0.000 A 
ATOM     26  C   UNL     1       1.968   2.489  18.000  0.00  0.00    +0.000 A 
ATOM     27  C   UNL     1       1.222   3.108  18.999  0.00  0.00    +0.000 A 
ATOM     28  C   UNL     1       1.439   4.443  19.329  0.00  0.00    +0.000 A 
ATOM     29  C   UNL     1       2.415   5.141  18.603  0.00  0.00    +0.000 A 
BRANCH  23  30
ATOM     30  C   UNL     1       5.163   5.460  16.179  0.00  0.00    +0.000 C 
ATOM     31  N   UNL     1       5.417   6.626  15.510  0.00  0.00    +0.000 N 
ATOM     32  O   UNL     1       5.803   4.440  15.948  0.00  0.00    +0.000 OA
ATOM     33  H   UNL     1       4.853   7.443  15.720  0.00  0.00    +0.000 HD
ATOM     34  H   UNL     1       6.127   6.652  14.794  0.00  0.00    +0.000 HD
ENDBRANCH  23  30
ENDBRANCH  20  21
ENDBRANCH   7  20
TORSDOF 6
ENDMDL
MODEL 3
REMARK VINA RESULT:      -7.7      3.546      7.757
REMARK  Name = 
REMARK  7 active torsions:
REMARK  status: ('A' for Active; 'I' for Inactive)
REMARK    1  A    between atoms: C_1  and  C_2
REMARK    2  A    between atoms: C_3  and  C_4
REMARK    3  A    between atoms: C_4  and  N_5
REMARK    4  A    between atoms: C_6  and  C_8
REMARK    5  A    between atoms: C_14  and  C_16
REMARK    6  A    between atoms: C_16  and  N_17
REMARK    7  A    between atoms: C_19  and  C_20
REMARK                            x       y       z     vdW  Elec       q    Type
REMARK                         _______ _______ _______ _____ _____    ______ ____
ROOT
ATOM      1  C   UNL     1       2.492   3.395  19.209  0.00  0.00    +0.000 C 
ATOM      2  C   UNL     1       1.232   2.565  19.529  0.00  0.00    +0.000 C 
ATOM      3  C   UNL     1       1.082   2.669  21.033  0.00  0.00    +0.000 C 
ATOM      4  C   UNL     1       2.239   2.564  22.000  0.00  0.00    +0.000 C 
ATOM      5  C   UNL     1       1.836   3.898  21.444  0.00  0.00    +0.000 C 
ATOM      6  N   UNL     1       2.485   4.456  20.268  0.00  0.00    +0.000 N 
ATOM      7  C   UNL     1       2.511   5.826  19.989  0.00  0.00    +0.000 C 
ATOM      8  O   UNL     1       2.909   6.274  18.920  0.00  0.00    +0.000 OA
ENDROOT
BRANCH   1  10
ATOM      9  N   UNL     1       4.048   3.572  17.361  0.00  0.00    +0.000 N 
ATOM     10  C   UNL     1       2.720   3.718  17.719  0.00  0.00    +0.000 C 
ATOM     11  O   UNL     1       1.816   3.938  16.917  0.00  0.00    +0.000 OA
ATOM     12  H   UNL     1       4.694   3.706  18.131  0.00  0.00    +0.000 HD
BRANCH   9  13
ATOM     13  C   UNL     1       4.565   3.941  16.058  0.00  0.00    +0.000 C 
BRANCH  13  16
ATOM     14  C   UNL     1       6.956   4.985  14.290  0.00  0.00    +0.000 C 
ATOM     15  C   UNL     1       6.249   5.826  15.297  0.00  0.00    +0.000 C 
ATOM     16  C   UNL     1       5.129   5.318  16.190  0.00  0.00    +0.000 C 
ATOM     17  C   UNL     1       6.482   5.641  16.780  0.00  0.00    +0.000 C 
ATOM     18 CL   UNL     1       7.541   4.371  17.356  0.00  0.00    +0.000 Cl
ATOM     19 CL   UNL     1       6.615   7.129  17.731  0.00  0.00    +0.000 Cl
ENDBRANCH  13  16
ENDBRANCH   9  13
ENDBRANCH   1  10
BRANCH   7  20
ATOM     20  C   UNL     1       2.038   6.700  21.131  0.00  0.00    +0.000 C 
BRANCH  20  21
ATOM     21  N   UNL     1       1.579   8.016  20.740  0.00  0.00    +0.000 N 
ATOM     22  N   UNL     1       1.665   8.363  19.438  0.00  0.00    +0.000 NA
ATOM     23  C   UNL     1       0.960   9.509  19.360  0.00  0.00    +0.000 A 
ATOM     24  C   UNL     1       0.405   9.866  20.621  0.00  0.00    +0.000 A 
ATOM     25  C   UNL     1      -0.411  10.901  21.117  0.00  0.00    +0.000 A 
ATOM     26  C   UNL     1      -0.793  10.885  22.467  0.00  0.00    +0.000 A 
ATOM     27  C   UNL     1      -0.393   9.853  23.311  0.00  0.00    +0.000 A 
ATOM     28  C   UNL     1       0.403   8.812  22.839  0.00  0.00    +0.000 A 
ATOM     29  C   UNL     1       0.801   8.856  21.495  0.00  0.00    +0.000 A 
BRANCH  23  30
ATOM     30  C   UNL     1       0.807  10.199  18.071  0.00  0.00    +0.000 C 
ATOM     31  N   UNL     1       1.955  10.780  17.609  0.00  0.00    +0.000 N 
ATOM     32  O   UNL     1      -0.239  10.260  17.435  0.00  0.00    +0.000 OA
ATOM     33  H   UNL     1       2.796  10.719  18.174  0.00  0.00    +0.000 HD
ATOM     34  H   UNL     1       1.947  11.291  16.739  0.00  0.00    +0.000 HD
ENDBRANCH  23  30
ENDBRANCH  20  21
ENDBRANCH   7  20
TORSDOF 6
ENDMDL
MODEL 4
REMARK VINA RESULT:      -7.7      3.424      7.841
REMARK  Name = 
REMARK  7 active torsions:
REMARK  status: ('A' for Active; 'I' for Inactive)
REMARK    1  A    between atoms: C_1  and  C_2
REMARK    2  A    between atoms: C_3  and  C_4
REMARK    3  A    between atoms: C_4  and  N_5
REMARK    4  A    between atoms: C_6  and  C_8
REMARK    5  A    between atoms: C_14  and  C_16
REMARK    6  A    between atoms: C_16  and  N_17
REMARK    7  A    between atoms: C_19  and  C_20
REMARK                            x       y       z     vdW  Elec       q    Type
REMARK                         _______ _______ _______ _____ _____    ______ ____
ROOT
ATOM      1  C   UNL     1       3.358   3.294  19.993  0.00  0.00    +0.000 C 
ATOM      2  C   UNL     1       2.371   2.171  19.612  0.00  0.00    +0.000 C 
ATOM      3  C   UNL     1       1.257   2.283  20.632  0.00  0.00    +0.000 C 
ATOM      4  C   UNL     1       1.493   2.522  22.107  0.00  0.00    +0.000 C 
ATOM      5  C   UNL     1       1.323   3.682  21.170  0.00  0.00    +0.000 C 
ATOM      6  N   UNL     1       2.469   4.351  20.576  0.00  0.00    +0.000 N 
ATOM      7  C   UNL     1       2.427   5.669  20.109  0.00  0.00    +0.000 C 
ATOM      8  O   UNL     1       3.339   6.169  19.462  0.00  0.00    +0.000 OA
ENDROOT
BRANCH   1  10
ATOM      9  N   UNL     1       3.938   3.590  17.659  0.00  0.00    +0.000 N 
ATOM     10  C   UNL     1       4.443   3.615  18.946  0.00  0.00    +0.000 C 
ATOM     11  O   UNL     1       5.581   3.985  19.226  0.00  0.00    +0.000 OA
ATOM     12  H   UNL     1       3.130   2.986  17.551  0.00  0.00    +0.000 HD
BRANCH   9  13
ATOM     13  C   UNL     1       4.765   3.720  16.476  0.00  0.00    +0.000 C 
BRANCH  13  16
ATOM     14  C   UNL     1       6.594   4.839  14.166  0.00  0.00    +0.000 C 
ATOM     15  C   UNL     1       5.954   5.701  15.200  0.00  0.00    +0.000 C 
ATOM     16  C   UNL     1       5.112   5.167  16.347  0.00  0.00    +0.000 C 
ATOM     17  C   UNL     1       6.479   5.751  16.618  0.00  0.00    +0.000 C 
ATOM     18 CL   UNL     1       7.817   4.729  17.101  0.00  0.00    +0.000 Cl
ATOM     19 CL   UNL     1       6.540   7.358  17.361  0.00  0.00    +0.000 Cl
ENDBRANCH  13  16
ENDBRANCH   9  13
ENDBRANCH   1  10
BRANCH   7  20
ATOM     20  C   UNL     1       1.175   6.424  20.502  0.00  0.00    +0.000 C 
BRANCH  20  21
ATOM     21  N   UNL     1       1.266   7.863  20.371  0.00  0.00    +0.000 N 
ATOM     22  N   UNL     1       1.712   8.371  19.202  0.00  0.00    +0.000 NA
ATOM     23  C   UNL     1       1.460   9.691  19.304  0.00  0.00    +0.000 A 
ATOM     24  C   UNL     1       0.823  10.006  20.539  0.00  0.00    +0.000 A 
ATOM     25  C   UNL     1       0.320  11.167  21.157  0.00  0.00    +0.000 A 
ATOM     26  C   UNL     1      -0.297  11.061  22.412  0.00  0.00    +0.000 A 
ATOM     27  C   UNL     1      -0.435   9.826  23.040  0.00  0.00    +0.000 A 
ATOM     28  C   UNL     1       0.043   8.663  22.441  0.00  0.00    +0.000 A 
ATOM     29  C   UNL     1       0.684   8.787  21.200  0.00  0.00    +0.000 A 
BRANCH  23  30
ATOM     30  C   UNL     1       1.797  10.599  18.198  0.00  0.00    +0.000 C 
ATOM     31  N   UNL     1       1.019  11.723  18.142  0.00  0.00    +0.000 N 
ATOM     32  O   UNL     1       2.694  10.404  17.386  0.00  0.00    +0.000 OA
ATOM     33  H   UNL     1       0.277  11.839  18.824  0.00  0.00    +0.000 HD
ATOM     34  H   UNL     1       1.163  12.401  17.408  0.00  0.00    +0.000 HD
ENDBRANCH  23  30
ENDBRANCH  20  21
ENDBRANCH   7  20
TORSDOF 6
ENDMDL
MODEL 5
REMARK VINA RESULT:      -7.6      3.799      8.372
REMARK  Name = 
REMARK  7 active torsions:
REMARK  status: ('A' for Active; 'I' for Inactive)
REMARK    1  A    between atoms: C_1  and  C_2
REMARK    2  A    between atoms: C_3  and  C_4
REMARK    3  A    between atoms: C_4  and  N_5
REMARK    4  A    between atoms: C_6  and  C_8
REMARK    5  A    between atoms: C_14  and  C_16
REMARK    6  A    between atoms: C_16  and  N_17
REMARK    7  A    between atoms: C_19  and  C_20
REMARK                            x       y       z     vdW  Elec       q    Type
REMARK                         _______ _______ _______ _____ _____    ______ ____
ROOT
ATOM      1  C   UNL     1       3.943   5.734  18.959  0.00  0.00    +0.000 C 
ATOM      2  C   UNL     1       3.339   4.323  18.812  0.00  0.00    +0.000 C 
ATOM      3  C   UNL     1       2.158   4.316  19.761  0.00  0.00    +0.000 C 
ATOM      4  C   UNL     1       2.197   4.907  21.152  0.00  0.00    +0.000 C 
ATOM      5  C   UNL     1       1.791   5.753  19.982  0.00  0.00    +0.000 C 
ATOM      6  N   UNL     1       2.754   6.588  19.280  0.00  0.00    +0.000 N 
ATOM      7  C   UNL     1       2.389   7.714  18.536  0.00  0.00    +0.000 C 
ATOM      8  O   UNL     1       3.177   8.312  17.814  0.00  0.00    +0.000 OA
ENDROOT
BRANCH   1  10
ATOM      9  N   UNL     1       4.467   6.021  16.611  0.00  0.00    +0.000 N 
ATOM     10  C   UNL     1       4.980   6.132  17.890  0.00  0.00    +0.000 C 
ATOM     11  O   UNL     1       6.078   6.622  18.145  0.00  0.00    +0.000 OA
ATOM     12  H   UNL     1       3.723   5.336  16.530  0.00  0.00    +0.000 HD
BRANCH   9  13
ATOM     13  C   UNL     1       5.264   6.200  15.414  0.00  0.00    +0.000 C 
BRANCH  13  16
ATOM     14  C   UNL     1       7.485   4.151  16.312  0.00  0.00    +0.000 C 
ATOM     15  C   UNL     1       6.464   3.854  15.267  0.00  0.00    +0.000 C 
ATOM     16  C   UNL     1       5.421   4.852  14.791  0.00  0.00    +0.000 C 
ATOM     17  C   UNL     1       6.559   4.451  13.881  0.00  0.00    +0.000 C 
ATOM     18 CL   UNL     1       7.841   5.579  13.491  0.00  0.00    +0.000 Cl
ATOM     19 CL   UNL     1       6.176   3.357  12.543  0.00  0.00    +0.000 Cl
ENDBRANCH  13  16
ENDBRANCH   9  13
ENDBRANCH   1  10
BRANCH   7  20
ATOM     20  C   UNL     1       0.949   8.143  18.729  0.00  0.00    +0.000 C 
BRANCH  20  21
ATOM     21  N   UNL     1       0.779   9.464  19.297  0.00  0.00    +0.000 N 
ATOM     22  N   UNL     1       0.822  10.527  18.467  0.00  0.00    +0.000 NA
ATOM     23  C   UNL     1       0.403  11.555  19.232  0.00  0.00    +0.000 A 
ATOM     24  C   UNL     1       0.067  11.121  20.547  0.00  0.00    +0.000 A 
ATOM     25  C   UNL     1      -0.432  11.721  21.719  0.00  0.00    +0.000 A 
ATOM     26  C   UNL     1      -0.680  10.922  22.845  0.00  0.00    +0.000 A 
ATOM     27  C   UNL     1      -0.456   9.548  22.810  0.00  0.00    +0.000 A 
ATOM     28  C   UNL     1       0.025   8.931  21.657  0.00  0.00    +0.000 A 
ATOM     29  C   UNL     1       0.295   9.747  20.549  0.00  0.00    +0.000 A 
BRANCH  23  30
ATOM     30  C   UNL     1       0.296  12.907  18.666  0.00  0.00    +0.000 C 
ATOM     31  N   UNL     1      -0.770  13.078  17.827  0.00  0.00    +0.000 N 
ATOM     32  O   UNL     1       1.070  13.827  18.910  0.00  0.00    +0.000 OA
ATOM     33  H   UNL     1      -1.376  12.287  17.639  0.00  0.00    +0.000 HD
ATOM     34  H   UNL     1      -0.919  13.969  17.376  0.00  0.00    +0.000 HD
ENDBRANCH  23  30
ENDBRANCH  20  21
ENDBRANCH   7  20
TORSDOF 6
ENDMDL
MODEL 6
REMARK VINA RESULT:      -7.6      2.958      4.919
REMARK  Name = 
REMARK  7 active torsions:
REMARK  status: ('A' for Active; 'I' for Inactive)
REMARK    1  A    between atoms: C_1  and  C_2
REMARK    2  A    between atoms: C_3  and  C_4
REMARK    3  A    between atoms: C_4  and  N_5
REMARK    4  A    between atoms: C_6  and  C_8
REMARK    5  A    between atoms: C_14  and  C_16
REMARK    6  A    between atoms: C_16  and  N_17
REMARK    7  A    between atoms: C_19  and  C_20
REMARK                            x       y       z     vdW  Elec       q    Type
REMARK                         _______ _______ _______ _____ _____    ______ ____
ROOT
ATOM      1  C   UNL     1       1.635   5.426  20.437  0.00  0.00    +0.000 C 
ATOM      2  C   UNL     1       2.400   4.720  21.575  0.00  0.00    +0.000 C 
ATOM      3  C   UNL     1       2.322   3.248  21.227  0.00  0.00    +0.000 C 
ATOM      4  C   UNL     1       1.068   2.573  20.718  0.00  0.00    +0.000 C 
ATOM      5  C   UNL     1       2.045   3.180  19.755  0.00  0.00    +0.000 C 
ATOM      6  N   UNL     1       1.873   4.536  19.255  0.00  0.00    +0.000 N 
ATOM      7  C   UNL     1       2.428   4.981  18.052  0.00  0.00    +0.000 C 
ATOM      8  O   UNL     1       2.422   6.160  17.719  0.00  0.00    +0.000 OA
ENDROOT
BRANCH   1  10
ATOM      9  N   UNL     1       0.767   7.619  20.992  0.00  0.00    +0.000 N 
ATOM     10  C   UNL     1       1.806   6.957  20.364  0.00  0.00    +0.000 C 
ATOM     11  O   UNL     1       2.810   7.517  19.930  0.00  0.00    +0.000 OA
ATOM     12  H   UNL     1      -0.099   7.091  21.010  0.00  0.00    +0.000 HD
BRANCH   9  13
ATOM     13  C   UNL     1       0.604   9.058  20.956  0.00  0.00    +0.000 C 
BRANCH  13  16
ATOM     14  C   UNL     1       1.686  10.255  18.248  0.00  0.00    +0.000 C 
ATOM     15  C   UNL     1       0.258   9.896  18.477  0.00  0.00    +0.000 C 
ATOM     16  C   UNL     1      -0.284   9.366  19.795  0.00  0.00    +0.000 C 
ATOM     17  C   UNL     1      -0.644  10.758  19.332  0.00  0.00    +0.000 C 
ATOM     18 CL   UNL     1      -0.004  12.172  20.143  0.00  0.00    +0.000 Cl
ATOM     19 CL   UNL     1      -2.285  11.006  18.715  0.00  0.00    +0.000 Cl
ENDBRANCH  13  16
ENDBRANCH   9  13
ENDBRANCH   1  10
BRANCH   7  20
ATOM     20  C   UNL     1       3.002   3.878  17.188  0.00  0.00    +0.000 C 
BRANCH  20  21
ATOM     21  N   UNL     1       4.397   4.043  16.837  0.00  0.00    +0.000 N 
ATOM     22  N   UNL     1       4.740   3.974  15.533  0.00  0.00    +0.000 NA
ATOM     23  C   UNL     1       6.020   4.395  15.511  0.00  0.00    +0.000 A 
ATOM     24  C   UNL     1       6.471   4.758  16.812  0.00  0.00    +0.000 A 
ATOM     25  C   UNL     1       7.658   5.270  17.371  0.00  0.00    +0.000 A 
ATOM     26  C   UNL     1       7.704   5.545  18.746  0.00  0.00    +0.000 A 
ATOM     27  C   UNL     1       6.590   5.336  19.555  0.00  0.00    +0.000 A 
ATOM     28  C   UNL     1       5.402   4.843  19.022  0.00  0.00    +0.000 A 
ATOM     29  C   UNL     1       5.380   4.545  17.651  0.00  0.00    +0.000 A 
BRANCH  23  30
ATOM     30  C   UNL     1       6.753   4.477  14.240  0.00  0.00    +0.000 C 
ATOM     31  N   UNL     1       6.377   3.539  13.318  0.00  0.00    +0.000 N 
ATOM     32  O   UNL     1       7.623   5.304  13.990  0.00  0.00    +0.000 OA
ATOM     33  H   UNL     1       5.665   2.863  13.570  0.00  0.00    +0.000 HD
ATOM     34  H   UNL     1       6.834   3.505  12.418  0.00  0.00    +0.000 HD
ENDBRANCH  23  30
ENDBRANCH  20  21
ENDBRANCH   7  20
TORSDOF 6
ENDMDL
MODEL 7
REMARK VINA RESULT:      -7.5      3.164      7.847
REMARK  Name = 
REMARK  7 active torsions:
REMARK  status: ('A' for Active; 'I' for Inactive)
REMARK    1  A    between atoms: C_1  and  C_2
REMARK    2  A    between atoms: C_3  and  C_4
REMARK    3  A    between atoms: C_4  and  N_5
REMARK    4  A    between atoms: C_6  and  C_8
REMARK    5  A    between atoms: C_14  and  C_16
REMARK    6  A    between atoms: C_16  and  N_17
REMARK    7  A    between atoms: C_19  and  C_20
REMARK                            x       y       z     vdW  Elec       q    Type
REMARK                         _______ _______ _______ _____ _____    ______ ____
ROOT
ATOM      1  C   UNL     1       2.199   7.356  19.747  0.00  0.00    +0.000 C 
ATOM      2  C   UNL     1       1.077   6.777  20.633  0.00  0.00    +0.000 C 
ATOM      3  C   UNL     1       0.648   7.936  21.508  0.00  0.00    +0.000 C 
ATOM      4  C   UNL     1       1.617   8.895  22.163  0.00  0.00    +0.000 C 
ATOM      5  C   UNL     1       1.079   9.182  20.792  0.00  0.00    +0.000 C 
ATOM      6  N   UNL     1       1.810   8.796  19.595  0.00  0.00    +0.000 N 
ATOM      7  C   UNL     1       1.632   9.422  18.357  0.00  0.00    +0.000 C 
ATOM      8  O   UNL     1       2.122   8.987  17.322  0.00  0.00    +0.000 OA
ENDROOT
BRANCH   1  10
ATOM      9  N   UNL     1       3.932   6.725  18.176  0.00  0.00    +0.000 N 
ATOM     10  C   UNL     1       2.622   6.485  18.547  0.00  0.00    +0.000 C 
ATOM     11  O   UNL     1       1.930   5.588  18.071  0.00  0.00    +0.000 OA
ATOM     12  H   UNL     1       4.257   7.656  18.413  0.00  0.00    +0.000 HD
BRANCH   9  13
ATOM     13  C   UNL     1       4.544   6.146  16.998  0.00  0.00    +0.000 C 
BRANCH  13  16
ATOM     14  C   UNL     1       7.104   4.460  16.259  0.00  0.00    +0.000 C 
ATOM     15  C   UNL     1       7.121   5.936  16.468  0.00  0.00    +0.000 C 
ATOM     16  C   UNL     1       5.904   6.751  16.873  0.00  0.00    +0.000 C 
ATOM     17  C   UNL     1       7.034   6.537  17.853  0.00  0.00    +0.000 C 
ATOM     18 CL   UNL     1       6.831   5.504  19.253  0.00  0.00    +0.000 Cl
ATOM     19 CL   UNL     1       8.104   7.913  18.166  0.00  0.00    +0.000 Cl
ENDBRANCH  13  16
ENDBRANCH   9  13
ENDBRANCH   1  10
BRANCH   7  20
ATOM     20  C   UNL     1       0.812  10.693  18.419  0.00  0.00    +0.000 C 
BRANCH  20  21
ATOM     21  N   UNL     1       1.521  11.850  18.924  0.00  0.00    +0.000 N 
ATOM     22  N   UNL     1       2.515  12.369  18.172  0.00  0.00    +0.000 NA
ATOM     23  C   UNL     1       2.803  13.539  18.777  0.00  0.00    +0.000 A 
ATOM     24  C   UNL     1       1.960  13.765  19.902  0.00  0.00    +0.000 A 
ATOM     25  C   UNL     1       1.790  14.785  20.858  0.00  0.00    +0.000 A 
ATOM     26  C   UNL     1       0.785  14.655  21.826  0.00  0.00    +0.000 A 
ATOM     27  C   UNL     1      -0.055  13.544  21.842  0.00  0.00    +0.000 A 
ATOM     28  C   UNL     1       0.085  12.530  20.898  0.00  0.00    +0.000 A 
ATOM     29  C   UNL     1       1.114  12.659  19.954  0.00  0.00    +0.000 A 
BRANCH  23  30
ATOM     30  C   UNL     1       3.846  14.420  18.232  0.00  0.00    +0.000 C 
ATOM     31  N   UNL     1       3.489  15.059  17.076  0.00  0.00    +0.000 N 
ATOM     32  O   UNL     1       4.945  14.597  18.745  0.00  0.00    +0.000 OA
ATOM     33  H   UNL     1       2.576  14.872  16.677  0.00  0.00    +0.000 HD
ATOM     34  H   UNL     1       4.144  15.673  16.617  0.00  0.00    +0.000 HD
ENDBRANCH  23  30
ENDBRANCH  20  21
ENDBRANCH   7  20
TORSDOF 6
ENDMDL
MODEL 8
REMARK VINA RESULT:      -7.4      4.053      6.664
REMARK  Name = 
REMARK  7 active torsions:
REMARK  status: ('A' for Active; 'I' for Inactive)
REMARK    1  A    between atoms: C_1  and  C_2
REMARK    2  A    between atoms: C_3  and  C_4
REMARK    3  A    between atoms: C_4  and  N_5
REMARK    4  A    between atoms: C_6  and  C_8
REMARK    5  A    between atoms: C_14  and  C_16
REMARK    6  A    between atoms: C_16  and  N_17
REMARK    7  A    between atoms: C_19  and  C_20
REMARK                            x       y       z     vdW  Elec       q    Type
REMARK                         _______ _______ _______ _____ _____    ______ ____
ROOT
ATOM      1  C   UNL     1       7.315   6.661  17.248  0.00  0.00    +0.000 C 
ATOM      2  C   UNL     1       6.228   7.462  16.502  0.00  0.00    +0.000 C 
ATOM      3  C   UNL     1       5.383   6.407  15.818  0.00  0.00    +0.000 C 
ATOM      4  C   UNL     1       5.960   5.203  15.107  0.00  0.00    +0.000 C 
ATOM      5  C   UNL     1       5.621   5.130  16.567  0.00  0.00    +0.000 C 
ATOM      6  N   UNL     1       6.624   5.376  17.592  0.00  0.00    +0.000 N 
ATOM      7  C   UNL     1       6.522   4.878  18.894  0.00  0.00    +0.000 C 
ATOM      8  O   UNL     1       7.278   5.225  19.794  0.00  0.00    +0.000 OA
ENDROOT
BRANCH   1  10
ATOM      9  N   UNL     1       8.128   8.811  18.012  0.00  0.00    +0.000 N 
ATOM     10  C   UNL     1       8.141   7.455  18.280  0.00  0.00    +0.000 C 
ATOM     11  O   UNL     1       8.632   6.963  19.293  0.00  0.00    +0.000 OA
ATOM     12  H   UNL     1       7.980   9.031  17.033  0.00  0.00    +0.000 HD
BRANCH   9  13
ATOM     13  C   UNL     1       8.930   9.774  18.740  0.00  0.00    +0.000 C 
BRANCH  13  16
ATOM     14  C   UNL     1      11.446  11.627  18.324  0.00  0.00    +0.000 C 
ATOM     15  C   UNL     1      10.106  11.913  17.736  0.00  0.00    +0.000 C 
ATOM     16  C   UNL     1       8.875  11.054  17.971  0.00  0.00    +0.000 C 
ATOM     17  C   UNL     1       8.968  12.431  18.586  0.00  0.00    +0.000 C 
ATOM     18 CL   UNL     1       9.176  12.636  20.313  0.00  0.00    +0.000 Cl
ATOM     19 CL   UNL     1       7.981  13.709  17.858  0.00  0.00    +0.000 Cl
ENDBRANCH  13  16
ENDBRANCH   9  13
ENDBRANCH   1  10
BRANCH   7  20
ATOM     20  C   UNL     1       5.422   3.854  19.082  0.00  0.00    +0.000 C 
BRANCH  20  21
ATOM     21  N   UNL     1       4.155   4.396  19.524  0.00  0.00    +0.000 N 
ATOM     22  N   UNL     1       4.033   5.737  19.623  0.00  0.00    +0.000 NA
ATOM     23  C   UNL     1       2.713   5.930  19.816  0.00  0.00    +0.000 A 
ATOM     24  C   UNL     1       2.000   4.697  19.809  0.00  0.00    +0.000 A 
ATOM     25  C   UNL     1       0.655   4.300  19.931  0.00  0.00    +0.000 A 
ATOM     26  C   UNL     1       0.332   2.939  19.828  0.00  0.00    +0.000 A 
ATOM     27  C   UNL     1       1.318   1.985  19.590  0.00  0.00    +0.000 A 
ATOM     28  C   UNL     1       2.653   2.357  19.453  0.00  0.00    +0.000 A 
ATOM     29  C   UNL     1       2.965   3.717  19.587  0.00  0.00    +0.000 A 
BRANCH  23  30
ATOM     30  C   UNL     1       2.174   7.291  19.956  0.00  0.00    +0.000 C 
ATOM     31  N   UNL     1       1.814   7.619  21.234  0.00  0.00    +0.000 N 
ATOM     32  O   UNL     1       2.054   8.090  19.035  0.00  0.00    +0.000 OA
ATOM     33  H   UNL     1       1.915   6.923  21.965  0.00  0.00    +0.000 HD
ATOM     34  H   UNL     1       1.418   8.527  21.429  0.00  0.00    +0.000 HD
ENDBRANCH  23  30
ENDBRANCH  20  21
ENDBRANCH   7  20
TORSDOF 6
ENDMDL
MODEL 9
REMARK VINA RESULT:      -7.4      3.695      8.311
REMARK  Name = 
REMARK  7 active torsions:
REMARK  status: ('A' for Active; 'I' for Inactive)
REMARK    1  A    between atoms: C_1  and  C_2
REMARK    2  A    between atoms: C_3  and  C_4
REMARK    3  A    between atoms: C_4  and  N_5
REMARK    4  A    between atoms: C_6  and  C_8
REMARK    5  A    between atoms: C_14  and  C_16
REMARK    6  A    between atoms: C_16  and  N_17
REMARK    7  A    between atoms: C_19  and  C_20
REMARK                            x       y       z     vdW  Elec       q    Type
REMARK                         _______ _______ _______ _____ _____    ______ ____
ROOT
ATOM      1  C   UNL     1       3.270   4.481  19.523  0.00  0.00    +0.000 C 
ATOM      2  C   UNL     1       2.381   3.416  18.849  0.00  0.00    +0.000 C 
ATOM      3  C   UNL     1       1.196   3.267  19.781  0.00  0.00    +0.000 C 
ATOM      4  C   UNL     1       1.317   3.210  21.288  0.00  0.00    +0.000 C 
ATOM      5  C   UNL     1       1.141   4.528  20.592  0.00  0.00    +0.000 C 
ATOM      6  N   UNL     1       2.283   5.355  20.235  0.00  0.00    +0.000 N 
ATOM      7  C   UNL     1       2.193   6.737  20.040  0.00  0.00    +0.000 C 
ATOM      8  O   UNL     1       3.114   7.400  19.580  0.00  0.00    +0.000 OA
ENDROOT
BRANCH   1  10
ATOM      9  N   UNL     1       3.967   5.344  17.370  0.00  0.00    +0.000 N 
ATOM     10  C   UNL     1       4.403   5.057  18.650  0.00  0.00    +0.000 C 
ATOM     11  O   UNL     1       5.516   5.357  19.077  0.00  0.00    +0.000 OA
ATOM     12  H   UNL     1       3.180   4.778  17.072  0.00  0.00    +0.000 HD
BRANCH   9  13
ATOM     13  C   UNL     1       4.853   5.767  16.304  0.00  0.00    +0.000 C 
BRANCH  13  16
ATOM     14  C   UNL     1       7.624   4.363  16.836  0.00  0.00    +0.000 C 
ATOM     15  C   UNL     1       6.604   3.837  15.886  0.00  0.00    +0.000 C 
ATOM     16  C   UNL     1       5.286   4.532  15.584  0.00  0.00    +0.000 C 
ATOM     17  C   UNL     1       6.375   4.483  14.538  0.00  0.00    +0.000 C 
ATOM     18 CL   UNL     1       7.260   5.926  14.089  0.00  0.00    +0.000 Cl
ATOM     19 CL   UNL     1       6.142   3.371  13.180  0.00  0.00    +0.000 Cl
ENDBRANCH  13  16
ENDBRANCH   9  13
ENDBRANCH   1  10
BRANCH   7  20
ATOM     20  C   UNL     1       0.874   7.340  20.477  0.00  0.00    +0.000 C 
BRANCH  20  21
ATOM     21  N   UNL     1       0.837   8.787  20.477  0.00  0.00    +0.000 N 
ATOM     22  N   UNL     1       1.223   9.436  19.359  0.00  0.00    +0.000 NA
ATOM     23  C   UNL     1       0.856  10.714  19.582  0.00  0.00    +0.000 A 
ATOM     24  C   UNL     1       0.207  10.857  20.841  0.00  0.00    +0.000 A 
ATOM     25  C   UNL     1      -0.389  11.908  21.565  0.00  0.00    +0.000 A 
ATOM     26  C   UNL     1      -0.982  11.634  22.806  0.00  0.00    +0.000 A 
ATOM     27  C   UNL     1      -1.003  10.340  23.319  0.00  0.00    +0.000 A 
ATOM     28  C   UNL     1      -0.431   9.283  22.615  0.00  0.00    +0.000 A 
ATOM     29  C   UNL     1       0.183   9.576  21.389  0.00  0.00    +0.000 A 
BRANCH  23  30
ATOM     30  C   UNL     1       1.099  11.745  18.562  0.00  0.00    +0.000 C 
ATOM     31  N   UNL     1       2.254  11.566  17.852  0.00  0.00    +0.000 N 
ATOM     32  O   UNL     1       0.351  12.689  18.335  0.00  0.00    +0.000 OA
ATOM     33  H   UNL     1       2.853  10.780  18.083  0.00  0.00    +0.000 HD
ATOM     34  H   UNL     1       2.517  12.231  17.140  0.00  0.00    +0.000 HD
ENDBRANCH  23  30
ENDBRANCH  20  21
ENDBRANCH   7  20
TORSDOF 6
ENDMDL
