MODEL 1
REMARK VINA RESULT:      -7.8      0.000      0.000
REMARK  Name = 
REMARK  4 active torsions:
REMARK  status: ('A' for Active; 'I' for Inactive)
REMARK    1  A    between atoms: N_4  and  N_5
REMARK    2  A    between atoms: C_6  and  C_8
REMARK    3  A    between atoms: C_12  and  C_13
REMARK    4  A    between atoms: N_15  and  N_16
REMARK                            x       y       z     vdW  Elec       q    Type
REMARK                         _______ _______ _______ _____ _____    ______ ____
ROOT
ATOM      1  C   UNL     1       3.859   2.545  19.421  0.00  0.00    +0.000 A 
ATOM      2  C   UNL     1       2.546   2.417  18.958  0.00  0.00    +0.000 A 
ATOM      3  C   UNL     1       2.152   3.093  17.802  0.00  0.00    +0.000 A 
ATOM      4  C   UNL     1       3.068   3.892  17.110  0.00  0.00    +0.000 A 
ATOM      5  C   UNL     1       4.386   4.038  17.571  0.00  0.00    +0.000 A 
ATOM      6  C   UNL     1       4.771   3.367  18.739  0.00  0.00    +0.000 A 
ENDROOT
BRANCH   1   8
ATOM      7  N   UNL     1       5.428   1.067  20.552  0.00  0.00    +0.000 N 
ATOM      8  C   UNL     1       4.316   1.873  20.664  0.00  0.00    +0.000 C 
ATOM      9  O   UNL     1       3.719   2.064  21.721  0.00  0.00    +0.000 OA
ATOM     10  H   UNL     1       6.067   1.047  19.757  0.00  0.00    +0.000 HD
BRANCH   7  14
ATOM     11  N   UNL     1       6.306  -1.473  20.657  0.00  0.00    +0.000 NA
ATOM     12  C   UNL     1       6.271  -0.760  21.732  0.00  0.00    +0.000 C 
ATOM     13  N   UNL     1       6.592  -1.262  22.942  0.00  0.00    +0.000 N 
ATOM     14  N   UNL     1       5.979   0.571  21.739  0.00  0.00    +0.000 N 
ATOM     15  H   UNL     1       6.603  -2.421  20.898  0.00  0.00    +0.000 HD
ATOM     16  H   UNL     1       6.642  -2.268  23.033  0.00  0.00    +0.000 HD
ATOM     17  H   UNL     1       6.196  -0.807  23.754  0.00  0.00    +0.000 HD
ATOM     18  H   UNL     1       5.587   0.996  22.575  0.00  0.00    +0.000 HD
ENDBRANCH   7  14
ENDBRANCH   1   8
BRANCH   5  19
ATOM     19  C   UNL     1       5.307   4.940  16.809  0.00  0.00    +0.000 C 
ATOM     20  O   UNL     1       5.027   6.124  16.634  0.00  0.00    +0.000 OA
ATOM     21  N   UNL     1       6.467   4.370  16.309  0.00  0.00    +0.000 N 
ATOM     22  H   UNL     1       6.539   3.377  16.124  0.00  0.00    +0.000 HD
BRANCH  21  23
ATOM     23  N   UNL     1       7.256   5.176  15.472  0.00  0.00    +0.000 N 
ATOM     24  C   UNL     1       7.227   4.871  14.143  0.00  0.00    +0.000 C 
ATOM     25  N   UNL     1       6.494   3.986  13.563  0.00  0.00    +0.000 NA
ATOM     26  N   UNL     1       8.035   5.644  13.391  0.00  0.00    +0.000 N 
ATOM     27  H   UNL     1       8.202   5.315  15.842  0.00  0.00    +0.000 HD
ATOM     28  H   UNL     1       5.986   3.480  14.291  0.00  0.00    +0.000 HD
ATOM     29  H   UNL     1       8.029   6.621  13.658  0.00  0.00    +0.000 HD
ATOM     30  H   UNL     1       7.806   5.527  12.410  0.00  0.00    +0.000 HD
ENDBRANCH  21  23
ENDBRANCH   5  19
TORSDOF 4
ENDMDL
MODEL 2
REMARK VINA RESULT:      -7.8      3.246      7.427
REMARK  Name = 
REMARK  4 active torsions:
REMARK  status: ('A' for Active; 'I' for Inactive)
REMARK    1  A    between atoms: N_4  and  N_5
REMARK    2  A    between atoms: C_6  and  C_8
REMARK    3  A    between atoms: C_12  and  C_13
REMARK    4  A    between atoms: N_15  and  N_16
REMARK                            x       y       z     vdW  Elec       q    Type
REMARK                         _______ _______ _______ _____ _____    ______ ____
ROOT
ATOM      1  C   UNL     1       5.730   5.276  16.012  0.00  0.00    +0.000 A 
ATOM      2  C   UNL     1       5.132   6.536  15.921  0.00  0.00    +0.000 A 
ATOM      3  C   UNL     1       4.310   6.987  16.954  0.00  0.00    +0.000 A 
ATOM      4  C   UNL     1       4.088   6.182  18.076  0.00  0.00    +0.000 A 
ATOM      5  C   UNL     1       4.674   4.910  18.176  0.00  0.00    +0.000 A 
ATOM      6  C   UNL     1       5.488   4.459  17.128  0.00  0.00    +0.000 A 
ENDROOT
BRANCH   1   8
ATOM      7  N   UNL     1       6.129   3.609  14.284  0.00  0.00    +0.000 N 
ATOM      8  C   UNL     1       6.587   4.739  14.924  0.00  0.00    +0.000 C 
ATOM      9  O   UNL     1       7.633   5.312  14.627  0.00  0.00    +0.000 OA
ATOM     10  H   UNL     1       5.184   3.231  14.353  0.00  0.00    +0.000 HD
BRANCH   7  14
ATOM     11  N   UNL     1       4.787   3.122  12.004  0.00  0.00    +0.000 NA
ATOM     12  C   UNL     1       6.045   2.846  12.081  0.00  0.00    +0.000 C 
ATOM     13  N   UNL     1       6.716   2.246  11.076  0.00  0.00    +0.000 N 
ATOM     14  N   UNL     1       6.825   3.194  13.143  0.00  0.00    +0.000 N 
ATOM     15  H   UNL     1       4.436   2.814  11.095  0.00  0.00    +0.000 HD
ATOM     16  H   UNL     1       6.171   1.806  10.347  0.00  0.00    +0.000 HD
ATOM     17  H   UNL     1       7.550   1.726  11.318  0.00  0.00    +0.000 HD
ATOM     18  H   UNL     1       7.660   2.653  13.353  0.00  0.00    +0.000 HD
ENDBRANCH   7  14
ENDBRANCH   1   8
BRANCH   5  19
ATOM     19  C   UNL     1       4.366   4.080  19.382  0.00  0.00    +0.000 C 
ATOM     20  O   UNL     1       5.125   3.182  19.739  0.00  0.00    +0.000 OA
ATOM     21  N   UNL     1       3.188   4.366  20.056  0.00  0.00    +0.000 N 
ATOM     22  H   UNL     1       2.407   4.819  19.597  0.00  0.00    +0.000 HD
BRANCH  21  23
ATOM     23  N   UNL     1       2.827   3.495  21.096  0.00  0.00    +0.000 N 
ATOM     24  C   UNL     1       1.509   3.152  21.162  0.00  0.00    +0.000 C 
ATOM     25  N   UNL     1       0.579   3.469  20.330  0.00  0.00    +0.000 NA
ATOM     26  N   UNL     1       1.208   2.352  22.203  0.00  0.00    +0.000 N 
ATOM     27  H   UNL     1       3.226   3.777  21.997  0.00  0.00    +0.000 HD
ATOM     28  H   UNL     1       0.986   4.104  19.640  0.00  0.00    +0.000 HD
ATOM     29  H   UNL     1       1.899   1.632  22.378  0.00  0.00    +0.000 HD
ATOM     30  H   UNL     1       0.284   1.955  22.074  0.00  0.00    +0.000 HD
ENDBRANCH  21  23
ENDBRANCH   5  19
TORSDOF 4
ENDMDL
MODEL 3
REMARK VINA RESULT:      -7.8      3.035      7.436
REMARK  Name = 
REMARK  4 active torsions:
REMARK  status: ('A' for Active; 'I' for Inactive)
REMARK    1  A    between atoms: N_4  and  N_5
REMARK    2  A    between atoms: C_6  and  C_8
REMARK    3  A    between atoms: C_12  and  C_13
REMARK    4  A    between atoms: N_15  and  N_16
REMARK                            x       y       z     vdW  Elec       q    Type
REMARK                         _______ _______ _______ _____ _____    ______ ____
ROOT
ATOM      1  C   UNL     1       5.175   5.321  16.315  0.00  0.00    +0.000 A 
ATOM      2  C   UNL     1       5.086   6.715  16.327  0.00  0.00    +0.000 A 
ATOM      3  C   UNL     1       4.140   7.340  17.141  0.00  0.00    +0.000 A 
ATOM      4  C   UNL     1       3.289   6.572  17.943  0.00  0.00    +0.000 A 
ATOM      5  C   UNL     1       3.361   5.171  17.932  0.00  0.00    +0.000 A 
ATOM      6  C   UNL     1       4.304   4.550  17.101  0.00  0.00    +0.000 A 
ENDROOT
BRANCH   1   8
ATOM      7  N   UNL     1       5.648   4.112  14.255  0.00  0.00    +0.000 N 
ATOM      8  C   UNL     1       6.143   4.609  15.440  0.00  0.00    +0.000 C 
ATOM      9  O   UNL     1       7.318   4.506  15.782  0.00  0.00    +0.000 OA
ATOM     10  H   UNL     1       4.747   4.354  13.841  0.00  0.00    +0.000 HD
BRANCH   7  14
ATOM     11  N   UNL     1       4.811   3.247  11.849  0.00  0.00    +0.000 NA
ATOM     12  C   UNL     1       6.038   3.067  12.206  0.00  0.00    +0.000 C 
ATOM     13  N   UNL     1       6.920   2.388  11.444  0.00  0.00    +0.000 N 
ATOM     14  N   UNL     1       6.575   3.601  13.340  0.00  0.00    +0.000 N 
ATOM     15  H   UNL     1       4.662   2.802  10.941  0.00  0.00    +0.000 HD
ATOM     16  H   UNL     1       6.551   1.823  10.692  0.00  0.00    +0.000 HD
ATOM     17  H   UNL     1       7.708   1.961  11.913  0.00  0.00    +0.000 HD
ATOM     18  H   UNL     1       7.371   3.148  13.781  0.00  0.00    +0.000 HD
ENDBRANCH   7  14
ENDBRANCH   1   8
BRANCH   5  19
ATOM     19  C   UNL     1       2.395   4.405  18.781  0.00  0.00    +0.000 C 
ATOM     20  O   UNL     1       1.568   3.651  18.271  0.00  0.00    +0.000 OA
ATOM     21  N   UNL     1       2.475   4.599  20.151  0.00  0.00    +0.000 N 
ATOM     22  H   UNL     1       2.868   5.444  20.548  0.00  0.00    +0.000 HD
BRANCH  21  23
ATOM     23  N   UNL     1       1.476   3.996  20.934  0.00  0.00    +0.000 N 
ATOM     24  C   UNL     1       1.864   2.919  21.674  0.00  0.00    +0.000 C 
ATOM     25  N   UNL     1       3.055   2.448  21.802  0.00  0.00    +0.000 NA
ATOM     26  N   UNL     1       0.860   2.351  22.371  0.00  0.00    +0.000 N 
ATOM     27  H   UNL     1       0.608   3.847  20.410  0.00  0.00    +0.000 HD
ATOM     28  H   UNL     1       3.664   2.977  21.174  0.00  0.00    +0.000 HD
ATOM     29  H   UNL     1       0.226   3.019  22.793  0.00  0.00    +0.000 HD
ATOM     30  H   UNL     1       1.240   1.714  23.062  0.00  0.00    +0.000 HD
ENDBRANCH  21  23
ENDBRANCH   5  19
TORSDOF 4
ENDMDL
MODEL 4
REMARK VINA RESULT:      -7.7      8.346     11.855
REMARK  Name = 
REMARK  4 active torsions:
REMARK  status: ('A' for Active; 'I' for Inactive)
REMARK    1  A    between atoms: N_4  and  N_5
REMARK    2  A    between atoms: C_6  and  C_8
REMARK    3  A    between atoms: C_12  and  C_13
REMARK    4  A    between atoms: N_15  and  N_16
REMARK                            x       y       z     vdW  Elec       q    Type
REMARK                         _______ _______ _______ _____ _____    ______ ____
ROOT
ATOM      1  C   UNL     1      10.119  12.265  18.511  0.00  0.00    +0.000 A 
ATOM      2  C   UNL     1      10.257  12.349  19.899  0.00  0.00    +0.000 A 
ATOM      3  C   UNL     1       9.780  11.315  20.704  0.00  0.00    +0.000 A 
ATOM      4  C   UNL     1       9.168  10.199  20.124  0.00  0.00    +0.000 A 
ATOM      5  C   UNL     1       9.013  10.107  18.732  0.00  0.00    +0.000 A 
ATOM      6  C   UNL     1       9.484  11.156  17.930  0.00  0.00    +0.000 A 
ENDROOT
BRANCH   1   8
ATOM      7  N   UNL     1       9.747  14.444  17.489  0.00  0.00    +0.000 N 
ATOM      8  C   UNL     1      10.582  13.355  17.614  0.00  0.00    +0.000 C 
ATOM      9  O   UNL     1      11.667  13.263  17.045  0.00  0.00    +0.000 OA
ATOM     10  H   UNL     1       8.952  14.653  18.095  0.00  0.00    +0.000 HD
BRANCH   7  14
ATOM     11  N   UNL     1      10.492  16.641  18.850  0.00  0.00    +0.000 NA
ATOM     12  C   UNL     1      10.466  16.661  17.560  0.00  0.00    +0.000 C 
ATOM     13  N   UNL     1      10.732  17.777  16.849  0.00  0.00    +0.000 N 
ATOM     14  N   UNL     1      10.243  15.554  16.797  0.00  0.00    +0.000 N 
ATOM     15  H   UNL     1      10.735  17.574  19.190  0.00  0.00    +0.000 HD
ATOM     16  H   UNL     1      10.729  18.658  17.344  0.00  0.00    +0.000 HD
ATOM     17  H   UNL     1      10.339  17.840  15.919  0.00  0.00    +0.000 HD
ATOM     18  H   UNL     1       9.852  15.656  15.864  0.00  0.00    +0.000 HD
ENDBRANCH   7  14
ENDBRANCH   1   8
BRANCH   5  19
ATOM     19  C   UNL     1       8.315   8.907  18.174  0.00  0.00    +0.000 C 
ATOM     20  O   UNL     1       7.582   9.004  17.191  0.00  0.00    +0.000 OA
ATOM     21  N   UNL     1       8.525   7.701  18.824  0.00  0.00    +0.000 N 
ATOM     22  H   UNL     1       8.804   7.660  19.797  0.00  0.00    +0.000 HD
BRANCH  21  23
ATOM     23  N   UNL     1       7.757   6.607  18.393  0.00  0.00    +0.000 N 
ATOM     24  C   UNL     1       7.677   5.553  19.253  0.00  0.00    +0.000 C 
ATOM     25  N   UNL     1       8.153   5.483  20.447  0.00  0.00    +0.000 NA
ATOM     26  N   UNL     1       6.966   4.513  18.773  0.00  0.00    +0.000 N 
ATOM     27  H   UNL     1       7.972   6.337  17.428  0.00  0.00    +0.000 HD
ATOM     28  H   UNL     1       8.687   6.339  20.617  0.00  0.00    +0.000 HD
ATOM     29  H   UNL     1       6.130   4.787  18.273  0.00  0.00    +0.000 HD
ATOM     30  H   UNL     1       6.753   3.867  19.525  0.00  0.00    +0.000 HD
ENDBRANCH  21  23
ENDBRANCH   5  19
TORSDOF 4
ENDMDL
MODEL 5
REMARK VINA RESULT:      -7.6      3.023      7.411
REMARK  Name = 
REMARK  4 active torsions:
REMARK  status: ('A' for Active; 'I' for Inactive)
REMARK    1  A    between atoms: N_4  and  N_5
REMARK    2  A    between atoms: C_6  and  C_8
REMARK    3  A    between atoms: C_12  and  C_13
REMARK    4  A    between atoms: N_15  and  N_16
REMARK                            x       y       z     vdW  Elec       q    Type
REMARK                         _______ _______ _______ _____ _____    ______ ____
ROOT
ATOM      1  C   UNL     1       5.659   5.152  15.618  0.00  0.00    +0.000 A 
ATOM      2  C   UNL     1       5.315   6.498  15.764  0.00  0.00    +0.000 A 
ATOM      3  C   UNL     1       4.366   6.869  16.717  0.00  0.00    +0.000 A 
ATOM      4  C   UNL     1       3.764   5.898  17.523  0.00  0.00    +0.000 A 
ATOM      5  C   UNL     1       4.093   4.541  17.380  0.00  0.00    +0.000 A 
ATOM      6  C   UNL     1       5.038   4.174  16.412  0.00  0.00    +0.000 A 
ENDROOT
BRANCH   1   8
ATOM      7  N   UNL     1       6.244   3.667  13.779  0.00  0.00    +0.000 N 
ATOM      8  C   UNL     1       6.640   4.704  14.596  0.00  0.00    +0.000 C 
ATOM      9  O   UNL     1       7.729   5.265  14.502  0.00  0.00    +0.000 OA
ATOM     10  H   UNL     1       5.290   3.320  13.683  0.00  0.00    +0.000 HD
BRANCH   7  14
ATOM     11  N   UNL     1       5.334   2.070  11.816  0.00  0.00    +0.000 NA
ATOM     12  C   UNL     1       6.572   2.433  11.827  0.00  0.00    +0.000 C 
ATOM     13  N   UNL     1       7.466   1.982  10.922  0.00  0.00    +0.000 N 
ATOM     14  N   UNL     1       7.076   3.353  12.699  0.00  0.00    +0.000 N 
ATOM     15  H   UNL     1       5.187   1.421  11.040  0.00  0.00    +0.000 HD
ATOM     16  H   UNL     1       7.206   1.176  10.371  0.00  0.00    +0.000 HD
ATOM     17  H   UNL     1       8.441   1.984  11.192  0.00  0.00    +0.000 HD
ATOM     18  H   UNL     1       8.063   3.328  12.942  0.00  0.00    +0.000 HD
ENDBRANCH   7  14
ENDBRANCH   1   8
BRANCH   5  19
ATOM     19  C   UNL     1       3.385   3.545  18.245  0.00  0.00    +0.000 C 
ATOM     20  O   UNL     1       2.429   2.903  17.814  0.00  0.00    +0.000 OA
ATOM     21  N   UNL     1       3.852   3.399  19.542  0.00  0.00    +0.000 N 
ATOM     22  H   UNL     1       4.363   4.136  20.012  0.00  0.00    +0.000 HD
BRANCH  21  23
ATOM     23  N   UNL     1       3.099   2.576  20.395  0.00  0.00    +0.000 N 
ATOM     24  C   UNL     1       2.297   3.217  21.293  0.00  0.00    +0.000 C 
ATOM     25  N   UNL     1       2.090   4.484  21.388  0.00  0.00    +0.000 NA
ATOM     26  N   UNL     1       1.631   2.384  22.117  0.00  0.00    +0.000 N 
ATOM     27  H   UNL     1       3.660   1.824  20.807  0.00  0.00    +0.000 HD
ATOM     28  H   UNL     1       2.705   4.948  20.716  0.00  0.00    +0.000 HD
ATOM     29  H   UNL     1       1.270   1.557  21.657  0.00  0.00    +0.000 HD
ATOM     30  H   UNL     1       0.897   2.891  22.598  0.00  0.00    +0.000 HD
ENDBRANCH  21  23
ENDBRANCH   5  19
TORSDOF 4
ENDMDL
MODEL 6
REMARK VINA RESULT:      -7.6      0.898      6.722
REMARK  Name = 
REMARK  4 active torsions:
REMARK  status: ('A' for Active; 'I' for Inactive)
REMARK    1  A    between atoms: N_4  and  N_5
REMARK    2  A    between atoms: C_6  and  C_8
REMARK    3  A    between atoms: C_12  and  C_13
REMARK    4  A    between atoms: N_15  and  N_16
REMARK                            x       y       z     vdW  Elec       q    Type
REMARK                         _______ _______ _______ _____ _____    ______ ____
ROOT
ATOM      1  C   UNL     1       3.546   4.269  17.756  0.00  0.00    +0.000 A 
ATOM      2  C   UNL     1       2.155   4.378  17.685  0.00  0.00    +0.000 A 
ATOM      3  C   UNL     1       1.364   3.778  18.665  0.00  0.00    +0.000 A 
ATOM      4  C   UNL     1       1.962   3.073  19.715  0.00  0.00    +0.000 A 
ATOM      5  C   UNL     1       3.358   2.946  19.792  0.00  0.00    +0.000 A 
ATOM      6  C   UNL     1       4.145   3.541  18.797  0.00  0.00    +0.000 A 
ENDROOT
BRANCH   1   8
ATOM      7  N   UNL     1       5.158   3.977  15.955  0.00  0.00    +0.000 N 
ATOM      8  C   UNL     1       4.429   4.861  16.719  0.00  0.00    +0.000 C 
ATOM      9  O   UNL     1       4.465   6.080  16.567  0.00  0.00    +0.000 OA
ATOM     10  H   UNL     1       5.003   2.970  15.904  0.00  0.00    +0.000 HD
BRANCH   7  14
ATOM     11  N   UNL     1       7.801   4.439  16.147  0.00  0.00    +0.000 NA
ATOM     12  C   UNL     1       7.156   4.824  15.098  0.00  0.00    +0.000 C 
ATOM     13  N   UNL     1       7.743   5.524  14.106  0.00  0.00    +0.000 N 
ATOM     14  N   UNL     1       5.853   4.501  14.859  0.00  0.00    +0.000 N 
ATOM     15  H   UNL     1       8.771   4.753  16.073  0.00  0.00    +0.000 HD
ATOM     16  H   UNL     1       8.642   5.944  14.298  0.00  0.00    +0.000 HD
ATOM     17  H   UNL     1       7.146   6.106  13.531  0.00  0.00    +0.000 HD
ATOM     18  H   UNL     1       5.284   5.106  14.271  0.00  0.00    +0.000 HD
ENDBRANCH   7  14
ENDBRANCH   1   8
BRANCH   5  19
ATOM     19  C   UNL     1       3.936   2.146  20.917  0.00  0.00    +0.000 C 
ATOM     20  O   UNL     1       3.350   2.059  21.995  0.00  0.00    +0.000 OA
ATOM     21  N   UNL     1       5.156   1.529  20.684  0.00  0.00    +0.000 N 
ATOM     22  H   UNL     1       5.801   1.871  19.983  0.00  0.00    +0.000 HD
BRANCH  21  23
ATOM     23  N   UNL     1       5.767   0.903  21.783  0.00  0.00    +0.000 N 
ATOM     24  C   UNL     1       6.138  -0.397  21.603  0.00  0.00    +0.000 C 
ATOM     25  N   UNL     1       6.068  -1.084  20.517  0.00  0.00    +0.000 NA
ATOM     26  N   UNL     1       6.677  -0.964  22.700  0.00  0.00    +0.000 N 
ATOM     27  H   UNL     1       5.260   1.070  22.658  0.00  0.00    +0.000 HD
ATOM     28  H   UNL     1       5.601  -0.505  19.815  0.00  0.00    +0.000 HD
ATOM     29  H   UNL     1       7.305  -0.352  23.208  0.00  0.00    +0.000 HD
ATOM     30  H   UNL     1       7.132  -1.834  22.448  0.00  0.00    +0.000 HD
ENDBRANCH  21  23
ENDBRANCH   5  19
TORSDOF 4
ENDMDL
MODEL 7
REMARK VINA RESULT:      -7.6      8.354     10.058
REMARK  Name = 
REMARK  4 active torsions:
REMARK  status: ('A' for Active; 'I' for Inactive)
REMARK    1  A    between atoms: N_4  and  N_5
REMARK    2  A    between atoms: C_6  and  C_8
REMARK    3  A    between atoms: C_12  and  C_13
REMARK    4  A    between atoms: N_15  and  N_16
REMARK                            x       y       z     vdW  Elec       q    Type
REMARK                         _______ _______ _______ _____ _____    ______ ____
ROOT
ATOM      1  C   UNL     1       8.946  10.104  18.714  0.00  0.00    +0.000 A 
ATOM      2  C   UNL     1       9.245  10.163  20.078  0.00  0.00    +0.000 A 
ATOM      3  C   UNL     1       9.899  11.281  20.595  0.00  0.00    +0.000 A 
ATOM      4  C   UNL     1      10.251  12.340  19.751  0.00  0.00    +0.000 A 
ATOM      5  C   UNL     1       9.967  12.289  18.378  0.00  0.00    +0.000 A 
ATOM      6  C   UNL     1       9.322  11.157  17.864  0.00  0.00    +0.000 A 
ENDROOT
BRANCH   1   8
ATOM      7  N   UNL     1       8.472   7.716  18.753  0.00  0.00    +0.000 N 
ATOM      8  C   UNL     1       8.281   8.921  18.112  0.00  0.00    +0.000 C 
ATOM      9  O   UNL     1       7.589   9.052  17.105  0.00  0.00    +0.000 OA
ATOM     10  H   UNL     1       8.856   7.599  19.691  0.00  0.00    +0.000 HD
BRANCH   7  14
ATOM     11  N   UNL     1       8.131   5.583  20.356  0.00  0.00    +0.000 NA
ATOM     12  C   UNL     1       7.709   5.546  19.137  0.00  0.00    +0.000 C 
ATOM     13  N   UNL     1       7.158   4.439  18.597  0.00  0.00    +0.000 N 
ATOM     14  N   UNL     1       7.712   6.629  18.309  0.00  0.00    +0.000 N 
ATOM     15  H   UNL     1       7.973   4.671  20.788  0.00  0.00    +0.000 HD
ATOM     16  H   UNL     1       7.288   3.565  19.088  0.00  0.00    +0.000 HD
ATOM     17  H   UNL     1       7.203   4.341  17.591  0.00  0.00    +0.000 HD
ATOM     18  H   UNL     1       7.751   6.492  17.302  0.00  0.00    +0.000 HD
ENDBRANCH   7  14
ENDBRANCH   1   8
BRANCH   5  19
ATOM     19  C   UNL     1      10.406  13.435  17.521  0.00  0.00    +0.000 C 
ATOM     20  O   UNL     1      11.448  13.373  16.871  0.00  0.00    +0.000 OA
ATOM     21  N   UNL     1       9.592  14.557  17.511  0.00  0.00    +0.000 N 
ATOM     22  H   UNL     1       8.967  14.770  18.279  0.00  0.00    +0.000 HD
BRANCH  21  23
ATOM     23  N   UNL     1      10.077  15.684  16.826  0.00  0.00    +0.000 N 
ATOM     24  C   UNL     1      10.380  16.769  17.594  0.00  0.00    +0.000 C 
ATOM     25  N   UNL     1      10.352  16.847  18.879  0.00  0.00    +0.000 NA
ATOM     26  N   UNL     1      10.797  17.836  16.885  0.00  0.00    +0.000 N 
ATOM     27  H   UNL     1       9.516  15.908  15.999  0.00  0.00    +0.000 HD
ATOM     28  H   UNL     1       9.977  15.964  19.234  0.00  0.00    +0.000 HD
ATOM     29  H   UNL     1      11.421  17.600  16.122  0.00  0.00    +0.000 HD
ATOM     30  H   UNL     1      11.215  18.519  17.507  0.00  0.00    +0.000 HD
ENDBRANCH  21  23
ENDBRANCH   5  19
TORSDOF 4
ENDMDL
MODEL 8
REMARK VINA RESULT:      -7.6      3.061      4.026
REMARK  Name = 
REMARK  4 active torsions:
REMARK  status: ('A' for Active; 'I' for Inactive)
REMARK    1  A    between atoms: N_4  and  N_5
REMARK    2  A    between atoms: C_6  and  C_8
REMARK    3  A    between atoms: C_12  and  C_13
REMARK    4  A    between atoms: N_15  and  N_16
REMARK                            x       y       z     vdW  Elec       q    Type
REMARK                         _______ _______ _______ _____ _____    ______ ____
ROOT
ATOM      1  C   UNL     1       3.303   5.418  17.954  0.00  0.00    +0.000 A 
ATOM      2  C   UNL     1       3.335   6.815  17.941  0.00  0.00    +0.000 A 
ATOM      3  C   UNL     1       4.243   7.478  17.114  0.00  0.00    +0.000 A 
ATOM      4  C   UNL     1       5.115   6.746  16.301  0.00  0.00    +0.000 A 
ATOM      5  C   UNL     1       5.100   5.343  16.312  0.00  0.00    +0.000 A 
ATOM      6  C   UNL     1       4.195   4.684  17.155  0.00  0.00    +0.000 A 
ENDROOT
BRANCH   1   8
ATOM      7  N   UNL     1       2.620   4.755  20.195  0.00  0.00    +0.000 N 
ATOM      8  C   UNL     1       2.378   4.667  18.841  0.00  0.00    +0.000 C 
ATOM      9  O   UNL     1       1.447   4.028  18.357  0.00  0.00    +0.000 OA
ATOM     10  H   UNL     1       3.239   5.430  20.644  0.00  0.00    +0.000 HD
BRANCH   7  14
ATOM     11  N   UNL     1       3.181   2.512  21.569  0.00  0.00    +0.000 NA
ATOM     12  C   UNL     1       1.988   3.002  21.598  0.00  0.00    +0.000 C 
ATOM     13  N   UNL     1       0.971   2.390  22.240  0.00  0.00    +0.000 N 
ATOM     14  N   UNL     1       1.659   4.207  21.052  0.00  0.00    +0.000 N 
ATOM     15  H   UNL     1       3.190   1.634  22.092  0.00  0.00    +0.000 HD
ATOM     16  H   UNL     1       1.100   1.424  22.508  0.00  0.00    +0.000 HD
ATOM     17  H   UNL     1       0.032   2.594  21.923  0.00  0.00    +0.000 HD
ATOM     18  H   UNL     1       0.703   4.379  20.750  0.00  0.00    +0.000 HD
ENDBRANCH   7  14
ENDBRANCH   1   8
BRANCH   5  19
ATOM     19  C   UNL     1       6.085   4.617  15.450  0.00  0.00    +0.000 C 
ATOM     20  O   UNL     1       7.290   4.668  15.689  0.00  0.00    +0.000 OA
ATOM     21  N   UNL     1       5.572   3.906  14.376  0.00  0.00    +0.000 N 
ATOM     22  H   UNL     1       4.679   4.139  13.959  0.00  0.00    +0.000 HD
BRANCH  21  23
ATOM     23  N   UNL     1       6.503   3.349  13.484  0.00  0.00    +0.000 N 
ATOM     24  C   UNL     1       6.027   3.013  12.251  0.00  0.00    +0.000 C 
ATOM     25  N   UNL     1       4.845   3.227  11.787  0.00  0.00    +0.000 NA
ATOM     26  N   UNL     1       6.948   2.441  11.451  0.00  0.00    +0.000 N 
ATOM     27  H   UNL     1       7.071   2.617  13.921  0.00  0.00    +0.000 HD
ATOM     28  H   UNL     1       4.284   3.626  12.543  0.00  0.00    +0.000 HD
ATOM     29  H   UNL     1       7.863   2.873  11.509  0.00  0.00    +0.000 HD
ATOM     30  H   UNL     1       6.608   2.422  10.496  0.00  0.00    +0.000 HD
ENDBRANCH  21  23
ENDBRANCH   5  19
TORSDOF 4
ENDMDL
MODEL 9
REMARK VINA RESULT:      -7.6      4.129      5.435
REMARK  Name = 
REMARK  4 active torsions:
REMARK  status: ('A' for Active; 'I' for Inactive)
REMARK    1  A    between atoms: N_4  and  N_5
REMARK    2  A    between atoms: C_6  and  C_8
REMARK    3  A    between atoms: C_12  and  C_13
REMARK    4  A    between atoms: N_15  and  N_16
REMARK                            x       y       z     vdW  Elec       q    Type
REMARK                         _______ _______ _______ _____ _____    ______ ____
ROOT
ATOM      1  C   UNL     1       2.731   4.965  18.995  0.00  0.00    +0.000 A 
ATOM      2  C   UNL     1       2.278   3.712  18.573  0.00  0.00    +0.000 A 
ATOM      3  C   UNL     1       2.834   3.122  17.438  0.00  0.00    +0.000 A 
ATOM      4  C   UNL     1       3.843   3.780  16.728  0.00  0.00    +0.000 A 
ATOM      5  C   UNL     1       4.300   5.043  17.134  0.00  0.00    +0.000 A 
ATOM      6  C   UNL     1       3.727   5.636  18.268  0.00  0.00    +0.000 A 
ENDROOT
BRANCH   1   8
ATOM      7  N   UNL     1       2.312   7.014  20.240  0.00  0.00    +0.000 N 
ATOM      8  C   UNL     1       2.147   5.648  20.177  0.00  0.00    +0.000 C 
ATOM      9  O   UNL     1       1.539   4.998  21.024  0.00  0.00    +0.000 OA
ATOM     10  H   UNL     1       2.618   7.610  19.471  0.00  0.00    +0.000 HD
BRANCH   7  14
ATOM     11  N   UNL     1       1.061   9.326  19.667  0.00  0.00    +0.000 NA
ATOM     12  C   UNL     1       1.133   8.919  20.890  0.00  0.00    +0.000 C 
ATOM     13  N   UNL     1       0.663   9.650  21.922  0.00  0.00    +0.000 N 
ATOM     14  N   UNL     1       1.618   7.696  21.246  0.00  0.00    +0.000 N 
ATOM     15  H   UNL     1       0.612  10.243  19.649  0.00  0.00    +0.000 HD
ATOM     16  H   UNL     1       0.458  10.624  21.751  0.00  0.00    +0.000 HD
ATOM     17  H   UNL     1       1.069   9.481  22.833  0.00  0.00    +0.000 HD
ATOM     18  H   UNL     1       2.013   7.562  22.173  0.00  0.00    +0.000 HD
ENDBRANCH   7  14
ENDBRANCH   1   8
BRANCH   5  19
ATOM     19  C   UNL     1       5.354   5.715  16.310  0.00  0.00    +0.000 C 
ATOM     20  O   UNL     1       5.194   6.862  15.897  0.00  0.00    +0.000 OA
ATOM     21  N   UNL     1       6.494   4.979  16.030  0.00  0.00    +0.000 N 
ATOM     22  H   UNL     1       6.491   3.966  16.037  0.00  0.00    +0.000 HD
BRANCH  21  23
ATOM     23  N   UNL     1       7.414   5.552  15.137  0.00  0.00    +0.000 N 
ATOM     24  C   UNL     1       7.421   5.041  13.873  0.00  0.00    +0.000 C 
ATOM     25  N   UNL     1       6.625   4.155  13.386  0.00  0.00    +0.000 NA
ATOM     26  N   UNL     1       8.351   5.594  13.069  0.00  0.00    +0.000 N 
ATOM     27  H   UNL     1       8.347   5.650  15.548  0.00  0.00    +0.000 HD
ATOM     28  H   UNL     1       6.024   3.829  14.146  0.00  0.00    +0.000 HD
ATOM     29  H   UNL     1       8.443   6.597  13.181  0.00  0.00    +0.000 HD
ATOM     30  H   UNL     1       8.163   5.344  12.105  0.00  0.00    +0.000 HD
ENDBRANCH  21  23
ENDBRANCH   5  19
TORSDOF 4
ENDMDL
