MODEL 1
REMARK VINA RESULT:      -7.5      0.000      0.000
REMARK  Name = 
REMARK  7 active torsions:
REMARK  status: ('A' for Active; 'I' for Inactive)
REMARK    1  A    between atoms: C_1  and  N_2
REMARK    2  A    between atoms: N_2  and  C_3
REMARK    3  A    between atoms: C_3  and  C_4
REMARK    4  A    between atoms: N_6  and  C_7
REMARK    5  A    between atoms: C_7  and  C_8
REMARK    6  A    between atoms: C_13  and  O_14
REMARK    7  A    between atoms: O_14  and  C_15
REMARK                            x       y       z     vdW  Elec       q    Type
REMARK                         _______ _______ _______ _____ _____    ______ ____
ROOT
ATOM      1  C   UNL     1       6.268   5.950  17.040  0.00  0.00    +0.000 A 
ATOM      2  C   UNL     1       7.165   6.954  17.442  0.00  0.00    +0.000 A 
ATOM      3  C   UNL     1       7.911   6.814  18.607  0.00  0.00    +0.000 A 
ATOM      4  C   UNL     1       7.774   5.647  19.324  0.00  0.00    +0.000 A 
ATOM      5  N   UNL     1       6.912   4.669  18.985  0.00  0.00    +0.000 NA
ATOM      6  C   UNL     1       6.126   4.859  17.894  0.00  0.00    +0.000 A 
ENDROOT
BRANCH   1   7
ATOM      7  C   UNL     1       5.542   6.097  15.734  0.00  0.00    +0.000 C 
BRANCH   7  10
ATOM      8  C   UNL     1       6.519   4.616  14.002  0.00  0.00    +0.000 C 
ATOM      9  O   UNL     1       7.512   5.310  13.809  0.00  0.00    +0.000 OA
ATOM     10  N   UNL     1       5.549   4.893  14.944  0.00  0.00    +0.000 N 
ATOM     11  H   UNL     1       4.708   4.327  14.888  0.00  0.00    +0.000 HD
BRANCH   8  12
ATOM     12  C   UNL     1       6.258   3.318  13.229  0.00  0.00    +0.000 C 
BRANCH  12  14
ATOM     13  C   UNL     1       4.499   3.194  11.566  0.00  0.00    +0.000 C 
ATOM     14  N   UNL     1       5.884   3.588  11.822  0.00  0.00    +0.000 NA
ATOM     15  H   UNL     1       5.958   4.595  11.672  0.00  0.00    +0.000 HD
ENDBRANCH  12  14
ENDBRANCH   8  12
ENDBRANCH   7  10
ENDBRANCH   1   7
BRANCH   6  16
ATOM     16  O   UNL     1       5.103   3.937  17.666  0.00  0.00    +0.000 OA
BRANCH  16  17
ATOM     17  C   UNL     1       4.128   3.844  18.648  0.00  0.00    +0.000 A 
ATOM     18  C   UNL     1       4.193   2.907  19.691  0.00  0.00    +0.000 A 
ATOM     19  C   UNL     1       3.126   2.764  20.581  0.00  0.00    +0.000 A 
ATOM     20  C   UNL     1       2.035   3.615  20.475  0.00  0.00    +0.000 A 
ATOM     21  F   UNL     1       1.002   3.459  21.319  0.00  0.00    +0.000 F 
ATOM     22  C   UNL     1       1.989   4.608  19.508  0.00  0.00    +0.000 A 
ATOM     23  C   UNL     1       3.042   4.720  18.597  0.00  0.00    +0.000 A 
ATOM     24  F   UNL     1       2.984   5.681  17.664  0.00  0.00    +0.000 F 
ENDBRANCH  16  17
ENDBRANCH   6  16
TORSDOF 6
ENDMDL
MODEL 2
REMARK VINA RESULT:      -7.5      1.088      1.500
REMARK  Name = 
REMARK  7 active torsions:
REMARK  status: ('A' for Active; 'I' for Inactive)
REMARK    1  A    between atoms: C_1  and  N_2
REMARK    2  A    between atoms: N_2  and  C_3
REMARK    3  A    between atoms: C_3  and  C_4
REMARK    4  A    between atoms: N_6  and  C_7
REMARK    5  A    between atoms: C_7  and  C_8
REMARK    6  A    between atoms: C_13  and  O_14
REMARK    7  A    between atoms: O_14  and  C_15
REMARK                            x       y       z     vdW  Elec       q    Type
REMARK                         _______ _______ _______ _____ _____    ______ ____
ROOT
ATOM      1  C   UNL     1       6.235   6.012  16.961  0.00  0.00    +0.000 A 
ATOM      2  C   UNL     1       7.094   7.029  17.409  0.00  0.00    +0.000 A 
ATOM      3  C   UNL     1       7.894   6.839  18.530  0.00  0.00    +0.000 A 
ATOM      4  C   UNL     1       7.848   5.614  19.155  0.00  0.00    +0.000 A 
ATOM      5  N   UNL     1       7.024   4.619  18.772  0.00  0.00    +0.000 NA
ATOM      6  C   UNL     1       6.185   4.852  17.729  0.00  0.00    +0.000 A 
ENDROOT
BRANCH   1   7
ATOM      7  C   UNL     1       5.448   6.221  15.699  0.00  0.00    +0.000 C 
BRANCH   7  10
ATOM      8  C   UNL     1       6.663   4.869  14.013  0.00  0.00    +0.000 C 
ATOM      9  O   UNL     1       7.711   5.502  14.096  0.00  0.00    +0.000 OA
ATOM     10  N   UNL     1       5.544   5.114  14.783  0.00  0.00    +0.000 N 
ATOM     11  H   UNL     1       4.701   4.624  14.501  0.00  0.00    +0.000 HD
BRANCH   8  12
ATOM     12  C   UNL     1       6.489   3.688  13.052  0.00  0.00    +0.000 C 
BRANCH  12  14
ATOM     13  C   UNL     1       4.645   3.300  11.526  0.00  0.00    +0.000 C 
ATOM     14  N   UNL     1       5.067   3.292  12.927  0.00  0.00    +0.000 NA
ATOM     15  H   UNL     1       4.981   2.337  13.276  0.00  0.00    +0.000 HD
ENDBRANCH  12  14
ENDBRANCH   8  12
ENDBRANCH   7  10
ENDBRANCH   1   7
BRANCH   6  16
ATOM     16  O   UNL     1       5.202   3.896  17.466  0.00  0.00    +0.000 OA
BRANCH  16  17
ATOM     17  C   UNL     1       4.022   4.012  18.186  0.00  0.00    +0.000 A 
ATOM     18  C   UNL     1       2.946   4.802  17.752  0.00  0.00    +0.000 A 
ATOM     19  C   UNL     1       1.831   4.991  18.573  0.00  0.00    +0.000 A 
ATOM     20  C   UNL     1       1.760   4.322  19.786  0.00  0.00    +0.000 A 
ATOM     21  F   UNL     1       0.696   4.524  20.581  0.00  0.00    +0.000 F 
ATOM     22  C   UNL     1       2.772   3.465  20.195  0.00  0.00    +0.000 A 
ATOM     23  C   UNL     1       3.901   3.311  19.388  0.00  0.00    +0.000 A 
ATOM     24  F   UNL     1       4.873   2.484  19.797  0.00  0.00    +0.000 F 
ENDBRANCH  16  17
ENDBRANCH   6  16
TORSDOF 6
ENDMDL
MODEL 3
REMARK VINA RESULT:      -7.4      3.214      5.219
REMARK  Name = 
REMARK  7 active torsions:
REMARK  status: ('A' for Active; 'I' for Inactive)
REMARK    1  A    between atoms: C_1  and  N_2
REMARK    2  A    between atoms: N_2  and  C_3
REMARK    3  A    between atoms: C_3  and  C_4
REMARK    4  A    between atoms: N_6  and  C_7
REMARK    5  A    between atoms: C_7  and  C_8
REMARK    6  A    between atoms: C_13  and  O_14
REMARK    7  A    between atoms: O_14  and  C_15
REMARK                            x       y       z     vdW  Elec       q    Type
REMARK                         _______ _______ _______ _____ _____    ______ ____
ROOT
ATOM      1  C   UNL     1       5.102   4.383  17.613  0.00  0.00    +0.000 A 
ATOM      2  C   UNL     1       6.366   4.429  17.001  0.00  0.00    +0.000 A 
ATOM      3  C   UNL     1       7.447   5.017  17.649  0.00  0.00    +0.000 A 
ATOM      4  C   UNL     1       7.247   5.510  18.919  0.00  0.00    +0.000 A 
ATOM      5  N   UNL     1       6.049   5.505  19.534  0.00  0.00    +0.000 NA
ATOM      6  C   UNL     1       4.984   5.008  18.853  0.00  0.00    +0.000 A 
ENDROOT
BRANCH   1   7
ATOM      7  C   UNL     1       3.979   3.667  16.921  0.00  0.00    +0.000 C 
BRANCH   7  10
ATOM      8  C   UNL     1       1.798   3.164  17.987  0.00  0.00    +0.000 C 
ATOM      9  O   UNL     1       1.159   3.974  17.323  0.00  0.00    +0.000 OA
ATOM     10  N   UNL     1       3.145   2.915  17.824  0.00  0.00    +0.000 N 
ATOM     11  H   UNL     1       3.577   2.342  18.542  0.00  0.00    +0.000 HD
BRANCH   8  12
ATOM     12  C   UNL     1       1.149   2.294  19.070  0.00  0.00    +0.000 C 
BRANCH  12  14
ATOM     13  C   UNL     1       1.462   2.848  21.409  0.00  0.00    +0.000 C 
ATOM     14  N   UNL     1       0.668   3.109  20.208  0.00  0.00    +0.000 NA
ATOM     15  H   UNL     1       0.790   4.091  19.957  0.00  0.00    +0.000 HD
ENDBRANCH  12  14
ENDBRANCH   8  12
ENDBRANCH   7  10
ENDBRANCH   1   7
BRANCH   6  16
ATOM     16  O   UNL     1       3.718   5.187  19.413  0.00  0.00    +0.000 OA
BRANCH  16  17
ATOM     17  C   UNL     1       3.071   6.375  19.106  0.00  0.00    +0.000 A 
ATOM     18  C   UNL     1       3.301   7.074  17.911  0.00  0.00    +0.000 A 
ATOM     19  C   UNL     1       2.725   8.330  17.705  0.00  0.00    +0.000 A 
ATOM     20  C   UNL     1       1.856   8.844  18.657  0.00  0.00    +0.000 A 
ATOM     21  F   UNL     1       1.323  10.061  18.464  0.00  0.00    +0.000 F 
ATOM     22  C   UNL     1       1.544   8.130  19.805  0.00  0.00    +0.000 A 
ATOM     23  C   UNL     1       2.153   6.893  20.023  0.00  0.00    +0.000 A 
ATOM     24  F   UNL     1       1.847   6.214  21.138  0.00  0.00    +0.000 F 
ENDBRANCH  16  17
ENDBRANCH   6  16
TORSDOF 6
ENDMDL
MODEL 4
REMARK VINA RESULT:      -7.4      1.067      1.161
REMARK  Name = 
REMARK  7 active torsions:
REMARK  status: ('A' for Active; 'I' for Inactive)
REMARK    1  A    between atoms: C_1  and  N_2
REMARK    2  A    between atoms: N_2  and  C_3
REMARK    3  A    between atoms: C_3  and  C_4
REMARK    4  A    between atoms: N_6  and  C_7
REMARK    5  A    between atoms: C_7  and  C_8
REMARK    6  A    between atoms: C_13  and  O_14
REMARK    7  A    between atoms: O_14  and  C_15
REMARK                            x       y       z     vdW  Elec       q    Type
REMARK                         _______ _______ _______ _____ _____    ______ ____
ROOT
ATOM      1  C   UNL     1       6.249   6.006  17.076  0.00  0.00    +0.000 A 
ATOM      2  C   UNL     1       7.136   7.039  17.421  0.00  0.00    +0.000 A 
ATOM      3  C   UNL     1       7.958   6.926  18.537  0.00  0.00    +0.000 A 
ATOM      4  C   UNL     1       7.903   5.757  19.262  0.00  0.00    +0.000 A 
ATOM      5  N   UNL     1       7.054   4.750  18.978  0.00  0.00    +0.000 NA
ATOM      6  C   UNL     1       6.196   4.913  17.938  0.00  0.00    +0.000 A 
ENDROOT
BRANCH   1   7
ATOM      7  C   UNL     1       5.439   6.127  15.818  0.00  0.00    +0.000 C 
BRANCH   7  10
ATOM      8  C   UNL     1       6.609   4.719  14.146  0.00  0.00    +0.000 C 
ATOM      9  O   UNL     1       7.627   5.404  14.116  0.00  0.00    +0.000 OA
ATOM     10  N   UNL     1       5.531   4.965  14.972  0.00  0.00    +0.000 N 
ATOM     11  H   UNL     1       4.698   4.418  14.780  0.00  0.00    +0.000 HD
BRANCH   8  12
ATOM     12  C   UNL     1       6.433   3.468  13.278  0.00  0.00    +0.000 C 
BRANCH  12  14
ATOM     13  C   UNL     1       5.094   2.503  11.502  0.00  0.00    +0.000 C 
ATOM     14  N   UNL     1       5.602   3.746  12.083  0.00  0.00    +0.000 NA
ATOM     15  H   UNL     1       4.802   4.301  12.388  0.00  0.00    +0.000 HD
ENDBRANCH  12  14
ENDBRANCH   8  12
ENDBRANCH   7  10
ENDBRANCH   1   7
BRANCH   6  16
ATOM     16  O   UNL     1       5.191   3.958  17.774  0.00  0.00    +0.000 OA
BRANCH  16  17
ATOM     17  C   UNL     1       4.002   4.194  18.449  0.00  0.00    +0.000 A 
ATOM     18  C   UNL     1       3.895   5.132  19.488  0.00  0.00    +0.000 A 
ATOM     19  C   UNL     1       2.713   5.242  20.223  0.00  0.00    +0.000 A 
ATOM     20  C   UNL     1       1.616   4.473  19.863  0.00  0.00    +0.000 A 
ATOM     21  F   UNL     1       0.488   4.566  20.587  0.00  0.00    +0.000 F 
ATOM     22  C   UNL     1       1.670   3.604  18.783  0.00  0.00    +0.000 A 
ATOM     23  C   UNL     1       2.867   3.470  18.077  0.00  0.00    +0.000 A 
ATOM     24  F   UNL     1       2.908   2.624  17.038  0.00  0.00    +0.000 F 
ENDBRANCH  16  17
ENDBRANCH   6  16
TORSDOF 6
ENDMDL
MODEL 5
REMARK VINA RESULT:      -7.3      4.034      7.464
REMARK  Name = 
REMARK  7 active torsions:
REMARK  status: ('A' for Active; 'I' for Inactive)
REMARK    1  A    between atoms: C_1  and  N_2
REMARK    2  A    between atoms: N_2  and  C_3
REMARK    3  A    between atoms: C_3  and  C_4
REMARK    4  A    between atoms: N_6  and  C_7
REMARK    5  A    between atoms: C_7  and  C_8
REMARK    6  A    between atoms: C_13  and  O_14
REMARK    7  A    between atoms: O_14  and  C_15
REMARK                            x       y       z     vdW  Elec       q    Type
REMARK                         _______ _______ _______ _____ _____    ______ ____
ROOT
ATOM      1  C   UNL     1       2.235   5.336  19.640  0.00  0.00    +0.000 A 
ATOM      2  C   UNL     1       1.389   4.728  20.582  0.00  0.00    +0.000 A 
ATOM      3  C   UNL     1       1.289   3.342  20.656  0.00  0.00    +0.000 A 
ATOM      4  C   UNL     1       2.075   2.593  19.810  0.00  0.00    +0.000 A 
ATOM      5  N   UNL     1       2.884   3.135  18.879  0.00  0.00    +0.000 NA
ATOM      6  C   UNL     1       2.903   4.488  18.759  0.00  0.00    +0.000 A 
ENDROOT
BRANCH   1   7
ATOM      7  C   UNL     1       2.382   6.830  19.645  0.00  0.00    +0.000 C 
BRANCH   7  10
ATOM      8  C   UNL     1       1.200   8.627  20.878  0.00  0.00    +0.000 C 
ATOM      9  O   UNL     1       0.828   9.225  19.874  0.00  0.00    +0.000 OA
ATOM     10  N   UNL     1       1.905   7.441  20.859  0.00  0.00    +0.000 N 
ATOM     11  H   UNL     1       2.285   7.141  21.751  0.00  0.00    +0.000 HD
BRANCH   8  12
ATOM     12  C   UNL     1       0.883   9.119  22.295  0.00  0.00    +0.000 C 
BRANCH  12  14
ATOM     13  C   UNL     1      -0.860  10.697  22.889  0.00  0.00    +0.000 C 
ATOM     14  N   UNL     1       0.469  10.541  22.297  0.00  0.00    +0.000 NA
ATOM     15  H   UNL     1       1.134  11.054  22.879  0.00  0.00    +0.000 HD
ENDBRANCH  12  14
ENDBRANCH   8  12
ENDBRANCH   7  10
ENDBRANCH   1   7
BRANCH   6  16
ATOM     16  O   UNL     1       3.585   5.031  17.669  0.00  0.00    +0.000 OA
BRANCH  16  17
ATOM     17  C   UNL     1       4.881   5.465  17.908  0.00  0.00    +0.000 A 
ATOM     18  C   UNL     1       5.674   4.947  18.943  0.00  0.00    +0.000 A 
ATOM     19  C   UNL     1       6.923   5.505  19.226  0.00  0.00    +0.000 A 
ATOM     20  C   UNL     1       7.409   6.524  18.419  0.00  0.00    +0.000 A 
ATOM     21  F   UNL     1       8.600   7.073  18.708  0.00  0.00    +0.000 F 
ATOM     22  C   UNL     1       6.681   6.991  17.334  0.00  0.00    +0.000 A 
ATOM     23  C   UNL     1       5.417   6.455  17.081  0.00  0.00    +0.000 A 
ATOM     24  F   UNL     1       4.722   6.918  16.032  0.00  0.00    +0.000 F 
ENDBRANCH  16  17
ENDBRANCH   6  16
TORSDOF 6
ENDMDL
MODEL 6
REMARK VINA RESULT:      -7.3      4.142      7.567
REMARK  Name = 
REMARK  7 active torsions:
REMARK  status: ('A' for Active; 'I' for Inactive)
REMARK    1  A    between atoms: C_1  and  N_2
REMARK    2  A    between atoms: N_2  and  C_3
REMARK    3  A    between atoms: C_3  and  C_4
REMARK    4  A    between atoms: N_6  and  C_7
REMARK    5  A    between atoms: C_7  and  C_8
REMARK    6  A    between atoms: C_13  and  O_14
REMARK    7  A    between atoms: O_14  and  C_15
REMARK                            x       y       z     vdW  Elec       q    Type
REMARK                         _______ _______ _______ _____ _____    ______ ____
ROOT
ATOM      1  C   UNL     1       2.404   5.317  19.903  0.00  0.00    +0.000 A 
ATOM      2  C   UNL     1       1.219   4.585  20.082  0.00  0.00    +0.000 A 
ATOM      3  C   UNL     1       1.258   3.207  20.271  0.00  0.00    +0.000 A 
ATOM      4  C   UNL     1       2.491   2.598  20.322  0.00  0.00    +0.000 A 
ATOM      5  N   UNL     1       3.650   3.259  20.136  0.00  0.00    +0.000 NA
ATOM      6  C   UNL     1       3.590   4.588  19.863  0.00  0.00    +0.000 A 
ENDROOT
BRANCH   1   7
ATOM      7  C   UNL     1       2.330   6.812  19.785  0.00  0.00    +0.000 C 
BRANCH   7  10
ATOM      8  C   UNL     1       1.169   8.629  21.008  0.00  0.00    +0.000 C 
ATOM      9  O   UNL     1       0.747   9.189  20.001  0.00  0.00    +0.000 OA
ATOM     10  N   UNL     1       1.893   7.454  20.997  0.00  0.00    +0.000 N 
ATOM     11  H   UNL     1       2.312   7.189  21.883  0.00  0.00    +0.000 HD
BRANCH   8  12
ATOM     12  C   UNL     1       0.901   9.162  22.420  0.00  0.00    +0.000 C 
BRANCH  12  14
ATOM     13  C   UNL     1      -0.960  10.561  23.095  0.00  0.00    +0.000 C 
ATOM     14  N   UNL     1       0.319  10.524  22.387  0.00  0.00    +0.000 NA
ATOM     15  H   UNL     1       0.966  11.146  22.872  0.00  0.00    +0.000 HD
ENDBRANCH  12  14
ENDBRANCH   8  12
ENDBRANCH   7  10
ENDBRANCH   1   7
BRANCH   6  16
ATOM     16  O   UNL     1       4.773   5.222  19.477  0.00  0.00    +0.000 OA
BRANCH  16  17
ATOM     17  C   UNL     1       5.243   4.925  18.206  0.00  0.00    +0.000 A 
ATOM     18  C   UNL     1       4.388   4.639  17.131  0.00  0.00    +0.000 A 
ATOM     19  C   UNL     1       4.909   4.220  15.904  0.00  0.00    +0.000 A 
ATOM     20  C   UNL     1       6.285   4.170  15.733  0.00  0.00    +0.000 A 
ATOM     21  F   UNL     1       6.781   3.745  14.559  0.00  0.00    +0.000 F 
ATOM     22  C   UNL     1       7.151   4.534  16.754  0.00  0.00    +0.000 A 
ATOM     23  C   UNL     1       6.623   4.915  17.990  0.00  0.00    +0.000 A 
ATOM     24  F   UNL     1       7.470   5.261  18.970  0.00  0.00    +0.000 F 
ENDBRANCH  16  17
ENDBRANCH   6  16
TORSDOF 6
ENDMDL
MODEL 7
REMARK VINA RESULT:      -7.3      3.338      5.612
REMARK  Name = 
REMARK  7 active torsions:
REMARK  status: ('A' for Active; 'I' for Inactive)
REMARK    1  A    between atoms: C_1  and  N_2
REMARK    2  A    between atoms: N_2  and  C_3
REMARK    3  A    between atoms: C_3  and  C_4
REMARK    4  A    between atoms: N_6  and  C_7
REMARK    5  A    between atoms: C_7  and  C_8
REMARK    6  A    between atoms: C_13  and  O_14
REMARK    7  A    between atoms: O_14  and  C_15
REMARK                            x       y       z     vdW  Elec       q    Type
REMARK                         _______ _______ _______ _____ _____    ______ ____
ROOT
ATOM      1  C   UNL     1       2.814   4.169  18.082  0.00  0.00    +0.000 A 
ATOM      2  C   UNL     1       2.264   2.883  17.953  0.00  0.00    +0.000 A 
ATOM      3  C   UNL     1       1.307   2.427  18.854  0.00  0.00    +0.000 A 
ATOM      4  C   UNL     1       0.888   3.290  19.841  0.00  0.00    +0.000 A 
ATOM      5  N   UNL     1       1.403   4.523  20.012  0.00  0.00    +0.000 NA
ATOM      6  C   UNL     1       2.401   4.920  19.180  0.00  0.00    +0.000 A 
ENDROOT
BRANCH   1   7
ATOM      7  C   UNL     1       3.783   4.658  17.044  0.00  0.00    +0.000 C 
BRANCH   7  10
ATOM      8  C   UNL     1       5.676   6.258  16.986  0.00  0.00    +0.000 C 
ATOM      9  O   UNL     1       5.326   6.807  15.946  0.00  0.00    +0.000 OA
ATOM     10  N   UNL     1       4.966   5.253  17.610  0.00  0.00    +0.000 N 
ATOM     11  H   UNL     1       5.447   4.782  18.370  0.00  0.00    +0.000 HD
BRANCH   8  12
ATOM     12  C   UNL     1       6.947   6.661  17.742  0.00  0.00    +0.000 C 
BRANCH  12  14
ATOM     13  C   UNL     1       8.170   8.738  17.999  0.00  0.00    +0.000 C 
ATOM     14  N   UNL     1       7.675   7.746  17.045  0.00  0.00    +0.000 NA
ATOM     15  H   UNL     1       8.481   7.326  16.580  0.00  0.00    +0.000 HD
ENDBRANCH  12  14
ENDBRANCH   8  12
ENDBRANCH   7  10
ENDBRANCH   1   7
BRANCH   6  16
ATOM     16  O   UNL     1       3.062   6.110  19.486  0.00  0.00    +0.000 OA
BRANCH  16  17
ATOM     17  C   UNL     1       2.375   7.284  19.214  0.00  0.00    +0.000 A 
ATOM     18  C   UNL     1       2.339   7.861  17.935  0.00  0.00    +0.000 A 
ATOM     19  C   UNL     1       1.743   9.109  17.738  0.00  0.00    +0.000 A 
ATOM     20  C   UNL     1       1.113   9.736  18.803  0.00  0.00    +0.000 A 
ATOM     21  F   UNL     1       0.561  10.946  18.615  0.00  0.00    +0.000 F 
ATOM     22  C   UNL     1       1.058   9.143  20.057  0.00  0.00    +0.000 A 
ATOM     23  C   UNL     1       1.690   7.914  20.256  0.00  0.00    +0.000 A 
ATOM     24  F   UNL     1       1.633   7.353  21.472  0.00  0.00    +0.000 F 
ENDBRANCH  16  17
ENDBRANCH   6  16
TORSDOF 6
ENDMDL
MODEL 8
REMARK VINA RESULT:      -7.2      1.999      2.437
REMARK  Name = 
REMARK  7 active torsions:
REMARK  status: ('A' for Active; 'I' for Inactive)
REMARK    1  A    between atoms: C_1  and  N_2
REMARK    2  A    between atoms: N_2  and  C_3
REMARK    3  A    between atoms: C_3  and  C_4
REMARK    4  A    between atoms: N_6  and  C_7
REMARK    5  A    between atoms: C_7  and  C_8
REMARK    6  A    between atoms: C_13  and  O_14
REMARK    7  A    between atoms: O_14  and  C_15
REMARK                            x       y       z     vdW  Elec       q    Type
REMARK                         _______ _______ _______ _____ _____    ______ ____
ROOT
ATOM      1  C   UNL     1       5.049   5.175  16.794  0.00  0.00    +0.000 A 
ATOM      2  C   UNL     1       5.303   6.532  16.536  0.00  0.00    +0.000 A 
ATOM      3  C   UNL     1       4.436   7.517  16.998  0.00  0.00    +0.000 A 
ATOM      4  C   UNL     1       3.352   7.121  17.748  0.00  0.00    +0.000 A 
ATOM      5  N   UNL     1       3.060   5.831  18.002  0.00  0.00    +0.000 NA
ATOM      6  C   UNL     1       3.867   4.877  17.469  0.00  0.00    +0.000 A 
ENDROOT
BRANCH   1   7
ATOM      7  C   UNL     1       6.049   4.146  16.354  0.00  0.00    +0.000 C 
BRANCH   7  10
ATOM      8  C   UNL     1       6.844   4.559  14.042  0.00  0.00    +0.000 C 
ATOM      9  O   UNL     1       7.736   5.337  14.368  0.00  0.00    +0.000 OA
ATOM     10  N   UNL     1       6.022   3.902  14.934  0.00  0.00    +0.000 N 
ATOM     11  H   UNL     1       5.230   3.417  14.526  0.00  0.00    +0.000 HD
BRANCH   8  12
ATOM     12  C   UNL     1       6.564   4.195  12.580  0.00  0.00    +0.000 C 
BRANCH  12  14
ATOM     13  C   UNL     1       5.206   2.481  11.531  0.00  0.00    +0.000 C 
ATOM     14  N   UNL     1       6.344   2.739  12.414  0.00  0.00    +0.000 NA
ATOM     15  H   UNL     1       7.179   2.350  11.974  0.00  0.00    +0.000 HD
ENDBRANCH  12  14
ENDBRANCH   8  12
ENDBRANCH   7  10
ENDBRANCH   1   7
BRANCH   6  16
ATOM     16  O   UNL     1       3.449   3.549  17.567  0.00  0.00    +0.000 OA
BRANCH  16  17
ATOM     17  C   UNL     1       2.773   3.200  18.728  0.00  0.00    +0.000 A 
ATOM     18  C   UNL     1       1.372   3.164  18.805  0.00  0.00    +0.000 A 
ATOM     19  C   UNL     1       0.737   2.934  20.028  0.00  0.00    +0.000 A 
ATOM     20  C   UNL     1       1.505   2.659  21.150  0.00  0.00    +0.000 A 
ATOM     21  F   UNL     1       0.890   2.460  22.328  0.00  0.00    +0.000 F 
ATOM     22  C   UNL     1       2.889   2.600  21.078  0.00  0.00    +0.000 A 
ATOM     23  C   UNL     1       3.519   2.869  19.862  0.00  0.00    +0.000 A 
ATOM     24  F   UNL     1       4.857   2.814  19.806  0.00  0.00    +0.000 F 
ENDBRANCH  16  17
ENDBRANCH   6  16
TORSDOF 6
ENDMDL
MODEL 9
REMARK VINA RESULT:      -7.2      1.660      1.884
REMARK  Name = 
REMARK  7 active torsions:
REMARK  status: ('A' for Active; 'I' for Inactive)
REMARK    1  A    between atoms: C_1  and  N_2
REMARK    2  A    between atoms: N_2  and  C_3
REMARK    3  A    between atoms: C_3  and  C_4
REMARK    4  A    between atoms: N_6  and  C_7
REMARK    5  A    between atoms: C_7  and  C_8
REMARK    6  A    between atoms: C_13  and  O_14
REMARK    7  A    between atoms: O_14  and  C_15
REMARK                            x       y       z     vdW  Elec       q    Type
REMARK                         _______ _______ _______ _____ _____    ______ ____
ROOT
ATOM      1  C   UNL     1       5.753   6.284  17.339  0.00  0.00    +0.000 A 
ATOM      2  C   UNL     1       7.156   6.291  17.424  0.00  0.00    +0.000 A 
ATOM      3  C   UNL     1       7.798   5.897  18.593  0.00  0.00    +0.000 A 
ATOM      4  C   UNL     1       7.019   5.460  19.640  0.00  0.00    +0.000 A 
ATOM      5  N   UNL     1       5.673   5.455  19.608  0.00  0.00    +0.000 NA
ATOM      6  C   UNL     1       5.059   5.927  18.493  0.00  0.00    +0.000 A 
ENDROOT
BRANCH   1   7
ATOM      7  C   UNL     1       5.097   6.636  16.036  0.00  0.00    +0.000 C 
BRANCH   7  10
ATOM      8  C   UNL     1       5.819   4.714  14.646  0.00  0.00    +0.000 C 
ATOM      9  O   UNL     1       5.228   3.868  15.309  0.00  0.00    +0.000 OA
ATOM     10  N   UNL     1       5.769   6.071  14.893  0.00  0.00    +0.000 N 
ATOM     11  H   UNL     1       6.428   6.637  14.370  0.00  0.00    +0.000 HD
BRANCH   8  12
ATOM     12  C   UNL     1       6.668   4.354  13.421  0.00  0.00    +0.000 C 
BRANCH  12  14
ATOM     13  C   UNL     1       5.199   3.192  11.882  0.00  0.00    +0.000 C 
ATOM     14  N   UNL     1       6.279   3.041  12.856  0.00  0.00    +0.000 NA
ATOM     15  H   UNL     1       7.093   2.664  12.368  0.00  0.00    +0.000 HD
ENDBRANCH  12  14
ENDBRANCH   8  12
ENDBRANCH   7  10
ENDBRANCH   1   7
BRANCH   6  16
ATOM     16  O   UNL     1       3.675   6.106  18.543  0.00  0.00    +0.000 OA
BRANCH  16  17
ATOM     17  C   UNL     1       2.908   4.951  18.605  0.00  0.00    +0.000 A 
ATOM     18  C   UNL     1       3.010   3.923  17.655  0.00  0.00    +0.000 A 
ATOM     19  C   UNL     1       2.127   2.841  17.686  0.00  0.00    +0.000 A 
ATOM     20  C   UNL     1       1.200   2.750  18.715  0.00  0.00    +0.000 A 
ATOM     21  F   UNL     1       0.339   1.720  18.728  0.00  0.00    +0.000 F 
ATOM     22  C   UNL     1       1.141   3.709  19.716  0.00  0.00    +0.000 A 
ATOM     23  C   UNL     1       2.000   4.808  19.657  0.00  0.00    +0.000 A 
ATOM     24  F   UNL     1       1.930   5.730  20.628  0.00  0.00    +0.000 F 
ENDBRANCH  16  17
ENDBRANCH   6  16
TORSDOF 6
ENDMDL
