MODEL 1
REMARK VINA RESULT:      -7.9      0.000      0.000
REMARK  Name = 
REMARK  10 active torsions:
REMARK  status: ('A' for Active; 'I' for Inactive)
REMARK    1  A    between atoms: C_1  and  C_2
REMARK    2  A    between atoms: C_2  and  C_3
REMARK    3  A    between atoms: C_3  and  C_4
REMARK    4  A    between atoms: C_3  and  C_5
REMARK    5  A    between atoms: C_3  and  C_6
REMARK    6  A    between atoms: C_9  and  O_10
REMARK    7  A    between atoms: O_10  and  C_11
REMARK    8  A    between atoms: C_11  and  C_12
REMARK    9  A    between atoms: C_12  and  C_13
REMARK   10  A    between atoms: C_13  and  N_14
REMARK                            x       y       z     vdW  Elec       q    Type
REMARK                         _______ _______ _______ _____ _____    ______ ____
ROOT
ATOM      1  C   UNL     1       8.321   7.921  18.407  0.00  0.00    +0.000 C 
ENDROOT
BRANCH   1   2
ATOM      2  C   UNL     1       8.526   9.421  18.271  0.00  0.00    +0.000 C 
BRANCH   2   3
ATOM      3  O   UNL     1       9.253   9.882  19.405  0.00  0.00    +0.000 OA
BRANCH   3   7
ATOM      4  C   UNL     1      10.507  13.833  18.802  0.00  0.00    +0.000 A 
ATOM      5  C   UNL     1       9.815  13.089  17.836  0.00  0.00    +0.000 A 
ATOM      6  C   UNL     1       9.412  11.776  18.078  0.00  0.00    +0.000 A 
ATOM      7  C   UNL     1       9.711  11.165  19.287  0.00  0.00    +0.000 A 
ATOM      8  C   UNL     1      10.400  11.878  20.266  0.00  0.00    +0.000 A 
ATOM      9  C   UNL     1      10.796  13.199  20.027  0.00  0.00    +0.000 A 
BRANCH   4  10
ATOM     10  C   UNL     1      10.936  15.290  18.565  0.00  0.00    +0.000 C 
ATOM     11  C   UNL     1      11.133  15.613  17.066  0.00  0.00    +0.000 C 
ATOM     12  C   UNL     1      12.300  15.531  19.259  0.00  0.00    +0.000 C 
BRANCH  10  14
ATOM     13  C   UNL     1       9.025  17.026  18.173  0.00  0.00    +0.000 C 
ATOM     14  C   UNL     1       9.907  16.290  19.176  0.00  0.00    +0.000 C 
ENDBRANCH  10  14
ENDBRANCH   4  10
ENDBRANCH   3   7
ENDBRANCH   2   3
ENDBRANCH   1   2
BRANCH   1  15
ATOM     15  C   UNL     1       7.434   7.406  17.274  0.00  0.00    +0.000 C 
BRANCH  15  16
ATOM     16  N   UNL     1       7.517   5.945  17.110  0.00  0.00    +0.000 NA
ATOM     17  C   UNL     1       7.273   5.203  18.372  0.00  0.00    +0.000 C 
ATOM     18  C   UNL     1       5.840   5.348  18.914  0.00  0.00    +0.000 C 
ATOM     19  N   UNL     1       4.850   5.024  17.882  0.00  0.00    +0.000 N 
ATOM     20  C   UNL     1       3.941   4.018  18.124  0.00  0.00    +0.000 A 
ATOM     21  C   UNL     1       2.715   3.945  17.454  0.00  0.00    +0.000 A 
ATOM     22  N   UNL     1       1.762   3.006  17.688  0.00  0.00    +0.000 NA
ATOM     23  C   UNL     1       2.078   2.111  18.643  0.00  0.00    +0.000 A 
ATOM     24  C   UNL     1       3.285   2.151  19.316  0.00  0.00    +0.000 A 
ATOM     25  N   UNL     1       4.221   3.097  19.077  0.00  0.00    +0.000 NA
ATOM     26  C   UNL     1       5.061   5.569  16.537  0.00  0.00    +0.000 C 
ATOM     27  C   UNL     1       6.544   5.461  16.108  0.00  0.00    +0.000 C 
ENDBRANCH  15  16
ENDBRANCH   1  15
TORSDOF 7
ENDMDL
MODEL 2
REMARK VINA RESULT:      -7.6      6.350      8.109
REMARK  Name = 
REMARK  10 active torsions:
REMARK  status: ('A' for Active; 'I' for Inactive)
REMARK    1  A    between atoms: C_1  and  C_2
REMARK    2  A    between atoms: C_2  and  C_3
REMARK    3  A    between atoms: C_3  and  C_4
REMARK    4  A    between atoms: C_3  and  C_5
REMARK    5  A    between atoms: C_3  and  C_6
REMARK    6  A    between atoms: C_9  and  O_10
REMARK    7  A    between atoms: O_10  and  C_11
REMARK    8  A    between atoms: C_11  and  C_12
REMARK    9  A    between atoms: C_12  and  C_13
REMARK   10  A    between atoms: C_13  and  N_14
REMARK                            x       y       z     vdW  Elec       q    Type
REMARK                         _______ _______ _______ _____ _____    ______ ____
ROOT
ATOM      1  C   UNL     1       1.301   4.613  20.345  0.00  0.00    +0.000 C 
ENDROOT
BRANCH   1   2
ATOM      2  C   UNL     1       1.568   6.008  20.888  0.00  0.00    +0.000 C 
BRANCH   2   3
ATOM      3  O   UNL     1       2.329   6.728  19.925  0.00  0.00    +0.000 OA
BRANCH   3   7
ATOM      4  C   UNL     1       0.722  10.546  19.297  0.00  0.00    +0.000 A 
ATOM      5  C   UNL     1       0.624   9.860  20.516  0.00  0.00    +0.000 A 
ATOM      6  C   UNL     1       1.176   8.591  20.685  0.00  0.00    +0.000 A 
ATOM      7  C   UNL     1       1.823   7.964  19.630  0.00  0.00    +0.000 A 
ATOM      8  C   UNL     1       1.935   8.620  18.405  0.00  0.00    +0.000 A 
ATOM      9  C   UNL     1       1.389   9.897  18.239  0.00  0.00    +0.000 A 
BRANCH   4  10
ATOM     10  C   UNL     1       0.145  11.957  19.099  0.00  0.00    +0.000 C 
ATOM     11  C   UNL     1       1.198  12.959  18.572  0.00  0.00    +0.000 C 
ATOM     12  C   UNL     1      -0.343  12.496  20.467  0.00  0.00    +0.000 C 
BRANCH  10  14
ATOM     13  C   UNL     1      -2.141  10.886  18.430  0.00  0.00    +0.000 C 
ATOM     14  C   UNL     1      -1.078  11.938  18.131  0.00  0.00    +0.000 C 
ENDBRANCH  10  14
ENDBRANCH   4  10
ENDBRANCH   3   7
ENDBRANCH   2   3
ENDBRANCH   1   2
BRANCH   1  15
ATOM     15  C   UNL     1       2.449   3.675  20.717  0.00  0.00    +0.000 C 
BRANCH  15  16
ATOM     16  N   UNL     1       2.776   2.727  19.639  0.00  0.00    +0.000 NA
ATOM     17  C   UNL     1       2.419   3.234  18.290  0.00  0.00    +0.000 C 
ATOM     18  C   UNL     1       3.235   4.463  17.849  0.00  0.00    +0.000 C 
ATOM     19  N   UNL     1       4.674   4.215  17.982  0.00  0.00    +0.000 N 
ATOM     20  C   UNL     1       5.476   4.330  16.869  0.00  0.00    +0.000 A 
ATOM     21  C   UNL     1       6.849   4.577  16.963  0.00  0.00    +0.000 A 
ATOM     22  N   UNL     1       7.678   4.750  15.900  0.00  0.00    +0.000 NA
ATOM     23  C   UNL     1       7.075   4.666  14.699  0.00  0.00    +0.000 A 
ATOM     24  C   UNL     1       5.721   4.414  14.574  0.00  0.00    +0.000 A 
ATOM     25  N   UNL     1       4.908   4.252  15.642  0.00  0.00    +0.000 NA
ATOM     26  C   UNL     1       5.145   3.568  19.211  0.00  0.00    +0.000 C 
ATOM     27  C   UNL     1       4.218   2.401  19.629  0.00  0.00    +0.000 C 
ENDBRANCH  15  16
ENDBRANCH   1  15
TORSDOF 7
ENDMDL
MODEL 3
REMARK VINA RESULT:      -7.5      6.680      8.375
REMARK  Name = 
REMARK  10 active torsions:
REMARK  status: ('A' for Active; 'I' for Inactive)
REMARK    1  A    between atoms: C_1  and  C_2
REMARK    2  A    between atoms: C_2  and  C_3
REMARK    3  A    between atoms: C_3  and  C_4
REMARK    4  A    between atoms: C_3  and  C_5
REMARK    5  A    between atoms: C_3  and  C_6
REMARK    6  A    between atoms: C_9  and  O_10
REMARK    7  A    between atoms: O_10  and  C_11
REMARK    8  A    between atoms: C_11  and  C_12
REMARK    9  A    between atoms: C_12  and  C_13
REMARK   10  A    between atoms: C_13  and  N_14
REMARK                            x       y       z     vdW  Elec       q    Type
REMARK                         _______ _______ _______ _____ _____    ______ ____
ROOT
ATOM      1  C   UNL     1       1.480   4.591  19.834  0.00  0.00    +0.000 C 
ENDROOT
BRANCH   1   2
ATOM      2  C   UNL     1       2.002   5.727  20.700  0.00  0.00    +0.000 C 
BRANCH   2   3
ATOM      3  O   UNL     1       2.574   6.715  19.850  0.00  0.00    +0.000 OA
BRANCH   3   7
ATOM      4  C   UNL     1       0.330  10.200  19.236  0.00  0.00    +0.000 A 
ATOM      5  C   UNL     1       1.131   9.615  18.245  0.00  0.00    +0.000 A 
ATOM      6  C   UNL     1       1.860   8.451  18.489  0.00  0.00    +0.000 A 
ATOM      7  C   UNL     1       1.825   7.854  19.741  0.00  0.00    +0.000 A 
ATOM      8  C   UNL     1       1.040   8.414  20.747  0.00  0.00    +0.000 A 
ATOM      9  C   UNL     1       0.301   9.576  20.499  0.00  0.00    +0.000 A 
BRANCH   4  10
ATOM     10  C   UNL     1      -0.502  11.466  18.979  0.00  0.00    +0.000 C 
ATOM     11  C   UNL     1       0.377  12.702  18.680  0.00  0.00    +0.000 C 
ATOM     12  C   UNL     1      -1.322  11.795  20.252  0.00  0.00    +0.000 C 
BRANCH  10  14
ATOM     13  C   UNL     1      -2.444  10.057  17.947  0.00  0.00    +0.000 C 
ATOM     14  C   UNL     1      -1.508  11.254  17.807  0.00  0.00    +0.000 C 
ENDBRANCH  10  14
ENDBRANCH   4  10
ENDBRANCH   3   7
ENDBRANCH   2   3
ENDBRANCH   1   2
BRANCH   1  15
ATOM     15  C   UNL     1       2.007   3.252  20.350  0.00  0.00    +0.000 C 
BRANCH  15  16
ATOM     16  N   UNL     1       2.488   2.378  19.266  0.00  0.00    +0.000 NA
ATOM     17  C   UNL     1       2.237   2.938  17.914  0.00  0.00    +0.000 C 
ATOM     18  C   UNL     1       3.024   4.226  17.614  0.00  0.00    +0.000 C 
ATOM     19  N   UNL     1       4.455   4.043  17.878  0.00  0.00    +0.000 N 
ATOM     20  C   UNL     1       5.354   4.256  16.857  0.00  0.00    +0.000 A 
ATOM     21  C   UNL     1       6.696   4.565  17.099  0.00  0.00    +0.000 A 
ATOM     22  N   UNL     1       7.613   4.834  16.133  0.00  0.00    +0.000 NA
ATOM     23  C   UNL     1       7.135   4.783  14.875  0.00  0.00    +0.000 A 
ATOM     24  C   UNL     1       5.815   4.470  14.604  0.00  0.00    +0.000 A 
ATOM     25  N   UNL     1       4.913   4.213  15.577  0.00  0.00    +0.000 NA
ATOM     26  C   UNL     1       4.839   3.357  19.116  0.00  0.00    +0.000 C 
ATOM     27  C   UNL     1       3.940   2.126  19.384  0.00  0.00    +0.000 C 
ENDBRANCH  15  16
ENDBRANCH   1  15
TORSDOF 7
ENDMDL
MODEL 4
REMARK VINA RESULT:      -7.5      3.793     11.169
REMARK  Name = 
REMARK  10 active torsions:
REMARK  status: ('A' for Active; 'I' for Inactive)
REMARK    1  A    between atoms: C_1  and  C_2
REMARK    2  A    between atoms: C_2  and  C_3
REMARK    3  A    between atoms: C_3  and  C_4
REMARK    4  A    between atoms: C_3  and  C_5
REMARK    5  A    between atoms: C_3  and  C_6
REMARK    6  A    between atoms: C_9  and  O_10
REMARK    7  A    between atoms: O_10  and  C_11
REMARK    8  A    between atoms: C_11  and  C_12
REMARK    9  A    between atoms: C_12  and  C_13
REMARK   10  A    between atoms: C_13  and  N_14
REMARK                            x       y       z     vdW  Elec       q    Type
REMARK                         _______ _______ _______ _____ _____    ______ ____
ROOT
ATOM      1  C   UNL     1       8.597   9.570  17.925  0.00  0.00    +0.000 C 
ENDROOT
BRANCH   1   2
ATOM      2  C   UNL     1       8.195   8.128  18.188  0.00  0.00    +0.000 C 
BRANCH   2   3
ATOM      3  O   UNL     1       7.495   7.640  17.048  0.00  0.00    +0.000 OA
BRANCH   3   7
ATOM      4  C   UNL     1       4.520   4.899  18.138  0.00  0.00    +0.000 A 
ATOM      5  C   UNL     1       5.878   4.724  18.442  0.00  0.00    +0.000 A 
ATOM      6  C   UNL     1       6.837   5.662  18.064  0.00  0.00    +0.000 A 
ATOM      7  C   UNL     1       6.465   6.793  17.351  0.00  0.00    +0.000 A 
ATOM      8  C   UNL     1       5.123   6.994  17.032  0.00  0.00    +0.000 A 
ATOM      9  C   UNL     1       4.160   6.056  17.420  0.00  0.00    +0.000 A 
BRANCH   4  10
ATOM     10  C   UNL     1       3.444   3.890  18.570  0.00  0.00    +0.000 C 
ATOM     11  C   UNL     1       3.821   3.143  19.870  0.00  0.00    +0.000 C 
ATOM     12  C   UNL     1       3.290   2.816  17.464  0.00  0.00    +0.000 C 
BRANCH  10  14
ATOM     13  C   UNL     1       1.484   4.539  20.169  0.00  0.00    +0.000 C 
ATOM     14  C   UNL     1       2.060   4.583  18.757  0.00  0.00    +0.000 C 
ENDBRANCH  10  14
ENDBRANCH   4  10
ENDBRANCH   3   7
ENDBRANCH   2   3
ENDBRANCH   1   2
BRANCH   1  15
ATOM     15  C   UNL     1       9.080  10.226  19.219  0.00  0.00    +0.000 C 
BRANCH  15  16
ATOM     16  N   UNL     1      10.363  10.929  19.051  0.00  0.00    +0.000 NA
ATOM     17  C   UNL     1      10.467  11.649  17.757  0.00  0.00    +0.000 C 
ATOM     18  C   UNL     1       9.478  12.820  17.613  0.00  0.00    +0.000 C 
ATOM     19  N   UNL     1       9.567  13.730  18.759  0.00  0.00    +0.000 N 
ATOM     20  C   UNL     1       9.866  15.055  18.537  0.00  0.00    +0.000 A 
ATOM     21  C   UNL     1       9.524  16.059  19.447  0.00  0.00    +0.000 A 
ATOM     22  N   UNL     1       9.749  17.385  19.256  0.00  0.00    +0.000 NA
ATOM     23  C   UNL     1      10.347  17.691  18.089  0.00  0.00    +0.000 A 
ATOM     24  C   UNL     1      10.706  16.719  17.173  0.00  0.00    +0.000 A 
ATOM     25  N   UNL     1      10.468  15.404  17.374  0.00  0.00    +0.000 NA
ATOM     26  C   UNL     1       9.632  13.136  20.099  0.00  0.00    +0.000 C 
ATOM     27  C   UNL     1      10.581  11.914  20.132  0.00  0.00    +0.000 C 
ENDBRANCH  15  16
ENDBRANCH   1  15
TORSDOF 7
ENDMDL
MODEL 5
REMARK VINA RESULT:      -7.5      3.794     11.172
REMARK  Name = 
REMARK  10 active torsions:
REMARK  status: ('A' for Active; 'I' for Inactive)
REMARK    1  A    between atoms: C_1  and  C_2
REMARK    2  A    between atoms: C_2  and  C_3
REMARK    3  A    between atoms: C_3  and  C_4
REMARK    4  A    between atoms: C_3  and  C_5
REMARK    5  A    between atoms: C_3  and  C_6
REMARK    6  A    between atoms: C_9  and  O_10
REMARK    7  A    between atoms: O_10  and  C_11
REMARK    8  A    between atoms: C_11  and  C_12
REMARK    9  A    between atoms: C_12  and  C_13
REMARK   10  A    between atoms: C_13  and  N_14
REMARK                            x       y       z     vdW  Elec       q    Type
REMARK                         _______ _______ _______ _____ _____    ______ ____
ROOT
ATOM      1  C   UNL     1       9.028   9.101  18.391  0.00  0.00    +0.000 C 
ENDROOT
BRANCH   1   2
ATOM      2  C   UNL     1       7.708   8.911  17.662  0.00  0.00    +0.000 C 
BRANCH   2   3
ATOM      3  O   UNL     1       7.710   7.624  17.054  0.00  0.00    +0.000 OA
BRANCH   3   7
ATOM      4  C   UNL     1       4.590   5.128  18.315  0.00  0.00    +0.000 A 
ATOM      5  C   UNL     1       5.906   5.015  18.787  0.00  0.00    +0.000 A 
ATOM      6  C   UNL     1       6.915   5.869  18.344  0.00  0.00    +0.000 A 
ATOM      7  C   UNL     1       6.639   6.846  17.398  0.00  0.00    +0.000 A 
ATOM      8  C   UNL     1       5.341   6.981  16.909  0.00  0.00    +0.000 A 
ATOM      9  C   UNL     1       4.326   6.130  17.361  0.00  0.00    +0.000 A 
BRANCH   4  10
ATOM     10  C   UNL     1       3.458   4.215  18.812  0.00  0.00    +0.000 C 
ATOM     11  C   UNL     1       2.320   4.066  17.775  0.00  0.00    +0.000 C 
ATOM     12  C   UNL     1       2.828   4.841  20.082  0.00  0.00    +0.000 C 
BRANCH  10  14
ATOM     13  C   UNL     1       3.426   1.639  18.387  0.00  0.00    +0.000 C 
ATOM     14  C   UNL     1       3.995   2.802  19.193  0.00  0.00    +0.000 C 
ENDBRANCH  10  14
ENDBRANCH   4  10
ENDBRANCH   3   7
ENDBRANCH   2   3
ENDBRANCH   1   2
BRANCH   1  15
ATOM     15  C   UNL     1       8.957  10.331  19.296  0.00  0.00    +0.000 C 
BRANCH  15  16
ATOM     16  N   UNL     1      10.243  11.043  19.384  0.00  0.00    +0.000 NA
ATOM     17  C   UNL     1      10.696  11.587  18.079  0.00  0.00    +0.000 C 
ATOM     18  C   UNL     1       9.792  12.698  17.516  0.00  0.00    +0.000 C 
ATOM     19  N   UNL     1       9.575  13.755  18.509  0.00  0.00    +0.000 N 
ATOM     20  C   UNL     1       9.933  15.047  18.197  0.00  0.00    +0.000 A 
ATOM     21  C   UNL     1       9.365  16.153  18.836  0.00  0.00    +0.000 A 
ATOM     22  N   UNL     1       9.643  17.447  18.534  0.00  0.00    +0.000 NA
ATOM     23  C   UNL     1      10.536  17.612  17.539  0.00  0.00    +0.000 A 
ATOM     24  C   UNL     1      11.122  16.539  16.893  0.00  0.00    +0.000 A 
ATOM     25  N   UNL     1      10.828  15.255  17.201  0.00  0.00    +0.000 NA
ATOM     26  C   UNL     1       9.273  13.347  19.886  0.00  0.00    +0.000 C 
ATOM     27  C   UNL     1      10.169  12.170  20.339  0.00  0.00    +0.000 C 
ENDBRANCH  15  16
ENDBRANCH   1  15
TORSDOF 7
ENDMDL
MODEL 6
REMARK VINA RESULT:      -7.5      1.439      1.996
REMARK  Name = 
REMARK  10 active torsions:
REMARK  status: ('A' for Active; 'I' for Inactive)
REMARK    1  A    between atoms: C_1  and  C_2
REMARK    2  A    between atoms: C_2  and  C_3
REMARK    3  A    between atoms: C_3  and  C_4
REMARK    4  A    between atoms: C_3  and  C_5
REMARK    5  A    between atoms: C_3  and  C_6
REMARK    6  A    between atoms: C_9  and  O_10
REMARK    7  A    between atoms: O_10  and  C_11
REMARK    8  A    between atoms: C_11  and  C_12
REMARK    9  A    between atoms: C_12  and  C_13
REMARK   10  A    between atoms: C_13  and  N_14
REMARK                            x       y       z     vdW  Elec       q    Type
REMARK                         _______ _______ _______ _____ _____    ______ ____
ROOT
ATOM      1  C   UNL     1       7.692   7.195  17.307  0.00  0.00    +0.000 C 
ENDROOT
BRANCH   1   2
ATOM      2  C   UNL     1       7.562   8.621  17.819  0.00  0.00    +0.000 C 
BRANCH   2   3
ATOM      3  O   UNL     1       8.651   8.885  18.697  0.00  0.00    +0.000 OA
BRANCH   3   7
ATOM      4  C   UNL     1       9.859  12.870  19.160  0.00  0.00    +0.000 A 
ATOM      5  C   UNL     1      10.105  11.874  20.116  0.00  0.00    +0.000 A 
ATOM      6  C   UNL     1       9.689  10.558  19.921  0.00  0.00    +0.000 A 
ATOM      7  C   UNL     1       8.994  10.207  18.773  0.00  0.00    +0.000 A 
ATOM      8  C   UNL     1       8.732  11.175  17.806  0.00  0.00    +0.000 A 
ATOM      9  C   UNL     1       9.158  12.494  17.997  0.00  0.00    +0.000 A 
BRANCH   4  10
ATOM     10  C   UNL     1      10.333  14.320  19.342  0.00  0.00    +0.000 C 
ATOM     11  C   UNL     1      11.741  14.407  19.976  0.00  0.00    +0.000 C 
ATOM     12  C   UNL     1       9.362  15.049  20.305  0.00  0.00    +0.000 C 
BRANCH  10  14
ATOM     13  C   UNL     1       9.331  16.241  17.884  0.00  0.00    +0.000 C 
ATOM     14  C   UNL     1      10.329  15.093  17.988  0.00  0.00    +0.000 C 
ENDBRANCH  10  14
ENDBRANCH   4  10
ENDBRANCH   3   7
ENDBRANCH   2   3
ENDBRANCH   1   2
BRANCH   1  15
ATOM     15  C   UNL     1       6.324   6.664  16.876  0.00  0.00    +0.000 C 
BRANCH  15  16
ATOM     16  N   UNL     1       6.198   5.209  17.062  0.00  0.00    +0.000 NA
ATOM     17  C   UNL     1       6.326   4.791  18.481  0.00  0.00    +0.000 C 
ATOM     18  C   UNL     1       5.188   5.296  19.386  0.00  0.00    +0.000 C 
ATOM     19  N   UNL     1       3.877   4.952  18.826  0.00  0.00    +0.000 N 
ATOM     20  C   UNL     1       3.008   4.194  19.579  0.00  0.00    +0.000 A 
ATOM     21  C   UNL     1       1.627   4.207  19.362  0.00  0.00    +0.000 A 
ATOM     22  N   UNL     1       0.721   3.520  20.104  0.00  0.00    +0.000 NA
ATOM     23  C   UNL     1       1.252   2.793  21.106  0.00  0.00    +0.000 A 
ATOM     24  C   UNL     1       2.614   2.752  21.340  0.00  0.00    +0.000 A 
ATOM     25  N   UNL     1       3.503   3.448  20.596  0.00  0.00    +0.000 NA
ATOM     26  C   UNL     1       3.669   5.169  17.390  0.00  0.00    +0.000 C 
ATOM     27  C   UNL     1       4.896   4.715  16.564  0.00  0.00    +0.000 C 
ENDBRANCH  15  16
ENDBRANCH   1  15
TORSDOF 7
ENDMDL
MODEL 7
REMARK VINA RESULT:      -7.4      6.390      8.121
REMARK  Name = 
REMARK  10 active torsions:
REMARK  status: ('A' for Active; 'I' for Inactive)
REMARK    1  A    between atoms: C_1  and  C_2
REMARK    2  A    between atoms: C_2  and  C_3
REMARK    3  A    between atoms: C_3  and  C_4
REMARK    4  A    between atoms: C_3  and  C_5
REMARK    5  A    between atoms: C_3  and  C_6
REMARK    6  A    between atoms: C_9  and  O_10
REMARK    7  A    between atoms: O_10  and  C_11
REMARK    8  A    between atoms: C_11  and  C_12
REMARK    9  A    between atoms: C_12  and  C_13
REMARK   10  A    between atoms: C_13  and  N_14
REMARK                            x       y       z     vdW  Elec       q    Type
REMARK                         _______ _______ _______ _____ _____    ______ ____
ROOT
ATOM      1  C   UNL     1       1.381   4.315  19.718  0.00  0.00    +0.000 C 
ENDROOT
BRANCH   1   2
ATOM      2  C   UNL     1       1.838   5.462  20.604  0.00  0.00    +0.000 C 
BRANCH   2   3
ATOM      3  O   UNL     1       2.641   6.342  19.824  0.00  0.00    +0.000 OA
BRANCH   3   7
ATOM      4  C   UNL     1       0.839  10.101  19.415  0.00  0.00    +0.000 A 
ATOM      5  C   UNL     1       0.814   9.361  20.606  0.00  0.00    +0.000 A 
ATOM      6  C   UNL     1       1.430   8.114  20.701  0.00  0.00    +0.000 A 
ATOM      7  C   UNL     1       2.069   7.563  19.599  0.00  0.00    +0.000 A 
ATOM      8  C   UNL     1       2.108   8.274  18.402  0.00  0.00    +0.000 A 
ATOM      9  C   UNL     1       1.498   9.530  18.309  0.00  0.00    +0.000 A 
BRANCH   4  10
ATOM     10  C   UNL     1       0.190  11.490  19.297  0.00  0.00    +0.000 C 
ATOM     11  C   UNL     1      -1.044  11.489  18.366  0.00  0.00    +0.000 C 
ATOM     12  C   UNL     1       1.217  12.473  18.680  0.00  0.00    +0.000 C 
BRANCH  10  14
ATOM     13  C   UNL     1      -1.719  12.183  20.938  0.00  0.00    +0.000 C 
ATOM     14  C   UNL     1      -0.219  12.045  20.696  0.00  0.00    +0.000 C 
ENDBRANCH  10  14
ENDBRANCH   4  10
ENDBRANCH   3   7
ENDBRANCH   2   3
ENDBRANCH   1   2
BRANCH   1  15
ATOM     15  C   UNL     1       1.960   2.994  20.226  0.00  0.00    +0.000 C 
BRANCH  15  16
ATOM     16  N   UNL     1       2.506   2.162  19.141  0.00  0.00    +0.000 NA
ATOM     17  C   UNL     1       2.262   2.732  17.792  0.00  0.00    +0.000 C 
ATOM     18  C   UNL     1       2.997   4.058  17.532  0.00  0.00    +0.000 C 
ATOM     19  N   UNL     1       4.428   3.936  17.828  0.00  0.00    +0.000 N 
ATOM     20  C   UNL     1       5.340   4.205  16.833  0.00  0.00    +0.000 A 
ATOM     21  C   UNL     1       6.661   4.570  17.112  0.00  0.00    +0.000 A 
ATOM     22  N   UNL     1       7.587   4.895  16.173  0.00  0.00    +0.000 NA
ATOM     23  C   UNL     1       7.142   4.844  14.903  0.00  0.00    +0.000 A 
ATOM     24  C   UNL     1       5.845   4.477  14.595  0.00  0.00    +0.000 A 
ATOM     25  N   UNL     1       4.932   4.164  15.542  0.00  0.00    +0.000 NA
ATOM     26  C   UNL     1       4.812   3.247  19.065  0.00  0.00    +0.000 C 
ATOM     27  C   UNL     1       3.965   1.972  19.292  0.00  0.00    +0.000 C 
ENDBRANCH  15  16
ENDBRANCH   1  15
TORSDOF 7
ENDMDL
MODEL 8
REMARK VINA RESULT:      -7.4      6.364      8.024
REMARK  Name = 
REMARK  10 active torsions:
REMARK  status: ('A' for Active; 'I' for Inactive)
REMARK    1  A    between atoms: C_1  and  C_2
REMARK    2  A    between atoms: C_2  and  C_3
REMARK    3  A    between atoms: C_3  and  C_4
REMARK    4  A    between atoms: C_3  and  C_5
REMARK    5  A    between atoms: C_3  and  C_6
REMARK    6  A    between atoms: C_9  and  O_10
REMARK    7  A    between atoms: O_10  and  C_11
REMARK    8  A    between atoms: C_11  and  C_12
REMARK    9  A    between atoms: C_12  and  C_13
REMARK   10  A    between atoms: C_13  and  N_14
REMARK                            x       y       z     vdW  Elec       q    Type
REMARK                         _______ _______ _______ _____ _____    ______ ____
ROOT
ATOM      1  C   UNL     1       1.347   4.303  19.802  0.00  0.00    +0.000 C 
ENDROOT
BRANCH   1   2
ATOM      2  C   UNL     1       1.767   5.450  20.707  0.00  0.00    +0.000 C 
BRANCH   2   3
ATOM      3  O   UNL     1       2.605   6.328  19.962  0.00  0.00    +0.000 OA
BRANCH   3   7
ATOM      4  C   UNL     1       0.819  10.082  19.440  0.00  0.00    +0.000 A 
ATOM      5  C   UNL     1       0.772   9.368  20.646  0.00  0.00    +0.000 A 
ATOM      6  C   UNL     1       1.384   8.122  20.780  0.00  0.00    +0.000 A 
ATOM      7  C   UNL     1       2.039   7.545  19.701  0.00  0.00    +0.000 A 
ATOM      8  C   UNL     1       2.100   8.230  18.489  0.00  0.00    +0.000 A 
ATOM      9  C   UNL     1       1.495   9.485  18.358  0.00  0.00    +0.000 A 
BRANCH   4  10
ATOM     10  C   UNL     1       0.175  11.468  19.281  0.00  0.00    +0.000 C 
ATOM     11  C   UNL     1      -0.329  12.045  20.624  0.00  0.00    +0.000 C 
ATOM     12  C   UNL     1      -1.061  11.345  18.354  0.00  0.00    +0.000 C 
BRANCH  10  14
ATOM     13  C   UNL     1       0.954  13.944  18.997  0.00  0.00    +0.000 C 
ATOM     14  C   UNL     1       1.164  12.480  18.625  0.00  0.00    +0.000 C 
ENDBRANCH  10  14
ENDBRANCH   4  10
ENDBRANCH   3   7
ENDBRANCH   2   3
ENDBRANCH   1   2
BRANCH   1  15
ATOM     15  C   UNL     1       1.958   2.991  20.298  0.00  0.00    +0.000 C 
BRANCH  15  16
ATOM     16  N   UNL     1       2.484   2.162  19.200  0.00  0.00    +0.000 NA
ATOM     17  C   UNL     1       2.233   2.747  17.859  0.00  0.00    +0.000 C 
ATOM     18  C   UNL     1       2.980   4.068  17.603  0.00  0.00    +0.000 C 
ATOM     19  N   UNL     1       4.412   3.927  17.884  0.00  0.00    +0.000 N 
ATOM     20  C   UNL     1       5.318   4.195  16.882  0.00  0.00    +0.000 A 
ATOM     21  C   UNL     1       6.645   4.544  17.151  0.00  0.00    +0.000 A 
ATOM     22  N   UNL     1       7.565   4.867  16.207  0.00  0.00    +0.000 NA
ATOM     23  C   UNL     1       7.107   4.832  14.941  0.00  0.00    +0.000 A 
ATOM     24  C   UNL     1       5.803   4.482  14.642  0.00  0.00    +0.000 A 
ATOM     25  N   UNL     1       4.896   4.170  15.595  0.00  0.00    +0.000 NA
ATOM     26  C   UNL     1       4.801   3.223  19.111  0.00  0.00    +0.000 C 
ATOM     27  C   UNL     1       3.942   1.956  19.335  0.00  0.00    +0.000 C 
ENDBRANCH  15  16
ENDBRANCH   1  15
TORSDOF 7
ENDMDL
MODEL 9
REMARK VINA RESULT:      -7.4      3.968     11.384
REMARK  Name = 
REMARK  10 active torsions:
REMARK  status: ('A' for Active; 'I' for Inactive)
REMARK    1  A    between atoms: C_1  and  C_2
REMARK    2  A    between atoms: C_2  and  C_3
REMARK    3  A    between atoms: C_3  and  C_4
REMARK    4  A    between atoms: C_3  and  C_5
REMARK    5  A    between atoms: C_3  and  C_6
REMARK    6  A    between atoms: C_9  and  O_10
REMARK    7  A    between atoms: O_10  and  C_11
REMARK    8  A    between atoms: C_11  and  C_12
REMARK    9  A    between atoms: C_12  and  C_13
REMARK   10  A    between atoms: C_13  and  N_14
REMARK                            x       y       z     vdW  Elec       q    Type
REMARK                         _______ _______ _______ _____ _____    ______ ____
ROOT
ATOM      1  C   UNL     1       8.810   9.274  18.515  0.00  0.00    +0.000 C 
ENDROOT
BRANCH   1   2
ATOM      2  C   UNL     1       7.514   8.913  17.806  0.00  0.00    +0.000 C 
BRANCH   2   3
ATOM      3  O   UNL     1       7.636   7.594  17.286  0.00  0.00    +0.000 OA
BRANCH   3   7
ATOM      4  C   UNL     1       4.411   5.091  18.229  0.00  0.00    +0.000 A 
ATOM      5  C   UNL     1       4.370   6.049  17.206  0.00  0.00    +0.000 A 
ATOM      6  C   UNL     1       5.467   6.861  16.921  0.00  0.00    +0.000 A 
ATOM      7  C   UNL     1       6.630   6.750  17.670  0.00  0.00    +0.000 A 
ATOM      8  C   UNL     1       6.701   5.809  18.695  0.00  0.00    +0.000 A 
ATOM      9  C   UNL     1       5.603   4.988  18.974  0.00  0.00    +0.000 A 
BRANCH   4  10
ATOM     10  C   UNL     1       3.222   4.168  18.540  0.00  0.00    +0.000 C 
ATOM     11  C   UNL     1       3.436   2.730  18.015  0.00  0.00    +0.000 C 
ATOM     12  C   UNL     1       1.959   4.721  17.833  0.00  0.00    +0.000 C 
BRANCH  10  14
ATOM     13  C   UNL     1       2.977   2.735  20.709  0.00  0.00    +0.000 C 
ATOM     14  C   UNL     1       2.928   4.119  20.071  0.00  0.00    +0.000 C 
ENDBRANCH  10  14
ENDBRANCH   4  10
ENDBRANCH   3   7
ENDBRANCH   2   3
ENDBRANCH   1   2
BRANCH   1  15
ATOM     15  C   UNL     1       9.382  10.568  17.938  0.00  0.00    +0.000 C 
BRANCH  15  16
ATOM     16  N   UNL     1      10.048  11.396  18.959  0.00  0.00    +0.000 NA
ATOM     17  C   UNL     1      11.339  11.963  18.495  0.00  0.00    +0.000 C 
ATOM     18  C   UNL     1      11.200  12.980  17.349  0.00  0.00    +0.000 C 
ATOM     19  N   UNL     1      10.228  14.025  17.686  0.00  0.00    +0.000 N 
ATOM     20  C   UNL     1      10.634  15.340  17.681  0.00  0.00    +0.000 A 
ATOM     21  C   UNL     1       9.733  16.398  17.524  0.00  0.00    +0.000 A 
ATOM     22  N   UNL     1      10.084  17.709  17.461  0.00  0.00    +0.000 NA
ATOM     23  C   UNL     1      11.406  17.942  17.563  0.00  0.00    +0.000 A 
ATOM     24  C   UNL     1      12.321  16.918  17.729  0.00  0.00    +0.000 A 
ATOM     25  N   UNL     1      11.957  15.617  17.782  0.00  0.00    +0.000 NA
ATOM     26  C   UNL     1       8.963  13.608  18.302  0.00  0.00    +0.000 C 
ATOM     27  C   UNL     1       9.189  12.522  19.381  0.00  0.00    +0.000 C 
ENDBRANCH  15  16
ENDBRANCH   1  15
TORSDOF 7
ENDMDL
