MODEL 1
REMARK VINA RESULT:      -5.5      0.000      0.000
REMARK  Name = 
REMARK  7 active torsions:
REMARK  status: ('A' for Active; 'I' for Inactive)
REMARK    1  A    between atoms: C_1  and  O_2
REMARK    2  A    between atoms: O_2  and  C_3
REMARK    3  A    between atoms: C_5  and  C_6
REMARK    4  A    between atoms: C_6  and  O_7
REMARK    5  A    between atoms: C_6  and  C_8
REMARK    6  A    between atoms: C_8  and  O_9
REMARK    7  A    between atoms: C_12  and  O_13
REMARK                            x       y       z     vdW  Elec       q    Type
REMARK                         _______ _______ _______ _____ _____    ______ ____
ROOT
ATOM      1  C   UNL     1       3.439   2.807  19.727  0.00  0.00    +0.000 A 
ATOM      2  C   UNL     1       4.547   3.659  19.639  0.00  0.00    +0.000 A 
ATOM      3  C   UNL     1       5.001   4.143  18.405  0.00  0.00    +0.000 A 
ATOM      4  C   UNL     1       4.321   3.748  17.246  0.00  0.00    +0.000 A 
ATOM      5  C   UNL     1       3.199   2.930  17.314  0.00  0.00    +0.000 A 
ATOM      6  C   UNL     1       2.759   2.478  18.551  0.00  0.00    +0.000 A 
ENDROOT
BRANCH   1   8
ATOM      7  C   UNL     1       2.025   3.204  21.601  0.00  0.00    +0.000 C 
ATOM      8  O   UNL     1       3.083   2.465  20.998  0.00  0.00    +0.000 OA
ENDBRANCH   1   8
BRANCH   6   9
ATOM      9  O   UNL     1       1.594   1.757  18.574  0.00  0.00    +0.000 OA
ATOM     10  H   UNL     1       0.943   2.295  18.094  0.00  0.00    +0.000 HD
ENDBRANCH   6   9
BRANCH   3  11
ATOM     11  C   UNL     1       6.213   5.046  18.281  0.00  0.00    +0.000 C 
BRANCH  11  12
ATOM     12  O   UNL     1       6.977   5.081  19.488  0.00  0.00    +0.000 OA
ATOM     13  H   UNL     1       6.795   4.227  19.924  0.00  0.00    +0.000 HD
ENDBRANCH  11  12
BRANCH  11  14
ATOM     14  C   UNL     1       7.129   4.642  17.120  0.00  0.00    +0.000 C 
BRANCH  14  15
ATOM     15  O   UNL     1       8.309   4.021  17.635  0.00  0.00    +0.000 OA
ATOM     16  H   UNL     1       9.069   4.548  17.340  0.00  0.00    +0.000 HD
ENDBRANCH  14  15
ENDBRANCH  11  14
ENDBRANCH   3  11
TORSDOF 6
ENDMDL
MODEL 2
REMARK VINA RESULT:      -5.4      1.239      1.239
REMARK  Name = 
REMARK  7 active torsions:
REMARK  status: ('A' for Active; 'I' for Inactive)
REMARK    1  A    between atoms: C_1  and  O_2
REMARK    2  A    between atoms: O_2  and  C_3
REMARK    3  A    between atoms: C_5  and  C_6
REMARK    4  A    between atoms: C_6  and  O_7
REMARK    5  A    between atoms: C_6  and  C_8
REMARK    6  A    between atoms: C_8  and  O_9
REMARK    7  A    between atoms: C_12  and  O_13
REMARK                            x       y       z     vdW  Elec       q    Type
REMARK                         _______ _______ _______ _____ _____    ______ ____
ROOT
ATOM      1  C   UNL     1       2.813   4.445  19.296  0.00  0.00    +0.000 A 
ATOM      2  C   UNL     1       4.085   5.016  19.432  0.00  0.00    +0.000 A 
ATOM      3  C   UNL     1       5.037   4.933  18.407  0.00  0.00    +0.000 A 
ATOM      4  C   UNL     1       4.689   4.254  17.231  0.00  0.00    +0.000 A 
ATOM      5  C   UNL     1       3.421   3.711  17.063  0.00  0.00    +0.000 A 
ATOM      6  C   UNL     1       2.490   3.822  18.088  0.00  0.00    +0.000 A 
ENDROOT
BRANCH   1   8
ATOM      7  C   UNL     1       1.864   3.613  21.315  0.00  0.00    +0.000 C 
ATOM      8  O   UNL     1       1.978   4.657  20.354  0.00  0.00    +0.000 OA
ENDBRANCH   1   8
BRANCH   6   9
ATOM      9  O   UNL     1       1.226   3.358  17.836  0.00  0.00    +0.000 OA
ATOM     10  H   UNL     1       0.920   2.965  18.669  0.00  0.00    +0.000 HD
ENDBRANCH   6   9
BRANCH   3  11
ATOM     11  C   UNL     1       6.429   5.519  18.540  0.00  0.00    +0.000 C 
BRANCH  11  12
ATOM     12  O   UNL     1       7.049   5.148  19.772  0.00  0.00    +0.000 OA
ATOM     13  H   UNL     1       7.883   4.711  19.510  0.00  0.00    +0.000 HD
ENDBRANCH  11  12
BRANCH  11  14
ATOM     14  C   UNL     1       7.345   5.122  17.377  0.00  0.00    +0.000 C 
BRANCH  14  15
ATOM     15  O   UNL     1       8.209   4.060  17.791  0.00  0.00    +0.000 OA
ATOM     16  H   UNL     1       9.115   4.409  17.803  0.00  0.00    +0.000 HD
ENDBRANCH  14  15
ENDBRANCH  11  14
ENDBRANCH   3  11
TORSDOF 6
ENDMDL
MODEL 3
REMARK VINA RESULT:      -5.4      0.948      1.003
REMARK  Name = 
REMARK  7 active torsions:
REMARK  status: ('A' for Active; 'I' for Inactive)
REMARK    1  A    between atoms: C_1  and  O_2
REMARK    2  A    between atoms: O_2  and  C_3
REMARK    3  A    between atoms: C_5  and  C_6
REMARK    4  A    between atoms: C_6  and  O_7
REMARK    5  A    between atoms: C_6  and  C_8
REMARK    6  A    between atoms: C_8  and  O_9
REMARK    7  A    between atoms: C_12  and  O_13
REMARK                            x       y       z     vdW  Elec       q    Type
REMARK                         _______ _______ _______ _____ _____    ______ ____
ROOT
ATOM      1  C   UNL     1       3.340   2.810  19.538  0.00  0.00    +0.000 A 
ATOM      2  C   UNL     1       4.475   3.608  19.340  0.00  0.00    +0.000 A 
ATOM      3  C   UNL     1       4.811   4.099  18.072  0.00  0.00    +0.000 A 
ATOM      4  C   UNL     1       3.984   3.768  16.991  0.00  0.00    +0.000 A 
ATOM      5  C   UNL     1       2.835   3.006  17.171  0.00  0.00    +0.000 A 
ATOM      6  C   UNL     1       2.514   2.546  18.442  0.00  0.00    +0.000 A 
ENDROOT
BRANCH   1   8
ATOM      7  C   UNL     1       2.206   3.260  21.583  0.00  0.00    +0.000 C 
ATOM      8  O   UNL     1       3.113   2.456  20.835  0.00  0.00    +0.000 OA
ENDBRANCH   1   8
BRANCH   6   9
ATOM      9  O   UNL     1       1.323   1.885  18.584  0.00  0.00    +0.000 OA
ATOM     10  H   UNL     1       1.547   0.940  18.596  0.00  0.00    +0.000 HD
ENDBRANCH   6   9
BRANCH   3  11
ATOM     11  C   UNL     1       6.047   4.942  17.827  0.00  0.00    +0.000 C 
BRANCH  11  12
ATOM     12  O   UNL     1       7.249   4.217  18.092  0.00  0.00    +0.000 OA
ATOM     13  H   UNL     1       7.865   4.485  17.383  0.00  0.00    +0.000 HD
ENDBRANCH  11  12
BRANCH  11  14
ATOM     14  C   UNL     1       6.103   5.501  16.401  0.00  0.00    +0.000 C 
BRANCH  14  15
ATOM     15  O   UNL     1       7.421   5.980  16.126  0.00  0.00    +0.000 OA
ATOM     16  H   UNL     1       7.907   5.995  16.967  0.00  0.00    +0.000 HD
ENDBRANCH  14  15
ENDBRANCH  11  14
ENDBRANCH   3  11
TORSDOF 6
ENDMDL
MODEL 4
REMARK VINA RESULT:      -5.4      2.107      2.928
REMARK  Name = 
REMARK  7 active torsions:
REMARK  status: ('A' for Active; 'I' for Inactive)
REMARK    1  A    between atoms: C_1  and  O_2
REMARK    2  A    between atoms: O_2  and  C_3
REMARK    3  A    between atoms: C_5  and  C_6
REMARK    4  A    between atoms: C_6  and  O_7
REMARK    5  A    between atoms: C_6  and  C_8
REMARK    6  A    between atoms: C_8  and  O_9
REMARK    7  A    between atoms: C_12  and  O_13
REMARK                            x       y       z     vdW  Elec       q    Type
REMARK                         _______ _______ _______ _____ _____    ______ ____
ROOT
ATOM      1  C   UNL     1       3.492   3.710  17.438  0.00  0.00    +0.000 A 
ATOM      2  C   UNL     1       4.780   3.754  16.887  0.00  0.00    +0.000 A 
ATOM      3  C   UNL     1       5.501   4.953  16.809  0.00  0.00    +0.000 A 
ATOM      4  C   UNL     1       4.899   6.122  17.292  0.00  0.00    +0.000 A 
ATOM      5  C   UNL     1       3.636   6.094  17.873  0.00  0.00    +0.000 A 
ATOM      6  C   UNL     1       2.949   4.890  17.954  0.00  0.00    +0.000 A 
ENDROOT
BRANCH   1   8
ATOM      7  C   UNL     1       3.466   1.562  18.466  0.00  0.00    +0.000 C 
ATOM      8  O   UNL     1       2.941   2.464  17.496  0.00  0.00    +0.000 OA
ENDBRANCH   1   8
BRANCH   6   9
ATOM      9  O   UNL     1       1.754   4.896  18.622  0.00  0.00    +0.000 OA
ATOM     10  H   UNL     1       1.139   5.391  18.055  0.00  0.00    +0.000 HD
ENDBRANCH   6   9
BRANCH   3  11
ATOM     11  C   UNL     1       6.885   5.032  16.195  0.00  0.00    +0.000 C 
BRANCH  11  12
ATOM     12  O   UNL     1       7.799   4.131  16.824  0.00  0.00    +0.000 OA
ATOM     13  H   UNL     1       8.671   4.565  16.745  0.00  0.00    +0.000 HD
ENDBRANCH  11  12
BRANCH  11  14
ATOM     14  C   UNL     1       6.872   4.761  14.686  0.00  0.00    +0.000 C 
BRANCH  14  15
ATOM     15  O   UNL     1       7.890   5.541  14.052  0.00  0.00    +0.000 OA
ATOM     16  H   UNL     1       8.517   4.924  13.642  0.00  0.00    +0.000 HD
ENDBRANCH  14  15
ENDBRANCH  11  14
ENDBRANCH   3  11
TORSDOF 6
ENDMDL
MODEL 5
REMARK VINA RESULT:      -5.4      1.999      5.012
REMARK  Name = 
REMARK  7 active torsions:
REMARK  status: ('A' for Active; 'I' for Inactive)
REMARK    1  A    between atoms: C_1  and  O_2
REMARK    2  A    between atoms: O_2  and  C_3
REMARK    3  A    between atoms: C_5  and  C_6
REMARK    4  A    between atoms: C_6  and  O_7
REMARK    5  A    between atoms: C_6  and  C_8
REMARK    6  A    between atoms: C_8  and  O_9
REMARK    7  A    between atoms: C_12  and  O_13
REMARK                            x       y       z     vdW  Elec       q    Type
REMARK                         _______ _______ _______ _____ _____    ______ ____
ROOT
ATOM      1  C   UNL     1       6.860   5.671  17.093  0.00  0.00    +0.000 A 
ATOM      2  C   UNL     1       5.950   5.283  18.086  0.00  0.00    +0.000 A 
ATOM      3  C   UNL     1       4.879   4.426  17.800  0.00  0.00    +0.000 A 
ATOM      4  C   UNL     1       4.730   3.964  16.486  0.00  0.00    +0.000 A 
ATOM      5  C   UNL     1       5.641   4.310  15.495  0.00  0.00    +0.000 A 
ATOM      6  C   UNL     1       6.704   5.147  15.807  0.00  0.00    +0.000 A 
ENDROOT
BRANCH   1   8
ATOM      7  C   UNL     1       7.659   7.869  17.545  0.00  0.00    +0.000 C 
ATOM      8  O   UNL     1       7.880   6.462  17.534  0.00  0.00    +0.000 OA
ENDBRANCH   1   8
BRANCH   6   9
ATOM      9  O   UNL     1       7.626   5.379  14.822  0.00  0.00    +0.000 OA
ATOM     10  H   UNL     1       7.120   5.702  14.059  0.00  0.00    +0.000 HD
ENDBRANCH   6   9
BRANCH   3  11
ATOM     11  C   UNL     1       3.867   4.011  18.851  0.00  0.00    +0.000 C 
BRANCH  11  12
ATOM     12  O   UNL     1       2.537   4.389  18.489  0.00  0.00    +0.000 OA
ATOM     13  H   UNL     1       2.352   5.188  19.019  0.00  0.00    +0.000 HD
ENDBRANCH  11  12
BRANCH  11  14
ATOM     14  C   UNL     1       3.900   2.505  19.134  0.00  0.00    +0.000 C 
BRANCH  14  15
ATOM     15  O   UNL     1       5.114   2.173  19.812  0.00  0.00    +0.000 OA
ATOM     16  H   UNL     1       5.849   2.525  19.284  0.00  0.00    +0.000 HD
ENDBRANCH  14  15
ENDBRANCH  11  14
ENDBRANCH   3  11
TORSDOF 6
ENDMDL
MODEL 6
REMARK VINA RESULT:      -5.4      1.508      4.760
REMARK  Name = 
REMARK  7 active torsions:
REMARK  status: ('A' for Active; 'I' for Inactive)
REMARK    1  A    between atoms: C_1  and  O_2
REMARK    2  A    between atoms: O_2  and  C_3
REMARK    3  A    between atoms: C_5  and  C_6
REMARK    4  A    between atoms: C_6  and  O_7
REMARK    5  A    between atoms: C_6  and  C_8
REMARK    6  A    between atoms: C_8  and  O_9
REMARK    7  A    between atoms: C_12  and  O_13
REMARK                            x       y       z     vdW  Elec       q    Type
REMARK                         _______ _______ _______ _____ _____    ______ ____
ROOT
ATOM      1  C   UNL     1       5.002   4.027  18.624  0.00  0.00    +0.000 A 
ATOM      2  C   UNL     1       4.029   4.062  19.631  0.00  0.00    +0.000 A 
ATOM      3  C   UNL     1       2.673   3.856  19.345  0.00  0.00    +0.000 A 
ATOM      4  C   UNL     1       2.303   3.618  18.015  0.00  0.00    +0.000 A 
ATOM      5  C   UNL     1       3.257   3.546  17.006  0.00  0.00    +0.000 A 
ATOM      6  C   UNL     1       4.596   3.737  17.318  0.00  0.00    +0.000 A 
ENDROOT
BRANCH   1   8
ATOM      7  C   UNL     1       6.817   5.509  19.049  0.00  0.00    +0.000 C 
ATOM      8  O   UNL     1       6.283   4.189  19.064  0.00  0.00    +0.000 OA
ENDBRANCH   1   8
BRANCH   6   9
ATOM      9  O   UNL     1       5.504   3.558  16.308  0.00  0.00    +0.000 OA
ATOM     10  H   UNL     1       5.540   4.405  15.835  0.00  0.00    +0.000 HD
ENDBRANCH   6   9
BRANCH   3  11
ATOM     11  C   UNL     1       1.598   3.914  20.413  0.00  0.00    +0.000 C 
BRANCH  11  12
ATOM     12  O   UNL     1       0.444   3.154  20.051  0.00  0.00    +0.000 OA
ATOM     13  H   UNL     1       0.785   2.259  19.857  0.00  0.00    +0.000 HD
ENDBRANCH  11  12
BRANCH  11  14
ATOM     14  C   UNL     1       2.105   3.437  21.780  0.00  0.00    +0.000 C 
BRANCH  14  15
ATOM     15  O   UNL     1       1.285   2.362  22.244  0.00  0.00    +0.000 OA
ATOM     16  H   UNL     1       0.388   2.510  21.902  0.00  0.00    +0.000 HD
ENDBRANCH  14  15
ENDBRANCH  11  14
ENDBRANCH   3  11
TORSDOF 6
ENDMDL
MODEL 7
REMARK VINA RESULT:      -5.4      1.859      2.120
REMARK  Name = 
REMARK  7 active torsions:
REMARK  status: ('A' for Active; 'I' for Inactive)
REMARK    1  A    between atoms: C_1  and  O_2
REMARK    2  A    between atoms: O_2  and  C_3
REMARK    3  A    between atoms: C_5  and  C_6
REMARK    4  A    between atoms: C_6  and  O_7
REMARK    5  A    between atoms: C_6  and  C_8
REMARK    6  A    between atoms: C_8  and  O_9
REMARK    7  A    between atoms: C_12  and  O_13
REMARK                            x       y       z     vdW  Elec       q    Type
REMARK                         _______ _______ _______ _____ _____    ______ ____
ROOT
ATOM      1  C   UNL     1       3.460   4.972  18.834  0.00  0.00    +0.000 A 
ATOM      2  C   UNL     1       4.831   5.222  18.969  0.00  0.00    +0.000 A 
ATOM      3  C   UNL     1       5.755   4.762  18.020  0.00  0.00    +0.000 A 
ATOM      4  C   UNL     1       5.274   4.033  16.925  0.00  0.00    +0.000 A 
ATOM      5  C   UNL     1       3.913   3.803  16.755  0.00  0.00    +0.000 A 
ATOM      6  C   UNL     1       3.017   4.285  17.701  0.00  0.00    +0.000 A 
ENDROOT
BRANCH   1   8
ATOM      7  C   UNL     1       2.282   4.693  20.885  0.00  0.00    +0.000 C 
ATOM      8  O   UNL     1       2.682   5.531  19.805  0.00  0.00    +0.000 OA
ENDBRANCH   1   8
BRANCH   6   9
ATOM      9  O   UNL     1       1.683   4.118  17.438  0.00  0.00    +0.000 OA
ATOM     10  H   UNL     1       1.338   3.577  18.167  0.00  0.00    +0.000 HD
ENDBRANCH   6   9
BRANCH   3  11
ATOM     11  C   UNL     1       7.246   4.997  18.156  0.00  0.00    +0.000 C 
BRANCH  11  12
ATOM     12  O   UNL     1       7.999   4.186  17.253  0.00  0.00    +0.000 OA
ATOM     13  H   UNL     1       7.894   3.275  17.588  0.00  0.00    +0.000 HD
ENDBRANCH  11  12
BRANCH  11  14
ATOM     14  C   UNL     1       7.628   6.467  17.948  0.00  0.00    +0.000 C 
BRANCH  14  15
ATOM     15  O   UNL     1       7.580   6.781  16.554  0.00  0.00    +0.000 OA
ATOM     16  H   UNL     1       7.188   7.665  16.467  0.00  0.00    +0.000 HD
ENDBRANCH  14  15
ENDBRANCH  11  14
ENDBRANCH   3  11
TORSDOF 6
ENDMDL
MODEL 8
REMARK VINA RESULT:      -5.3      2.092      2.697
REMARK  Name = 
REMARK  7 active torsions:
REMARK  status: ('A' for Active; 'I' for Inactive)
REMARK    1  A    between atoms: C_1  and  O_2
REMARK    2  A    between atoms: O_2  and  C_3
REMARK    3  A    between atoms: C_5  and  C_6
REMARK    4  A    between atoms: C_6  and  O_7
REMARK    5  A    between atoms: C_6  and  C_8
REMARK    6  A    between atoms: C_8  and  O_9
REMARK    7  A    between atoms: C_12  and  O_13
REMARK                            x       y       z     vdW  Elec       q    Type
REMARK                         _______ _______ _______ _____ _____    ______ ____
ROOT
ATOM      1  C   UNL     1       3.139   3.669  17.540  0.00  0.00    +0.000 A 
ATOM      2  C   UNL     1       4.291   3.973  16.802  0.00  0.00    +0.000 A 
ATOM      3  C   UNL     1       4.795   5.279  16.740  0.00  0.00    +0.000 A 
ATOM      4  C   UNL     1       4.114   6.288  17.433  0.00  0.00    +0.000 A 
ATOM      5  C   UNL     1       2.990   6.001  18.198  0.00  0.00    +0.000 A 
ATOM      6  C   UNL     1       2.520   4.696  18.258  0.00  0.00    +0.000 A 
ENDROOT
BRANCH   1   8
ATOM      7  C   UNL     1       3.479   1.510  18.485  0.00  0.00    +0.000 C 
ATOM      8  O   UNL     1       2.804   2.347  17.552  0.00  0.00    +0.000 OA
ENDBRANCH   1   8
BRANCH   6   9
ATOM      9  O   UNL     1       1.470   4.448  19.102  0.00  0.00    +0.000 OA
ATOM     10  H   UNL     1       1.066   5.313  19.280  0.00  0.00    +0.000 HD
ENDBRANCH   6   9
BRANCH   3  11
ATOM     11  C   UNL     1       6.025   5.638  15.928  0.00  0.00    +0.000 C 
BRANCH  11  12
ATOM     12  O   UNL     1       6.724   6.753  16.483  0.00  0.00    +0.000 OA
ATOM     13  H   UNL     1       6.869   7.358  15.730  0.00  0.00    +0.000 HD
ENDBRANCH  11  12
BRANCH  11  14
ATOM     14  C   UNL     1       6.995   4.459  15.782  0.00  0.00    +0.000 C 
BRANCH  14  15
ATOM     15  O   UNL     1       7.909   4.454  16.881  0.00  0.00    +0.000 OA
ATOM     16  H   UNL     1       8.505   5.213  16.769  0.00  0.00    +0.000 HD
ENDBRANCH  14  15
ENDBRANCH  11  14
ENDBRANCH   3  11
TORSDOF 6
ENDMDL
MODEL 9
REMARK VINA RESULT:      -5.3      2.169      5.355
REMARK  Name = 
REMARK  7 active torsions:
REMARK  status: ('A' for Active; 'I' for Inactive)
REMARK    1  A    between atoms: C_1  and  O_2
REMARK    2  A    between atoms: O_2  and  C_3
REMARK    3  A    between atoms: C_5  and  C_6
REMARK    4  A    between atoms: C_6  and  O_7
REMARK    5  A    between atoms: C_6  and  C_8
REMARK    6  A    between atoms: C_8  and  O_9
REMARK    7  A    between atoms: C_12  and  O_13
REMARK                            x       y       z     vdW  Elec       q    Type
REMARK                         _______ _______ _______ _____ _____    ______ ____
ROOT
ATOM      1  C   UNL     1       6.264   4.614  16.031  0.00  0.00    +0.000 A 
ATOM      2  C   UNL     1       5.155   3.832  16.376  0.00  0.00    +0.000 A 
ATOM      3  C   UNL     1       4.353   4.148  17.481  0.00  0.00    +0.000 A 
ATOM      4  C   UNL     1       4.690   5.271  18.247  0.00  0.00    +0.000 A 
ATOM      5  C   UNL     1       5.766   6.080  17.902  0.00  0.00    +0.000 A 
ATOM      6  C   UNL     1       6.535   5.755  16.792  0.00  0.00    +0.000 A 
ENDROOT
BRANCH   1   8
ATOM      7  C   UNL     1       6.115   3.931  13.755  0.00  0.00    +0.000 C 
ATOM      8  O   UNL     1       6.913   4.215  14.900  0.00  0.00    +0.000 OA
ENDBRANCH   1   8
BRANCH   6   9
ATOM      9  O   UNL     1       7.522   6.636  16.437  0.00  0.00    +0.000 OA
ATOM     10  H   UNL     1       7.301   7.471  16.880  0.00  0.00    +0.000 HD
ENDBRANCH   6   9
BRANCH   3  11
ATOM     11  C   UNL     1       3.162   3.302  17.890  0.00  0.00    +0.000 C 
BRANCH  11  12
ATOM     12  O   UNL     1       2.120   3.340  16.912  0.00  0.00    +0.000 OA
ATOM     13  H   UNL     1       2.313   4.130  16.372  0.00  0.00    +0.000 HD
ENDBRANCH  11  12
BRANCH  11  14
ATOM     14  C   UNL     1       3.545   1.842  18.158  0.00  0.00    +0.000 C 
BRANCH  14  15
ATOM     15  O   UNL     1       4.467   1.783  19.249  0.00  0.00    +0.000 OA
ATOM     16  H   UNL     1       4.133   2.370  19.946  0.00  0.00    +0.000 HD
ENDBRANCH  14  15
ENDBRANCH  11  14
ENDBRANCH   3  11
TORSDOF 6
ENDMDL
