MODEL 1
REMARK VINA RESULT:      -7.8      0.000      0.000
REMARK  Name = 
REMARK  11 active torsions:
REMARK  status: ('A' for Active; 'I' for Inactive)
REMARK    1  A    between atoms: C_1  and  C_2
REMARK    2  A    between atoms: C_2  and  C_3
REMARK    3  A    between atoms: C_3  and  C_4
REMARK    4  A    between atoms: C_4  and  C_5
REMARK    5  A    between atoms: C_5  and  C_6
REMARK    6  A    between atoms: C_5  and  C_11
REMARK    7  A    between atoms: C_6  and  N_7
REMARK    8  A    between atoms: N_7  and  O_8
REMARK    9  A    between atoms: C_16  and  C_17
REMARK   10  A    between atoms: C_18  and  C_19
REMARK   11  A    between atoms: N_21  and  C_22
REMARK                            x       y       z     vdW  Elec       q    Type
REMARK                         _______ _______ _______ _____ _____    ______ ____
ROOT
ATOM      1  C   UNL     1       4.697   5.498  18.850  0.00  0.00    +0.000 C 
ATOM      2  O   UNL     1       4.433   5.157  20.009  0.00  0.00    +0.000 OA
ATOM      3  N   UNL     1       5.991   5.820  18.494  0.00  0.00    +0.000 N 
ATOM      4  C   UNL     1       7.056   5.548  19.411  0.00  0.00    +0.000 C 
ATOM      5  O   UNL     1       8.053   6.534  19.159  0.00  0.00    +0.000 OA
ATOM      6  C   UNL     1       7.879   7.012  17.814  0.00  0.00    +0.000 C 
ATOM      7  C   UNL     1       7.928   8.529  17.854  0.00  0.00    +0.000 C 
ATOM      8  C   UNL     1       6.536   6.475  17.303  0.00  0.00    +0.000 C 
ENDROOT
BRANCH   8   9
ATOM      9  C   UNL     1       6.756   5.503  16.125  0.00  0.00    +0.000 C 
ATOM     10  O   UNL     1       7.483   4.521  16.251  0.00  0.00    +0.000 OA
ATOM     11  N   UNL     1       6.063   5.789  14.944  0.00  0.00    +0.000 N 
ATOM     12  H   UNL     1       5.896   6.762  14.725  0.00  0.00    +0.000 HD
BRANCH  11  13
ATOM     13  C   UNL     1       6.210   4.929  13.826  0.00  0.00    +0.000 A 
ATOM     14  C   UNL     1       5.275   3.916  13.576  0.00  0.00    +0.000 A 
ATOM     15  C   UNL     1       5.507   2.974  12.574  0.00  0.00    +0.000 A 
ATOM     16  C   UNL     1       6.676   3.048  11.829  0.00  0.00    +0.000 A 
ATOM     17  F   UNL     1       6.940   2.100  10.921  0.00  0.00    +0.000 F 
ATOM     18  C   UNL     1       7.583   4.084  12.026  0.00  0.00    +0.000 A 
ATOM     19  C   UNL     1       7.337   5.052  13.006  0.00  0.00    +0.000 A 
ENDBRANCH  11  13
ENDBRANCH   8   9
BRANCH   1  20
ATOM     20  C   UNL     1       3.594   5.471  17.791  0.00  0.00    +0.000 C 
BRANCH  20  21
ATOM     21  C   UNL     1       2.577   6.640  17.898  0.00  0.00    +0.000 C 
BRANCH  21  22
ATOM     22  C   UNL     1       3.085   8.066  17.692  0.00  0.00    +0.000 C 
BRANCH  22  24
ATOM     23  C   UNL     1       1.336   9.065  19.176  0.00  0.00    +0.000 C 
ATOM     24  C   UNL     1       2.015   9.142  17.816  0.00  0.00    +0.000 C 
ENDBRANCH  22  24
ENDBRANCH  21  22
ENDBRANCH  20  21
BRANCH  20  25
ATOM     25  C   UNL     1       2.809   4.137  17.921  0.00  0.00    +0.000 C 
BRANCH  25  26
ATOM     26  N   UNL     1       3.499   2.907  17.513  0.00  0.00    +0.000 N 
ATOM     27  C   UNL     1       3.430   1.774  18.301  0.00  0.00    +0.000 C 
ATOM     28  O   UNL     1       2.600   1.554  19.177  0.00  0.00    +0.000 OA
BRANCH  26  29
ATOM     29  O   UNL     1       4.801   3.091  16.992  0.00  0.00    +0.000 OA
ATOM     30  H   UNL     1       5.334   2.557  17.625  0.00  0.00    +0.000 HD
ENDBRANCH  26  29
ENDBRANCH  25  26
ENDBRANCH  20  25
ENDBRANCH   1  20
TORSDOF 9
ENDMDL
MODEL 2
REMARK VINA RESULT:      -7.7      0.808      1.005
REMARK  Name = 
REMARK  11 active torsions:
REMARK  status: ('A' for Active; 'I' for Inactive)
REMARK    1  A    between atoms: C_1  and  C_2
REMARK    2  A    between atoms: C_2  and  C_3
REMARK    3  A    between atoms: C_3  and  C_4
REMARK    4  A    between atoms: C_4  and  C_5
REMARK    5  A    between atoms: C_5  and  C_6
REMARK    6  A    between atoms: C_5  and  C_11
REMARK    7  A    between atoms: C_6  and  N_7
REMARK    8  A    between atoms: N_7  and  O_8
REMARK    9  A    between atoms: C_16  and  C_17
REMARK   10  A    between atoms: C_18  and  C_19
REMARK   11  A    between atoms: N_21  and  C_22
REMARK                            x       y       z     vdW  Elec       q    Type
REMARK                         _______ _______ _______ _____ _____    ______ ____
ROOT
ATOM      1  C   UNL     1       4.778   5.502  18.791  0.00  0.00    +0.000 C 
ATOM      2  O   UNL     1       4.505   5.146  19.944  0.00  0.00    +0.000 OA
ATOM      3  N   UNL     1       6.072   5.840  18.452  0.00  0.00    +0.000 N 
ATOM      4  C   UNL     1       7.130   5.569  19.377  0.00  0.00    +0.000 C 
ATOM      5  O   UNL     1       8.121   6.566  19.146  0.00  0.00    +0.000 OA
ATOM      6  C   UNL     1       7.956   7.057  17.805  0.00  0.00    +0.000 C 
ATOM      7  C   UNL     1       7.990   8.574  17.861  0.00  0.00    +0.000 C 
ATOM      8  C   UNL     1       6.623   6.513  17.274  0.00  0.00    +0.000 C 
ENDROOT
BRANCH   8   9
ATOM      9  C   UNL     1       6.865   5.556  16.088  0.00  0.00    +0.000 C 
ATOM     10  O   UNL     1       7.695   4.655  16.169  0.00  0.00    +0.000 OA
ATOM     11  N   UNL     1       6.070   5.756  14.954  0.00  0.00    +0.000 N 
ATOM     12  H   UNL     1       5.790   6.705  14.742  0.00  0.00    +0.000 HD
BRANCH  11  13
ATOM     13  C   UNL     1       6.231   4.903  13.832  0.00  0.00    +0.000 A 
ATOM     14  C   UNL     1       5.344   3.843  13.608  0.00  0.00    +0.000 A 
ATOM     15  C   UNL     1       5.598   2.913  12.600  0.00  0.00    +0.000 A 
ATOM     16  C   UNL     1       6.741   3.047  11.824  0.00  0.00    +0.000 A 
ATOM     17  F   UNL     1       7.029   2.113  10.908  0.00  0.00    +0.000 F 
ATOM     18  C   UNL     1       7.597   4.129  11.996  0.00  0.00    +0.000 A 
ATOM     19  C   UNL     1       7.327   5.084  12.982  0.00  0.00    +0.000 A 
ENDBRANCH  11  13
ENDBRANCH   8   9
BRANCH   1  20
ATOM     20  C   UNL     1       3.686   5.475  17.721  0.00  0.00    +0.000 C 
BRANCH  20  21
ATOM     21  C   UNL     1       2.402   6.265  18.098  0.00  0.00    +0.000 C 
BRANCH  21  22
ATOM     22  C   UNL     1       2.436   7.790  18.014  0.00  0.00    +0.000 C 
BRANCH  22  24
ATOM     23  C   UNL     1       1.770   7.652  20.422  0.00  0.00    +0.000 C 
ATOM     24  C   UNL     1       1.729   8.502  19.160  0.00  0.00    +0.000 C 
ENDBRANCH  22  24
ENDBRANCH  21  22
ENDBRANCH  20  21
BRANCH  20  25
ATOM     25  C   UNL     1       3.283   4.000  17.454  0.00  0.00    +0.000 C 
BRANCH  25  26
ATOM     26  N   UNL     1       2.332   3.381  18.385  0.00  0.00    +0.000 N 
ATOM     27  C   UNL     1       2.704   2.282  19.135  0.00  0.00    +0.000 C 
ATOM     28  O   UNL     1       3.853   1.916  19.358  0.00  0.00    +0.000 OA
BRANCH  26  29
ATOM     29  O   UNL     1       1.012   3.247  17.896  0.00  0.00    +0.000 OA
ATOM     30  H   UNL     1       1.166   2.711  17.084  0.00  0.00    +0.000 HD
ENDBRANCH  26  29
ENDBRANCH  25  26
ENDBRANCH  20  25
ENDBRANCH   1  20
TORSDOF 9
ENDMDL
MODEL 3
REMARK VINA RESULT:      -7.6      1.425      1.908
REMARK  Name = 
REMARK  11 active torsions:
REMARK  status: ('A' for Active; 'I' for Inactive)
REMARK    1  A    between atoms: C_1  and  C_2
REMARK    2  A    between atoms: C_2  and  C_3
REMARK    3  A    between atoms: C_3  and  C_4
REMARK    4  A    between atoms: C_4  and  C_5
REMARK    5  A    between atoms: C_5  and  C_6
REMARK    6  A    between atoms: C_5  and  C_11
REMARK    7  A    between atoms: C_6  and  N_7
REMARK    8  A    between atoms: N_7  and  O_8
REMARK    9  A    between atoms: C_16  and  C_17
REMARK   10  A    between atoms: C_18  and  C_19
REMARK   11  A    between atoms: N_21  and  C_22
REMARK                            x       y       z     vdW  Elec       q    Type
REMARK                         _______ _______ _______ _____ _____    ______ ____
ROOT
ATOM      1  C   UNL     1       4.922   5.249  18.901  0.00  0.00    +0.000 C 
ATOM      2  O   UNL     1       4.773   4.893  20.077  0.00  0.00    +0.000 OA
ATOM      3  N   UNL     1       6.141   5.727  18.464  0.00  0.00    +0.000 N 
ATOM      4  C   UNL     1       7.284   5.606  19.316  0.00  0.00    +0.000 C 
ATOM      5  O   UNL     1       8.131   6.706  18.998  0.00  0.00    +0.000 OA
ATOM      6  C   UNL     1       7.817   7.139  17.663  0.00  0.00    +0.000 C 
ATOM      7  C   UNL     1       7.675   8.650  17.689  0.00  0.00    +0.000 C 
ATOM      8  C   UNL     1       6.526   6.429  17.238  0.00  0.00    +0.000 C 
ENDROOT
BRANCH   8   9
ATOM      9  C   UNL     1       6.797   5.476  16.056  0.00  0.00    +0.000 C 
ATOM     10  O   UNL     1       7.601   4.555  16.165  0.00  0.00    +0.000 OA
ATOM     11  N   UNL     1       6.058   5.704  14.889  0.00  0.00    +0.000 N 
ATOM     12  H   UNL     1       5.811   6.661  14.674  0.00  0.00    +0.000 HD
BRANCH  11  13
ATOM     13  C   UNL     1       6.249   4.857  13.768  0.00  0.00    +0.000 A 
ATOM     14  C   UNL     1       5.375   3.791  13.521  0.00  0.00    +0.000 A 
ATOM     15  C   UNL     1       5.656   2.867  12.515  0.00  0.00    +0.000 A 
ATOM     16  C   UNL     1       6.814   3.012  11.763  0.00  0.00    +0.000 A 
ATOM     17  F   UNL     1       7.128   2.084  10.851  0.00  0.00    +0.000 F 
ATOM     18  C   UNL     1       7.659   4.100  11.957  0.00  0.00    +0.000 A 
ATOM     19  C   UNL     1       7.362   5.049  12.942  0.00  0.00    +0.000 A 
ENDBRANCH  11  13
ENDBRANCH   8   9
BRANCH   1  20
ATOM     20  C   UNL     1       3.770   5.066  17.912  0.00  0.00    +0.000 C 
BRANCH  20  21
ATOM     21  C   UNL     1       2.362   5.324  18.516  0.00  0.00    +0.000 C 
BRANCH  21  22
ATOM     22  C   UNL     1       2.224   5.376  20.037  0.00  0.00    +0.000 C 
BRANCH  22  24
ATOM     23  C   UNL     1       1.986   3.468  21.638  0.00  0.00    +0.000 C 
ATOM     24  C   UNL     1       1.268   4.344  20.620  0.00  0.00    +0.000 C 
ENDBRANCH  22  24
ENDBRANCH  21  22
ENDBRANCH  20  21
BRANCH  20  25
ATOM     25  C   UNL     1       3.802   3.612  17.369  0.00  0.00    +0.000 C 
BRANCH  25  26
ATOM     26  N   UNL     1       2.955   2.621  18.043  0.00  0.00    +0.000 N 
ATOM     27  C   UNL     1       3.508   1.719  18.932  0.00  0.00    +0.000 C 
ATOM     28  O   UNL     1       4.599   1.824  19.481  0.00  0.00    +0.000 OA
BRANCH  26  29
ATOM     29  O   UNL     1       1.982   2.004  17.223  0.00  0.00    +0.000 OA
ATOM     30  H   UNL     1       1.720   2.756  16.644  0.00  0.00    +0.000 HD
ENDBRANCH  26  29
ENDBRANCH  25  26
ENDBRANCH  20  25
ENDBRANCH   1  20
TORSDOF 9
ENDMDL
MODEL 4
REMARK VINA RESULT:      -7.5      1.045      1.066
REMARK  Name = 
REMARK  11 active torsions:
REMARK  status: ('A' for Active; 'I' for Inactive)
REMARK    1  A    between atoms: C_1  and  C_2
REMARK    2  A    between atoms: C_2  and  C_3
REMARK    3  A    between atoms: C_3  and  C_4
REMARK    4  A    between atoms: C_4  and  C_5
REMARK    5  A    between atoms: C_5  and  C_6
REMARK    6  A    between atoms: C_5  and  C_11
REMARK    7  A    between atoms: C_6  and  N_7
REMARK    8  A    between atoms: N_7  and  O_8
REMARK    9  A    between atoms: C_16  and  C_17
REMARK   10  A    between atoms: C_18  and  C_19
REMARK   11  A    between atoms: N_21  and  C_22
REMARK                            x       y       z     vdW  Elec       q    Type
REMARK                         _______ _______ _______ _____ _____    ______ ____
ROOT
ATOM      1  C   UNL     1       4.513   5.874  18.944  0.00  0.00    +0.000 C 
ATOM      2  O   UNL     1       4.419   5.272  20.020  0.00  0.00    +0.000 OA
ATOM      3  N   UNL     1       5.751   6.128  18.390  0.00  0.00    +0.000 N 
ATOM      4  C   UNL     1       6.910   5.506  18.955  0.00  0.00    +0.000 C 
ATOM      5  O   UNL     1       7.992   6.403  18.722  0.00  0.00    +0.000 OA
ATOM      6  C   UNL     1       7.649   7.234  17.600  0.00  0.00    +0.000 C 
ATOM      7  C   UNL     1       7.957   8.672  17.979  0.00  0.00    +0.000 C 
ATOM      8  C   UNL     1       6.163   7.007  17.293  0.00  0.00    +0.000 C 
ENDROOT
BRANCH   8   9
ATOM      9  C   UNL     1       5.991   6.360  15.903  0.00  0.00    +0.000 C 
ATOM     10  O   UNL     1       5.039   6.658  15.187  0.00  0.00    +0.000 OA
ATOM     11  N   UNL     1       6.986   5.459  15.508  0.00  0.00    +0.000 N 
ATOM     12  H   UNL     1       7.430   4.908  16.231  0.00  0.00    +0.000 HD
BRANCH  11  13
ATOM     13  C   UNL     1       6.897   4.838  14.236  0.00  0.00    +0.000 A 
ATOM     14  C   UNL     1       6.050   3.741  14.036  0.00  0.00    +0.000 A 
ATOM     15  C   UNL     1       6.084   3.034  12.834  0.00  0.00    +0.000 A 
ATOM     16  C   UNL     1       6.969   3.427  11.840  0.00  0.00    +0.000 A 
ATOM     17  F   UNL     1       7.062   2.704  10.716  0.00  0.00    +0.000 F 
ATOM     18  C   UNL     1       7.772   4.552  12.002  0.00  0.00    +0.000 A 
ATOM     19  C   UNL     1       7.715   5.284  13.193  0.00  0.00    +0.000 A 
ENDBRANCH  11  13
ENDBRANCH   8   9
BRANCH   1  20
ATOM     20  C   UNL     1       3.240   6.252  18.183  0.00  0.00    +0.000 C 
BRANCH  20  21
ATOM     21  C   UNL     1       2.520   7.514  18.732  0.00  0.00    +0.000 C 
BRANCH  21  22
ATOM     22  C   UNL     1       2.078   8.587  17.738  0.00  0.00    +0.000 C 
BRANCH  22  24
ATOM     23  C   UNL     1       0.953   9.418  19.813  0.00  0.00    +0.000 C 
ATOM     24  C   UNL     1       1.245   9.707  18.347  0.00  0.00    +0.000 C 
ENDBRANCH  22  24
ENDBRANCH  21  22
ENDBRANCH  20  21
BRANCH  20  25
ATOM     25  C   UNL     1       2.245   5.061  18.252  0.00  0.00    +0.000 C 
BRANCH  25  26
ATOM     26  N   UNL     1       2.588   3.852  17.495  0.00  0.00    +0.000 N 
ATOM     27  C   UNL     1       2.651   2.625  18.129  0.00  0.00    +0.000 C 
ATOM     28  O   UNL     1       2.155   2.349  19.216  0.00  0.00    +0.000 OA
BRANCH  26  29
ATOM     29  O   UNL     1       3.643   4.003  16.564  0.00  0.00    +0.000 OA
ATOM     30  H   UNL     1       3.437   4.891  16.190  0.00  0.00    +0.000 HD
ENDBRANCH  26  29
ENDBRANCH  25  26
ENDBRANCH  20  25
ENDBRANCH   1  20
TORSDOF 9
ENDMDL
MODEL 5
REMARK VINA RESULT:      -7.4      1.254      1.315
REMARK  Name = 
REMARK  11 active torsions:
REMARK  status: ('A' for Active; 'I' for Inactive)
REMARK    1  A    between atoms: C_1  and  C_2
REMARK    2  A    between atoms: C_2  and  C_3
REMARK    3  A    between atoms: C_3  and  C_4
REMARK    4  A    between atoms: C_4  and  C_5
REMARK    5  A    between atoms: C_5  and  C_6
REMARK    6  A    between atoms: C_5  and  C_11
REMARK    7  A    between atoms: C_6  and  N_7
REMARK    8  A    between atoms: N_7  and  O_8
REMARK    9  A    between atoms: C_16  and  C_17
REMARK   10  A    between atoms: C_18  and  C_19
REMARK   11  A    between atoms: N_21  and  C_22
REMARK                            x       y       z     vdW  Elec       q    Type
REMARK                         _______ _______ _______ _____ _____    ______ ____
ROOT
ATOM      1  C   UNL     1       5.540   5.354  19.207  0.00  0.00    +0.000 C 
ATOM      2  O   UNL     1       5.887   4.728  20.216  0.00  0.00    +0.000 OA
ATOM      3  N   UNL     1       6.471   6.048  18.460  0.00  0.00    +0.000 N 
ATOM      4  C   UNL     1       7.863   5.863  18.733  0.00  0.00    +0.000 C 
ATOM      5  O   UNL     1       8.498   7.092  18.393  0.00  0.00    +0.000 OA
ATOM      6  C   UNL     1       7.664   7.778  17.445  0.00  0.00    +0.000 C 
ATOM      7  C   UNL     1       7.533   9.220  17.902  0.00  0.00    +0.000 C 
ATOM      8  C   UNL     1       6.316   7.046  17.400  0.00  0.00    +0.000 C 
ENDROOT
BRANCH   8   9
ATOM      9  C   UNL     1       6.088   6.420  16.009  0.00  0.00    +0.000 C 
ATOM     10  O   UNL     1       5.149   6.782  15.305  0.00  0.00    +0.000 OA
ATOM     11  N   UNL     1       7.019   5.460  15.597  0.00  0.00    +0.000 N 
ATOM     12  H   UNL     1       7.435   4.877  16.312  0.00  0.00    +0.000 HD
BRANCH  11  13
ATOM     13  C   UNL     1       6.876   4.853  14.323  0.00  0.00    +0.000 A 
ATOM     14  C   UNL     1       5.977   3.796  14.133  0.00  0.00    +0.000 A 
ATOM     15  C   UNL     1       5.955   3.098  12.926  0.00  0.00    +0.000 A 
ATOM     16  C   UNL     1       6.836   3.459  11.916  0.00  0.00    +0.000 A 
ATOM     17  F   UNL     1       6.874   2.742  10.785  0.00  0.00    +0.000 F 
ATOM     18  C   UNL     1       7.691   4.546  12.070  0.00  0.00    +0.000 A 
ATOM     19  C   UNL     1       7.691   5.271  13.266  0.00  0.00    +0.000 A 
ENDBRANCH  11  13
ENDBRANCH   8   9
BRANCH   1  20
ATOM     20  C   UNL     1       4.085   5.276  18.740  0.00  0.00    +0.000 C 
BRANCH  20  21
ATOM     21  C   UNL     1       3.194   6.451  19.226  0.00  0.00    +0.000 C 
BRANCH  21  22
ATOM     22  C   UNL     1       2.767   7.508  18.209  0.00  0.00    +0.000 C 
BRANCH  22  24
ATOM     23  C   UNL     1       1.808   9.791  17.853  0.00  0.00    +0.000 C 
ATOM     24  C   UNL     1       1.820   8.567  18.758  0.00  0.00    +0.000 C 
ENDBRANCH  22  24
ENDBRANCH  21  22
ENDBRANCH  20  21
BRANCH  20  25
ATOM     25  C   UNL     1       3.464   3.952  19.262  0.00  0.00    +0.000 C 
BRANCH  25  26
ATOM     26  N   UNL     1       3.997   2.697  18.719  0.00  0.00    +0.000 N 
ATOM     27  C   UNL     1       3.188   1.858  17.976  0.00  0.00    +0.000 C 
ATOM     28  O   UNL     1       2.131   2.166  17.437  0.00  0.00    +0.000 OA
BRANCH  26  29
ATOM     29  O   UNL     1       4.825   1.963  19.601  0.00  0.00    +0.000 OA
ATOM     30  H   UNL     1       5.647   1.885  19.064  0.00  0.00    +0.000 HD
ENDBRANCH  26  29
ENDBRANCH  25  26
ENDBRANCH  20  25
ENDBRANCH   1  20
TORSDOF 9
ENDMDL
MODEL 6
REMARK VINA RESULT:      -7.3      1.405      1.596
REMARK  Name = 
REMARK  11 active torsions:
REMARK  status: ('A' for Active; 'I' for Inactive)
REMARK    1  A    between atoms: C_1  and  C_2
REMARK    2  A    between atoms: C_2  and  C_3
REMARK    3  A    between atoms: C_3  and  C_4
REMARK    4  A    between atoms: C_4  and  C_5
REMARK    5  A    between atoms: C_5  and  C_6
REMARK    6  A    between atoms: C_5  and  C_11
REMARK    7  A    between atoms: C_6  and  N_7
REMARK    8  A    between atoms: N_7  and  O_8
REMARK    9  A    between atoms: C_16  and  C_17
REMARK   10  A    between atoms: C_18  and  C_19
REMARK   11  A    between atoms: N_21  and  C_22
REMARK                            x       y       z     vdW  Elec       q    Type
REMARK                         _______ _______ _______ _____ _____    ______ ____
ROOT
ATOM      1  C   UNL     1       4.920   5.689  19.089  0.00  0.00    +0.000 C 
ATOM      2  O   UNL     1       5.008   5.045  20.142  0.00  0.00    +0.000 OA
ATOM      3  N   UNL     1       6.058   6.113  18.432  0.00  0.00    +0.000 N 
ATOM      4  C   UNL     1       7.334   5.623  18.856  0.00  0.00    +0.000 C 
ATOM      5  O   UNL     1       8.270   6.655  18.561  0.00  0.00    +0.000 OA
ATOM      6  C   UNL     1       7.719   7.472  17.515  0.00  0.00    +0.000 C 
ATOM      7  C   UNL     1       7.886   8.924  17.927  0.00  0.00    +0.000 C 
ATOM      8  C   UNL     1       6.248   7.071  17.341  0.00  0.00    +0.000 C 
ENDROOT
BRANCH   8   9
ATOM      9  C   UNL     1       6.018   6.453  15.946  0.00  0.00    +0.000 C 
ATOM     10  O   UNL     1       5.129   6.876  15.213  0.00  0.00    +0.000 OA
ATOM     11  N   UNL     1       6.892   5.428  15.568  0.00  0.00    +0.000 N 
ATOM     12  H   UNL     1       7.244   4.822  16.298  0.00  0.00    +0.000 HD
BRANCH  11  13
ATOM     13  C   UNL     1       6.745   4.824  14.293  0.00  0.00    +0.000 A 
ATOM     14  C   UNL     1       5.736   3.880  14.062  0.00  0.00    +0.000 A 
ATOM     15  C   UNL     1       5.695   3.172  12.861  0.00  0.00    +0.000 A 
ATOM     16  C   UNL     1       6.666   3.410  11.898  0.00  0.00    +0.000 A 
ATOM     17  F   UNL     1       6.677   2.677  10.778  0.00  0.00    +0.000 F 
ATOM     18  C   UNL     1       7.636   4.388  12.090  0.00  0.00    +0.000 A 
ATOM     19  C   UNL     1       7.660   5.125  13.279  0.00  0.00    +0.000 A 
ENDBRANCH  11  13
ENDBRANCH   8   9
BRANCH   1  20
ATOM     20  C   UNL     1       3.542   5.928  18.470  0.00  0.00    +0.000 C 
BRANCH  20  21
ATOM     21  C   UNL     1       2.408   6.155  19.507  0.00  0.00    +0.000 C 
BRANCH  21  22
ATOM     22  C   UNL     1       2.075   7.588  19.918  0.00  0.00    +0.000 C 
BRANCH  22  24
ATOM     23  C   UNL     1       1.280   9.018  21.811  0.00  0.00    +0.000 C 
ATOM     24  C   UNL     1       1.086   7.702  21.070  0.00  0.00    +0.000 C 
ENDBRANCH  22  24
ENDBRANCH  21  22
ENDBRANCH  20  21
BRANCH  20  25
ATOM     25  C   UNL     1       3.163   4.698  17.602  0.00  0.00    +0.000 C 
BRANCH  25  26
ATOM     26  N   UNL     1       2.172   3.765  18.152  0.00  0.00    +0.000 N 
ATOM     27  C   UNL     1       2.563   2.517  18.602  0.00  0.00    +0.000 C 
ATOM     28  O   UNL     1       3.706   2.180  18.889  0.00  0.00    +0.000 OA
BRANCH  26  29
ATOM     29  O   UNL     1       0.951   3.695  17.441  0.00  0.00    +0.000 OA
ATOM     30  H   UNL     1       0.348   4.170  18.058  0.00  0.00    +0.000 HD
ENDBRANCH  26  29
ENDBRANCH  25  26
ENDBRANCH  20  25
ENDBRANCH   1  20
TORSDOF 9
ENDMDL
MODEL 7
REMARK VINA RESULT:      -7.3      1.219      1.574
REMARK  Name = 
REMARK  11 active torsions:
REMARK  status: ('A' for Active; 'I' for Inactive)
REMARK    1  A    between atoms: C_1  and  C_2
REMARK    2  A    between atoms: C_2  and  C_3
REMARK    3  A    between atoms: C_3  and  C_4
REMARK    4  A    between atoms: C_4  and  C_5
REMARK    5  A    between atoms: C_5  and  C_6
REMARK    6  A    between atoms: C_5  and  C_11
REMARK    7  A    between atoms: C_6  and  N_7
REMARK    8  A    between atoms: N_7  and  O_8
REMARK    9  A    between atoms: C_16  and  C_17
REMARK   10  A    between atoms: C_18  and  C_19
REMARK   11  A    between atoms: N_21  and  C_22
REMARK                            x       y       z     vdW  Elec       q    Type
REMARK                         _______ _______ _______ _____ _____    ______ ____
ROOT
ATOM      1  C   UNL     1       5.003   5.320  18.829  0.00  0.00    +0.000 C 
ATOM      2  O   UNL     1       4.824   4.958  19.998  0.00  0.00    +0.000 OA
ATOM      3  N   UNL     1       6.238   5.782  18.421  0.00  0.00    +0.000 N 
ATOM      4  C   UNL     1       7.362   5.637  19.296  0.00  0.00    +0.000 C 
ATOM      5  O   UNL     1       8.232   6.726  19.004  0.00  0.00    +0.000 OA
ATOM      6  C   UNL     1       7.953   7.174  17.667  0.00  0.00    +0.000 C 
ATOM      7  C   UNL     1       7.833   8.687  17.701  0.00  0.00    +0.000 C 
ATOM      8  C   UNL     1       6.660   6.487  17.209  0.00  0.00    +0.000 C 
ENDROOT
BRANCH   8   9
ATOM      9  C   UNL     1       6.941   5.539  16.025  0.00  0.00    +0.000 C 
ATOM     10  O   UNL     1       7.778   4.645  16.123  0.00  0.00    +0.000 OA
ATOM     11  N   UNL     1       6.175   5.738  14.872  0.00  0.00    +0.000 N 
ATOM     12  H   UNL     1       5.892   6.685  14.658  0.00  0.00    +0.000 HD
BRANCH  11  13
ATOM     13  C   UNL     1       6.373   4.893  13.750  0.00  0.00    +0.000 A 
ATOM     14  C   UNL     1       5.565   3.766  13.552  0.00  0.00    +0.000 A 
ATOM     15  C   UNL     1       5.864   2.852  12.543  0.00  0.00    +0.000 A 
ATOM     16  C   UNL     1       6.974   3.068  11.738  0.00  0.00    +0.000 A 
ATOM     17  F   UNL     1       7.311   2.153  10.819  0.00  0.00    +0.000 F 
ATOM     18  C   UNL     1       7.750   4.214  11.884  0.00  0.00    +0.000 A 
ATOM     19  C   UNL     1       7.431   5.152  12.872  0.00  0.00    +0.000 A 
ENDBRANCH  11  13
ENDBRANCH   8   9
BRANCH   1  20
ATOM     20  C   UNL     1       3.869   5.163  17.814  0.00  0.00    +0.000 C 
BRANCH  20  21
ATOM     21  C   UNL     1       2.447   5.181  18.438  0.00  0.00    +0.000 C 
BRANCH  21  22
ATOM     22  C   UNL     1       2.130   6.240  19.492  0.00  0.00    +0.000 C 
BRANCH  22  24
ATOM     23  C   UNL     1       1.230   4.220  20.662  0.00  0.00    +0.000 C 
ATOM     24  C   UNL     1       1.623   5.683  20.816  0.00  0.00    +0.000 C 
ENDBRANCH  22  24
ENDBRANCH  21  22
ENDBRANCH  20  21
BRANCH  20  25
ATOM     25  C   UNL     1       4.051   3.813  17.067  0.00  0.00    +0.000 C 
BRANCH  25  26
ATOM     26  N   UNL     1       4.029   2.588  17.874  0.00  0.00    +0.000 N 
ATOM     27  C   UNL     1       2.827   1.995  18.212  0.00  0.00    +0.000 C 
ATOM     28  O   UNL     1       1.747   2.192  17.665  0.00  0.00    +0.000 OA
BRANCH  26  29
ATOM     29  O   UNL     1       4.935   2.566  18.960  0.00  0.00    +0.000 OA
ATOM     30  H   UNL     1       5.796   2.642  18.487  0.00  0.00    +0.000 HD
ENDBRANCH  26  29
ENDBRANCH  25  26
ENDBRANCH  20  25
ENDBRANCH   1  20
TORSDOF 9
ENDMDL
MODEL 8
REMARK VINA RESULT:      -7.2      3.346      7.372
REMARK  Name = 
REMARK  11 active torsions:
REMARK  status: ('A' for Active; 'I' for Inactive)
REMARK    1  A    between atoms: C_1  and  C_2
REMARK    2  A    between atoms: C_2  and  C_3
REMARK    3  A    between atoms: C_3  and  C_4
REMARK    4  A    between atoms: C_4  and  C_5
REMARK    5  A    between atoms: C_5  and  C_6
REMARK    6  A    between atoms: C_5  and  C_11
REMARK    7  A    between atoms: C_6  and  N_7
REMARK    8  A    between atoms: N_7  and  O_8
REMARK    9  A    between atoms: C_16  and  C_17
REMARK   10  A    between atoms: C_18  and  C_19
REMARK   11  A    between atoms: N_21  and  C_22
REMARK                            x       y       z     vdW  Elec       q    Type
REMARK                         _______ _______ _______ _____ _____    ______ ____
ROOT
ATOM      1  C   UNL     1       4.739   3.758  19.264  0.00  0.00    +0.000 C 
ATOM      2  O   UNL     1       5.614   3.034  19.756  0.00  0.00    +0.000 OA
ATOM      3  N   UNL     1       3.437   3.685  19.715  0.00  0.00    +0.000 N 
ATOM      4  C   UNL     1       3.147   2.927  20.894  0.00  0.00    +0.000 C 
ATOM      5  O   UNL     1       1.816   2.444  20.735  0.00  0.00    +0.000 OA
ATOM      6  C   UNL     1       1.135   3.309  19.810  0.00  0.00    +0.000 C 
ATOM      7  C   UNL     1       0.422   2.432  18.797  0.00  0.00    +0.000 C 
ATOM      8  C   UNL     1       2.189   4.221  19.168  0.00  0.00    +0.000 C 
ENDROOT
BRANCH   8   9
ATOM      9  C   UNL     1       1.940   5.692  19.558  0.00  0.00    +0.000 C 
ATOM     10  O   UNL     1       1.634   5.992  20.709  0.00  0.00    +0.000 OA
ATOM     11  N   UNL     1       2.116   6.643  18.547  0.00  0.00    +0.000 N 
ATOM     12  H   UNL     1       1.892   6.364  17.600  0.00  0.00    +0.000 HD
BRANCH  11  13
ATOM     13  C   UNL     1       1.915   8.016  18.840  0.00  0.00    +0.000 A 
ATOM     14  C   UNL     1       1.366   8.411  20.067  0.00  0.00    +0.000 A 
ATOM     15  C   UNL     1       1.022   9.745  20.289  0.00  0.00    +0.000 A 
ATOM     16  C   UNL     1       1.226  10.676  19.280  0.00  0.00    +0.000 A 
ATOM     17  F   UNL     1       0.824  11.941  19.459  0.00  0.00    +0.000 F 
ATOM     18  C   UNL     1       1.826  10.308  18.080  0.00  0.00    +0.000 A 
ATOM     19  C   UNL     1       2.206   8.978  17.867  0.00  0.00    +0.000 A 
ENDBRANCH  11  13
ENDBRANCH   8   9
BRANCH   1  20
ATOM     20  C   UNL     1       5.132   4.803  18.218  0.00  0.00    +0.000 C 
BRANCH  20  21
ATOM     21  C   UNL     1       4.590   4.513  16.792  0.00  0.00    +0.000 C 
BRANCH  21  22
ATOM     22  C   UNL     1       5.166   5.307  15.621  0.00  0.00    +0.000 C 
BRANCH  22  24
ATOM     23  C   UNL     1       7.168   4.821  14.201  0.00  0.00    +0.000 C 
ATOM     24  C   UNL     1       5.720   4.452  14.489  0.00  0.00    +0.000 C 
ENDBRANCH  22  24
ENDBRANCH  21  22
ENDBRANCH  20  21
BRANCH  20  25
ATOM     25  C   UNL     1       6.682   4.873  18.139  0.00  0.00    +0.000 C 
BRANCH  25  26
ATOM     26  N   UNL     1       7.346   5.954  18.877  0.00  0.00    +0.000 N 
ATOM     27  C   UNL     1       7.887   7.031  18.201  0.00  0.00    +0.000 C 
ATOM     28  O   UNL     1       7.622   7.369  17.052  0.00  0.00    +0.000 OA
BRANCH  26  29
ATOM     29  O   UNL     1       8.190   5.534  19.932  0.00  0.00    +0.000 OA
ATOM     30  H   UNL     1       8.366   4.601  19.670  0.00  0.00    +0.000 HD
ENDBRANCH  26  29
ENDBRANCH  25  26
ENDBRANCH  20  25
ENDBRANCH   1  20
TORSDOF 9
ENDMDL
MODEL 9
REMARK VINA RESULT:      -7.2      1.088      1.428
REMARK  Name = 
REMARK  11 active torsions:
REMARK  status: ('A' for Active; 'I' for Inactive)
REMARK    1  A    between atoms: C_1  and  C_2
REMARK    2  A    between atoms: C_2  and  C_3
REMARK    3  A    between atoms: C_3  and  C_4
REMARK    4  A    between atoms: C_4  and  C_5
REMARK    5  A    between atoms: C_5  and  C_6
REMARK    6  A    between atoms: C_5  and  C_11
REMARK    7  A    between atoms: C_6  and  N_7
REMARK    8  A    between atoms: N_7  and  O_8
REMARK    9  A    between atoms: C_16  and  C_17
REMARK   10  A    between atoms: C_18  and  C_19
REMARK   11  A    between atoms: N_21  and  C_22
REMARK                            x       y       z     vdW  Elec       q    Type
REMARK                         _______ _______ _______ _____ _____    ______ ____
ROOT
ATOM      1  C   UNL     1       4.540   5.877  18.976  0.00  0.00    +0.000 C 
ATOM      2  O   UNL     1       4.444   5.311  20.072  0.00  0.00    +0.000 OA
ATOM      3  N   UNL     1       5.780   6.150  18.436  0.00  0.00    +0.000 N 
ATOM      4  C   UNL     1       6.946   5.584  19.044  0.00  0.00    +0.000 C 
ATOM      5  O   UNL     1       8.005   6.504  18.798  0.00  0.00    +0.000 OA
ATOM      6  C   UNL     1       7.658   7.285  17.641  0.00  0.00    +0.000 C 
ATOM      7  C   UNL     1       7.916   8.744  17.975  0.00  0.00    +0.000 C 
ATOM      8  C   UNL     1       6.186   7.002  17.317  0.00  0.00    +0.000 C 
ENDROOT
BRANCH   8   9
ATOM      9  C   UNL     1       6.060   6.302  15.948  0.00  0.00    +0.000 C 
ATOM     10  O   UNL     1       5.104   6.532  15.212  0.00  0.00    +0.000 OA
ATOM     11  N   UNL     1       7.099   5.435  15.593  0.00  0.00    +0.000 N 
ATOM     12  H   UNL     1       7.559   4.928  16.339  0.00  0.00    +0.000 HD
BRANCH  11  13
ATOM     13  C   UNL     1       7.053   4.768  14.342  0.00  0.00    +0.000 A 
ATOM     14  C   UNL     1       7.781   5.252  13.248  0.00  0.00    +0.000 A 
ATOM     15  C   UNL     1       7.608   4.691  11.983  0.00  0.00    +0.000 A 
ATOM     16  C   UNL     1       6.704   3.650  11.819  0.00  0.00    +0.000 A 
ATOM     17  F   UNL     1       6.476   3.162  10.593  0.00  0.00    +0.000 F 
ATOM     18  C   UNL     1       6.021   3.120  12.908  0.00  0.00    +0.000 A 
ATOM     19  C   UNL     1       6.218   3.656  14.185  0.00  0.00    +0.000 A 
ENDBRANCH  11  13
ENDBRANCH   8   9
BRANCH   1  20
ATOM     20  C   UNL     1       3.271   6.189  18.181  0.00  0.00    +0.000 C 
BRANCH  20  21
ATOM     21  C   UNL     1       2.492   7.435  18.684  0.00  0.00    +0.000 C 
BRANCH  21  22
ATOM     22  C   UNL     1       2.219   8.568  17.696  0.00  0.00    +0.000 C 
BRANCH  22  24
ATOM     23  C   UNL     1       1.835  10.971  18.277  0.00  0.00    +0.000 C 
ATOM     24  C   UNL     1       1.199   9.592  18.174  0.00  0.00    +0.000 C 
ENDBRANCH  22  24
ENDBRANCH  21  22
ENDBRANCH  20  21
BRANCH  20  25
ATOM     25  C   UNL     1       2.320   4.964  18.257  0.00  0.00    +0.000 C 
BRANCH  25  26
ATOM     26  N   UNL     1       2.693   3.771  17.486  0.00  0.00    +0.000 N 
ATOM     27  C   UNL     1       2.788   2.540  18.107  0.00  0.00    +0.000 C 
ATOM     28  O   UNL     1       2.299   2.239  19.191  0.00  0.00    +0.000 OA
BRANCH  26  29
ATOM     29  O   UNL     1       3.743   3.960  16.557  0.00  0.00    +0.000 OA
ATOM     30  H   UNL     1       4.490   4.181  17.160  0.00  0.00    +0.000 HD
ENDBRANCH  26  29
ENDBRANCH  25  26
ENDBRANCH  20  25
ENDBRANCH   1  20
TORSDOF 9
ENDMDL
