MODEL 1
REMARK VINA RESULT:      -8.2      0.000      0.000
REMARK  Name = 
REMARK  7 active torsions:
REMARK  status: ('A' for Active; 'I' for Inactive)
REMARK    1  A    between atoms: C_1  and  C_2
REMARK    2  A    between atoms: C_2  and  O_3
REMARK    3  A    between atoms: C_2  and  C_18
REMARK    4  A    between atoms: O_3  and  C_4
REMARK    5  A    between atoms: C_4  and  C_6
REMARK    6  A    between atoms: C_6  and  N_7
REMARK    7  A    between atoms: N_20  and  C_21
REMARK                            x       y       z     vdW  Elec       q    Type
REMARK                         _______ _______ _______ _____ _____    ______ ____
ROOT
ATOM      1  C   UNL     1       6.474   5.153  16.898  0.00  0.00    +0.000 C 
ATOM      2  O   UNL     1       7.376   4.391  16.574  0.00  0.00    +0.000 OA
ENDROOT
BRANCH   1   3
ATOM      3  O   UNL     1       6.559   6.093  17.887  0.00  0.00    +0.000 OA
BRANCH   3   5
ATOM      4  C   UNL     1       8.136   6.100  19.699  0.00  0.00    +0.000 C 
ATOM      5  C   UNL     1       7.882   6.504  18.243  0.00  0.00    +0.000 C 
BRANCH   5   6
ATOM      6  C   UNL     1       8.050   8.033  18.128  0.00  0.00    +0.000 C 
ATOM      7  O   UNL     1       7.341   8.678  17.347  0.00  0.00    +0.000 OA
ATOM      8  N   UNL     1       8.995   8.604  18.970  0.00  0.00    +0.000 N 
ATOM      9  H   UNL     1       9.725   7.987  19.327  0.00  0.00    +0.000 HD
BRANCH   8  10
ATOM     10  C   UNL     1       9.181  10.005  19.124  0.00  0.00    +0.000 A 
ATOM     11  C   UNL     1       9.420  10.860  18.037  0.00  0.00    +0.000 A 
ATOM     12  C   UNL     1       9.692  12.218  18.220  0.00  0.00    +0.000 A 
ATOM     13  C   UNL     1       9.702  12.752  19.501  0.00  0.00    +0.000 A 
ATOM     14  C   UNL     1       9.410  11.928  20.587  0.00  0.00    +0.000 A 
ATOM     15 CL   UNL     1       9.412  12.599  22.172  0.00  0.00    +0.000 Cl
ATOM     16  C   UNL     1       9.137  10.563  20.406  0.00  0.00    +0.000 A 
ENDBRANCH   8  10
ENDBRANCH   5   6
ENDBRANCH   3   5
ENDBRANCH   1   3
BRANCH   1  17
ATOM     17  C   UNL     1       5.146   5.272  16.174  0.00  0.00    +0.000 C 
BRANCH  17  18
ATOM     18  N   UNL     1       4.075   5.168  17.138  0.00  0.00    +0.000 N 
ATOM     19  C   UNL     1       3.455   6.251  17.686  0.00  0.00    +0.000 C 
ATOM     20  O   UNL     1       3.615   7.426  17.400  0.00  0.00    +0.000 OA
ATOM     21  N   UNL     1       2.557   5.808  18.626  0.00  0.00    +0.000 N 
ATOM     22  C   UNL     1       2.546   4.373  18.751  0.00  0.00    +0.000 C 
ATOM     23  C   UNL     1       2.897   3.904  20.166  0.00  0.00    +0.000 C 
ATOM     24  C   UNL     1       1.621   3.253  20.690  0.00  0.00    +0.000 C 
ATOM     25  C   UNL     1       0.960   2.689  19.444  0.00  0.00    +0.000 C 
ATOM     26  C   UNL     1       1.181   3.777  18.402  0.00  0.00    +0.000 C 
ATOM     27  C   UNL     1       3.628   4.006  17.713  0.00  0.00    +0.000 C 
ATOM     28  O   UNL     1       4.029   2.879  17.458  0.00  0.00    +0.000 OA
ATOM     29  H   UNL     1       1.990   6.458  19.153  0.00  0.00    +0.000 HD
ENDBRANCH  17  18
ENDBRANCH   1  17
TORSDOF 6
ENDMDL
MODEL 2
REMARK VINA RESULT:      -7.8      3.943      6.464
REMARK  Name = 
REMARK  7 active torsions:
REMARK  status: ('A' for Active; 'I' for Inactive)
REMARK    1  A    between atoms: C_1  and  C_2
REMARK    2  A    between atoms: C_2  and  O_3
REMARK    3  A    between atoms: C_2  and  C_18
REMARK    4  A    between atoms: O_3  and  C_4
REMARK    5  A    between atoms: C_4  and  C_6
REMARK    6  A    between atoms: C_6  and  N_7
REMARK    7  A    between atoms: N_20  and  C_21
REMARK                            x       y       z     vdW  Elec       q    Type
REMARK                         _______ _______ _______ _____ _____    ______ ____
ROOT
ATOM      1  C   UNL     1       6.035   4.978  18.919  0.00  0.00    +0.000 C 
ATOM      2  O   UNL     1       6.113   4.853  20.134  0.00  0.00    +0.000 OA
ENDROOT
BRANCH   1   3
ATOM      3  O   UNL     1       5.120   4.347  18.123  0.00  0.00    +0.000 OA
BRANCH   3   5
ATOM      4  C   UNL     1       3.397   2.675  18.043  0.00  0.00    +0.000 C 
ATOM      5  C   UNL     1       3.922   3.914  18.774  0.00  0.00    +0.000 C 
BRANCH   5   6
ATOM      6  C   UNL     1       2.830   5.003  18.731  0.00  0.00    +0.000 C 
ATOM      7  O   UNL     1       1.655   4.694  18.502  0.00  0.00    +0.000 OA
ATOM      8  N   UNL     1       3.253   6.297  19.002  0.00  0.00    +0.000 N 
ATOM      9  H   UNL     1       4.244   6.495  18.864  0.00  0.00    +0.000 HD
BRANCH   8  10
ATOM     10  C   UNL     1       2.375   7.404  19.165  0.00  0.00    +0.000 A 
ATOM     11  C   UNL     1       2.056   8.277  18.113  0.00  0.00    +0.000 A 
ATOM     12  C   UNL     1       1.266   9.411  18.317  0.00  0.00    +0.000 A 
ATOM     13  C   UNL     1       0.755   9.676  19.581  0.00  0.00    +0.000 A 
ATOM     14  C   UNL     1       1.015   8.787  20.622  0.00  0.00    +0.000 A 
ATOM     15 CL   UNL     1       0.367   9.115  22.184  0.00  0.00    +0.000 Cl
ATOM     16  C   UNL     1       1.809   7.648  20.421  0.00  0.00    +0.000 A 
ENDBRANCH   8  10
ENDBRANCH   5   6
ENDBRANCH   3   5
ENDBRANCH   1   3
BRANCH   1  17
ATOM     17  C   UNL     1       6.859   5.952  18.100  0.00  0.00    +0.000 C 
BRANCH  17  18
ATOM     18  N   UNL     1       6.527   5.789  16.702  0.00  0.00    +0.000 N 
ATOM     19  C   UNL     1       5.526   6.479  16.087  0.00  0.00    +0.000 C 
ATOM     20  O   UNL     1       4.843   7.376  16.552  0.00  0.00    +0.000 OA
ATOM     21  N   UNL     1       5.413   6.022  14.797  0.00  0.00    +0.000 N 
ATOM     22  C   UNL     1       6.356   4.977  14.494  0.00  0.00    +0.000 C 
ATOM     23  C   UNL     1       5.672   3.675  14.066  0.00  0.00    +0.000 C 
ATOM     24  C   UNL     1       6.068   3.486  12.605  0.00  0.00    +0.000 C 
ATOM     25  C   UNL     1       7.444   4.121  12.514  0.00  0.00    +0.000 C 
ATOM     26  C   UNL     1       7.313   5.376  13.368  0.00  0.00    +0.000 C 
ATOM     27  C   UNL     1       7.072   4.858  15.856  0.00  0.00    +0.000 C 
ATOM     28  O   UNL     1       7.957   4.063  16.138  0.00  0.00    +0.000 OA
ATOM     29  H   UNL     1       4.723   6.406  14.165  0.00  0.00    +0.000 HD
ENDBRANCH  17  18
ENDBRANCH   1  17
TORSDOF 6
ENDMDL
MODEL 3
REMARK VINA RESULT:      -7.7      1.509      1.924
REMARK  Name = 
REMARK  7 active torsions:
REMARK  status: ('A' for Active; 'I' for Inactive)
REMARK    1  A    between atoms: C_1  and  C_2
REMARK    2  A    between atoms: C_2  and  O_3
REMARK    3  A    between atoms: C_2  and  C_18
REMARK    4  A    between atoms: O_3  and  C_4
REMARK    5  A    between atoms: C_4  and  C_6
REMARK    6  A    between atoms: C_6  and  N_7
REMARK    7  A    between atoms: N_20  and  C_21
REMARK                            x       y       z     vdW  Elec       q    Type
REMARK                         _______ _______ _______ _____ _____    ______ ____
ROOT
ATOM      1  C   UNL     1       5.990   6.588  16.664  0.00  0.00    +0.000 C 
ATOM      2  O   UNL     1       5.378   6.839  15.635  0.00  0.00    +0.000 OA
ENDROOT
BRANCH   1   3
ATOM      3  O   UNL     1       6.403   7.518  17.578  0.00  0.00    +0.000 OA
BRANCH   3   5
ATOM      4  C   UNL     1       8.220   6.740  18.942  0.00  0.00    +0.000 C 
ATOM      5  C   UNL     1       7.817   7.627  17.759  0.00  0.00    +0.000 C 
BRANCH   5   6
ATOM      6  C   UNL     1       8.238   9.077  18.076  0.00  0.00    +0.000 C 
ATOM      7  O   UNL     1       7.705  10.021  17.483  0.00  0.00    +0.000 OA
ATOM      8  N   UNL     1       9.194   9.227  19.071  0.00  0.00    +0.000 N 
ATOM      9  H   UNL     1       9.786   8.418  19.265  0.00  0.00    +0.000 HD
BRANCH   8  10
ATOM     10  C   UNL     1       9.592  10.481  19.612  0.00  0.00    +0.000 A 
ATOM     11  C   UNL     1      10.526  11.315  18.979  0.00  0.00    +0.000 A 
ATOM     12  C   UNL     1      10.971  12.498  19.572  0.00  0.00    +0.000 A 
ATOM     13  C   UNL     1      10.463  12.884  20.806  0.00  0.00    +0.000 A 
ATOM     14  C   UNL     1       9.491  12.096  21.420  0.00  0.00    +0.000 A 
ATOM     15 CL   UNL     1       8.855  12.586  22.943  0.00  0.00    +0.000 Cl
ATOM     16  C   UNL     1       9.043  10.906  20.826  0.00  0.00    +0.000 A 
ENDBRANCH   8  10
ENDBRANCH   5   6
ENDBRANCH   3   5
ENDBRANCH   1   3
BRANCH   1  17
ATOM     17  C   UNL     1       6.287   5.189  17.169  0.00  0.00    +0.000 C 
BRANCH  17  18
ATOM     18  N   UNL     1       5.066   4.602  17.671  0.00  0.00    +0.000 N 
ATOM     19  C   UNL     1       4.192   3.909  16.888  0.00  0.00    +0.000 C 
ATOM     20  O   UNL     1       4.329   3.592  15.719  0.00  0.00    +0.000 OA
ATOM     21  N   UNL     1       3.100   3.572  17.649  0.00  0.00    +0.000 N 
ATOM     22  C   UNL     1       3.201   4.045  19.006  0.00  0.00    +0.000 C 
ATOM     23  C   UNL     1       2.055   4.988  19.385  0.00  0.00    +0.000 C 
ATOM     24  C   UNL     1       1.267   4.236  20.454  0.00  0.00    +0.000 C 
ATOM     25  C   UNL     1       2.317   3.393  21.157  0.00  0.00    +0.000 C 
ATOM     26  C   UNL     1       3.195   2.896  20.017  0.00  0.00    +0.000 C 
ATOM     27  C   UNL     1       4.567   4.760  18.939  0.00  0.00    +0.000 C 
ATOM     28  O   UNL     1       5.104   5.374  19.850  0.00  0.00    +0.000 OA
ATOM     29  H   UNL     1       2.329   3.051  17.254  0.00  0.00    +0.000 HD
ENDBRANCH  17  18
ENDBRANCH   1  17
TORSDOF 6
ENDMDL
MODEL 4
REMARK VINA RESULT:      -7.7      4.790      7.383
REMARK  Name = 
REMARK  7 active torsions:
REMARK  status: ('A' for Active; 'I' for Inactive)
REMARK    1  A    between atoms: C_1  and  C_2
REMARK    2  A    between atoms: C_2  and  O_3
REMARK    3  A    between atoms: C_2  and  C_18
REMARK    4  A    between atoms: O_3  and  C_4
REMARK    5  A    between atoms: C_4  and  C_6
REMARK    6  A    between atoms: C_6  and  N_7
REMARK    7  A    between atoms: N_20  and  C_21
REMARK                            x       y       z     vdW  Elec       q    Type
REMARK                         _______ _______ _______ _____ _____    ______ ____
ROOT
ATOM      1  C   UNL     1       4.128   5.499  18.361  0.00  0.00    +0.000 C 
ATOM      2  O   UNL     1       4.130   4.390  18.879  0.00  0.00    +0.000 OA
ENDROOT
BRANCH   1   3
ATOM      3  O   UNL     1       3.014   6.263  18.148  0.00  0.00    +0.000 OA
BRANCH   3   5
ATOM      4  C   UNL     1       1.880   6.753  20.207  0.00  0.00    +0.000 C 
ATOM      5  C   UNL     1       2.783   7.305  19.099  0.00  0.00    +0.000 C 
BRANCH   5   6
ATOM      6  C   UNL     1       2.074   8.514  18.453  0.00  0.00    +0.000 C 
ATOM      7  O   UNL     1       2.218   8.746  17.248  0.00  0.00    +0.000 OA
ATOM      8  N   UNL     1       1.263   9.261  19.296  0.00  0.00    +0.000 N 
ATOM      9  H   UNL     1       1.453   9.194  20.296  0.00  0.00    +0.000 HD
BRANCH   8  10
ATOM     10  C   UNL     1       0.408  10.310  18.856  0.00  0.00    +0.000 A 
ATOM     11  C   UNL     1       0.744  11.666  18.991  0.00  0.00    +0.000 A 
ATOM     12  C   UNL     1      -0.149  12.680  18.637  0.00  0.00    +0.000 A 
ATOM     13  C   UNL     1      -1.391  12.351  18.111  0.00  0.00    +0.000 A 
ATOM     14  C   UNL     1      -1.716  11.009  17.916  0.00  0.00    +0.000 A 
ATOM     15 CL   UNL     1      -3.253  10.608  17.251  0.00  0.00    +0.000 Cl
ATOM     16  C   UNL     1      -0.822   9.989  18.272  0.00  0.00    +0.000 A 
ENDBRANCH   8  10
ENDBRANCH   5   6
ENDBRANCH   3   5
ENDBRANCH   1   3
BRANCH   1  17
ATOM     17  C   UNL     1       5.376   6.273  17.981  0.00  0.00    +0.000 C 
BRANCH  17  18
ATOM     18  N   UNL     1       6.075   5.555  16.940  0.00  0.00    +0.000 N 
ATOM     19  C   UNL     1       7.149   4.751  17.178  0.00  0.00    +0.000 C 
ATOM     20  O   UNL     1       7.619   4.434  18.258  0.00  0.00    +0.000 OA
ATOM     21  N   UNL     1       7.630   4.300  15.973  0.00  0.00    +0.000 N 
ATOM     22  C   UNL     1       6.878   4.804  14.852  0.00  0.00    +0.000 C 
ATOM     23  C   UNL     1       7.744   5.610  13.880  0.00  0.00    +0.000 C 
ATOM     24  C   UNL     1       7.761   4.788  12.595  0.00  0.00    +0.000 C 
ATOM     25  C   UNL     1       6.414   4.086  12.593  0.00  0.00    +0.000 C 
ATOM     26  C   UNL     1       6.224   3.678  14.048  0.00  0.00    +0.000 C 
ATOM     27  C   UNL     1       5.841   5.673  15.594  0.00  0.00    +0.000 C 
ATOM     28  O   UNL     1       4.973   6.360  15.074  0.00  0.00    +0.000 OA
ATOM     29  H   UNL     1       8.432   3.686  15.928  0.00  0.00    +0.000 HD
ENDBRANCH  17  18
ENDBRANCH   1  17
TORSDOF 6
ENDMDL
MODEL 5
REMARK VINA RESULT:      -7.7      4.328      7.107
REMARK  Name = 
REMARK  7 active torsions:
REMARK  status: ('A' for Active; 'I' for Inactive)
REMARK    1  A    between atoms: C_1  and  C_2
REMARK    2  A    between atoms: C_2  and  O_3
REMARK    3  A    between atoms: C_2  and  C_18
REMARK    4  A    between atoms: O_3  and  C_4
REMARK    5  A    between atoms: C_4  and  C_6
REMARK    6  A    between atoms: C_6  and  N_7
REMARK    7  A    between atoms: N_20  and  C_21
REMARK                            x       y       z     vdW  Elec       q    Type
REMARK                         _______ _______ _______ _____ _____    ______ ____
ROOT
ATOM      1  C   UNL     1       4.364   5.621  18.528  0.00  0.00    +0.000 C 
ATOM      2  O   UNL     1       4.442   4.598  19.195  0.00  0.00    +0.000 OA
ENDROOT
BRANCH   1   3
ATOM      3  O   UNL     1       3.204   6.292  18.254  0.00  0.00    +0.000 OA
BRANCH   3   5
ATOM      4  C   UNL     1       1.799   6.541  20.186  0.00  0.00    +0.000 C 
ATOM      5  C   UNL     1       2.784   7.237  19.242  0.00  0.00    +0.000 C 
BRANCH   5   6
ATOM      6  C   UNL     1       2.070   8.445  18.602  0.00  0.00    +0.000 C 
ATOM      7  O   UNL     1       2.226   8.693  17.401  0.00  0.00    +0.000 OA
ATOM      8  N   UNL     1       1.240   9.174  19.443  0.00  0.00    +0.000 N 
ATOM      9  H   UNL     1       1.419   9.097  20.445  0.00  0.00    +0.000 HD
BRANCH   8  10
ATOM     10  C   UNL     1       0.380  10.218  19.005  0.00  0.00    +0.000 A 
ATOM     11  C   UNL     1      -0.872   9.972  18.420  0.00  0.00    +0.000 A 
ATOM     12  C   UNL     1      -1.660  11.007  17.913  0.00  0.00    +0.000 A 
ATOM     13  C   UNL     1      -1.217  12.320  18.009  0.00  0.00    +0.000 A 
ATOM     14  C   UNL     1      -0.003  12.586  18.639  0.00  0.00    +0.000 A 
ATOM     15 CL   UNL     1       0.534  14.217  18.766  0.00  0.00    +0.000 Cl
ATOM     16  C   UNL     1       0.791  11.548  19.149  0.00  0.00    +0.000 A 
ENDBRANCH   8  10
ENDBRANCH   5   6
ENDBRANCH   3   5
ENDBRANCH   1   3
BRANCH   1  17
ATOM     17  C   UNL     1       5.555   6.394  17.995  0.00  0.00    +0.000 C 
BRANCH  17  18
ATOM     18  N   UNL     1       6.183   5.623  16.945  0.00  0.00    +0.000 N 
ATOM     19  C   UNL     1       7.237   4.787  17.161  0.00  0.00    +0.000 C 
ATOM     20  O   UNL     1       7.741   4.481  18.229  0.00  0.00    +0.000 OA
ATOM     21  N   UNL     1       7.649   4.286  15.950  0.00  0.00    +0.000 N 
ATOM     22  C   UNL     1       6.869   4.787  14.848  0.00  0.00    +0.000 C 
ATOM     23  C   UNL     1       7.720   5.535  13.818  0.00  0.00    +0.000 C 
ATOM     24  C   UNL     1       7.653   4.679  12.557  0.00  0.00    +0.000 C 
ATOM     25  C   UNL     1       6.282   4.027  12.631  0.00  0.00    +0.000 C 
ATOM     26  C   UNL     1       6.141   3.665  14.104  0.00  0.00    +0.000 C 
ATOM     27  C   UNL     1       5.896   5.714  15.608  0.00  0.00    +0.000 C 
ATOM     28  O   UNL     1       5.032   6.418  15.105  0.00  0.00    +0.000 OA
ATOM     29  H   UNL     1       8.426   3.642  15.888  0.00  0.00    +0.000 HD
ENDBRANCH  17  18
ENDBRANCH   1  17
TORSDOF 6
ENDMDL
MODEL 6
REMARK VINA RESULT:      -7.6      3.394      6.652
REMARK  Name = 
REMARK  7 active torsions:
REMARK  status: ('A' for Active; 'I' for Inactive)
REMARK    1  A    between atoms: C_1  and  C_2
REMARK    2  A    between atoms: C_2  and  O_3
REMARK    3  A    between atoms: C_2  and  C_18
REMARK    4  A    between atoms: O_3  and  C_4
REMARK    5  A    between atoms: C_4  and  C_6
REMARK    6  A    between atoms: C_6  and  N_7
REMARK    7  A    between atoms: N_20  and  C_21
REMARK                            x       y       z     vdW  Elec       q    Type
REMARK                         _______ _______ _______ _____ _____    ______ ____
ROOT
ATOM      1  C   UNL     1       3.185   3.040  18.093  0.00  0.00    +0.000 C 
ATOM      2  O   UNL     1       2.632   3.348  17.045  0.00  0.00    +0.000 OA
ENDROOT
BRANCH   1   3
ATOM      3  O   UNL     1       2.541   2.675  19.242  0.00  0.00    +0.000 OA
BRANCH   3   5
ATOM      4  C   UNL     1       2.282   2.808  21.626  0.00  0.00    +0.000 C 
ATOM      5  C   UNL     1       2.713   3.552  20.358  0.00  0.00    +0.000 C 
BRANCH   5   6
ATOM      6  C   UNL     1       1.845   4.820  20.221  0.00  0.00    +0.000 C 
ATOM      7  O   UNL     1       0.615   4.743  20.319  0.00  0.00    +0.000 OA
ATOM      8  N   UNL     1       2.535   6.009  20.030  0.00  0.00    +0.000 N 
ATOM      9  H   UNL     1       3.480   5.936  19.653  0.00  0.00    +0.000 HD
BRANCH   8  10
ATOM     10  C   UNL     1       1.926   7.294  20.040  0.00  0.00    +0.000 A 
ATOM     11  C   UNL     1       1.946   8.150  18.928  0.00  0.00    +0.000 A 
ATOM     12  C   UNL     1       1.423   9.443  18.989  0.00  0.00    +0.000 A 
ATOM     13  C   UNL     1       0.840   9.895  20.166  0.00  0.00    +0.000 A 
ATOM     14  C   UNL     1       0.760   9.037  21.262  0.00  0.00    +0.000 A 
ATOM     15 CL   UNL     1       0.025   9.599  22.713  0.00  0.00    +0.000 Cl
ATOM     16  C   UNL     1       1.286   7.737  21.203  0.00  0.00    +0.000 A 
ENDBRANCH   8  10
ENDBRANCH   5   6
ENDBRANCH   3   5
ENDBRANCH   1   3
BRANCH   1  17
ATOM     17  C   UNL     1       4.685   2.889  18.261  0.00  0.00    +0.000 C 
BRANCH  17  18
ATOM     18  N   UNL     1       5.342   4.027  17.658  0.00  0.00    +0.000 N 
ATOM     19  C   UNL     1       5.865   4.006  16.400  0.00  0.00    +0.000 C 
ATOM     20  O   UNL     1       5.786   3.113  15.573  0.00  0.00    +0.000 OA
ATOM     21  N   UNL     1       6.495   5.205  16.171  0.00  0.00    +0.000 N 
ATOM     22  C   UNL     1       6.420   6.095  17.302  0.00  0.00    +0.000 C 
ATOM     23  C   UNL     1       7.802   6.490  17.830  0.00  0.00    +0.000 C 
ATOM     24  C   UNL     1       7.914   7.986  17.556  0.00  0.00    +0.000 C 
ATOM     25  C   UNL     1       6.482   8.484  17.655  0.00  0.00    +0.000 C 
ATOM     26  C   UNL     1       5.678   7.390  16.964  0.00  0.00    +0.000 C 
ATOM     27  C   UNL     1       5.631   5.208  18.289  0.00  0.00    +0.000 C 
ATOM     28  O   UNL     1       5.332   5.500  19.438  0.00  0.00    +0.000 OA
ATOM     29  H   UNL     1       6.953   5.395  15.291  0.00  0.00    +0.000 HD
ENDBRANCH  17  18
ENDBRANCH   1  17
TORSDOF 6
ENDMDL
MODEL 7
REMARK VINA RESULT:      -7.6      4.041      6.854
REMARK  Name = 
REMARK  7 active torsions:
REMARK  status: ('A' for Active; 'I' for Inactive)
REMARK    1  A    between atoms: C_1  and  C_2
REMARK    2  A    between atoms: C_2  and  O_3
REMARK    3  A    between atoms: C_2  and  C_18
REMARK    4  A    between atoms: O_3  and  C_4
REMARK    5  A    between atoms: C_4  and  C_6
REMARK    6  A    between atoms: C_6  and  N_7
REMARK    7  A    between atoms: N_20  and  C_21
REMARK                            x       y       z     vdW  Elec       q    Type
REMARK                         _______ _______ _______ _____ _____    ______ ____
ROOT
ATOM      1  C   UNL     1       5.219   5.731  18.731  0.00  0.00    +0.000 C 
ATOM      2  O   UNL     1       5.583   5.303  19.819  0.00  0.00    +0.000 OA
ENDROOT
BRANCH   1   3
ATOM      3  O   UNL     1       3.935   5.693  18.264  0.00  0.00    +0.000 OA
BRANCH   3   5
ATOM      4  C   UNL     1       2.113   4.127  18.254  0.00  0.00    +0.000 C 
ATOM      5  C   UNL     1       2.982   5.050  19.115  0.00  0.00    +0.000 C 
BRANCH   5   6
ATOM      6  C   UNL     1       2.060   6.075  19.808  0.00  0.00    +0.000 C 
ATOM      7  O   UNL     1       1.364   5.732  20.770  0.00  0.00    +0.000 OA
ATOM      8  N   UNL     1       2.110   7.370  19.308  0.00  0.00    +0.000 N 
ATOM      9  H   UNL     1       2.449   7.480  18.352  0.00  0.00    +0.000 HD
BRANCH   8  10
ATOM     10  C   UNL     1       1.459   8.481  19.911  0.00  0.00    +0.000 A 
ATOM     11  C   UNL     1       1.169   9.661  19.207  0.00  0.00    +0.000 A 
ATOM     12  C   UNL     1       0.614  10.774  19.841  0.00  0.00    +0.000 A 
ATOM     13  C   UNL     1       0.310  10.715  21.195  0.00  0.00    +0.000 A 
ATOM     14  C   UNL     1       0.538   9.532  21.895  0.00  0.00    +0.000 A 
ATOM     15 CL   UNL     1       0.147   9.461  23.570  0.00  0.00    +0.000 Cl
ATOM     16  C   UNL     1       1.096   8.412  21.260  0.00  0.00    +0.000 A 
ENDBRANCH   8  10
ENDBRANCH   5   6
ENDBRANCH   3   5
ENDBRANCH   1   3
BRANCH   1  17
ATOM     17  C   UNL     1       6.107   6.491  17.765  0.00  0.00    +0.000 C 
BRANCH  17  18
ATOM     18  N   UNL     1       6.488   5.609  16.685  0.00  0.00    +0.000 N 
ATOM     19  C   UNL     1       7.468   4.669  16.799  0.00  0.00    +0.000 C 
ATOM     20  O   UNL     1       8.087   4.355  17.801  0.00  0.00    +0.000 OA
ATOM     21  N   UNL     1       7.643   4.073  15.574  0.00  0.00    +0.000 N 
ATOM     22  C   UNL     1       6.766   4.612  14.565  0.00  0.00    +0.000 C 
ATOM     23  C   UNL     1       7.532   5.213  13.383  0.00  0.00    +0.000 C 
ATOM     24  C   UNL     1       7.190   4.317  12.197  0.00  0.00    +0.000 C 
ATOM     25  C   UNL     1       5.784   3.829  12.501  0.00  0.00    +0.000 C 
ATOM     26  C   UNL     1       5.822   3.549  13.998  0.00  0.00    +0.000 C 
ATOM     27  C   UNL     1       6.019   5.675  15.398  0.00  0.00    +0.000 C 
ATOM     28  O   UNL     1       5.171   6.451  14.982  0.00  0.00    +0.000 OA
ATOM     29  H   UNL     1       8.329   3.343  15.441  0.00  0.00    +0.000 HD
ENDBRANCH  17  18
ENDBRANCH   1  17
TORSDOF 6
ENDMDL
MODEL 8
REMARK VINA RESULT:      -7.5      6.243      9.052
REMARK  Name = 
REMARK  7 active torsions:
REMARK  status: ('A' for Active; 'I' for Inactive)
REMARK    1  A    between atoms: C_1  and  C_2
REMARK    2  A    between atoms: C_2  and  O_3
REMARK    3  A    between atoms: C_2  and  C_18
REMARK    4  A    between atoms: O_3  and  C_4
REMARK    5  A    between atoms: C_4  and  C_6
REMARK    6  A    between atoms: C_6  and  N_7
REMARK    7  A    between atoms: N_20  and  C_21
REMARK                            x       y       z     vdW  Elec       q    Type
REMARK                         _______ _______ _______ _____ _____    ______ ____
ROOT
ATOM      1  C   UNL     1       0.795  11.863  21.164  0.00  0.00    +0.000 C 
ATOM      2  O   UNL     1       0.205  12.671  21.869  0.00  0.00    +0.000 OA
ENDROOT
BRANCH   1   3
ATOM      3  O   UNL     1       1.166  10.606  21.554  0.00  0.00    +0.000 OA
BRANCH   3   5
ATOM      4  C   UNL     1       0.116   9.608  23.470  0.00  0.00    +0.000 C 
ATOM      5  C   UNL     1       0.100   9.736  21.944  0.00  0.00    +0.000 C 
BRANCH   5   6
ATOM      6  C   UNL     1       0.269   8.327  21.338  0.00  0.00    +0.000 C 
ATOM      7  O   UNL     1      -0.718   7.604  21.164  0.00  0.00    +0.000 OA
ATOM      8  N   UNL     1       1.563   7.973  20.980  0.00  0.00    +0.000 N 
ATOM      9  H   UNL     1       2.321   8.478  21.440  0.00  0.00    +0.000 HD
BRANCH   8  10
ATOM     10  C   UNL     1       1.897   6.789  20.266  0.00  0.00    +0.000 A 
ATOM     11  C   UNL     1       2.550   6.813  19.024  0.00  0.00    +0.000 A 
ATOM     12  C   UNL     1       2.785   5.644  18.298  0.00  0.00    +0.000 A 
ATOM     13  C   UNL     1       2.393   4.418  18.819  0.00  0.00    +0.000 A 
ATOM     14  C   UNL     1       1.795   4.372  20.078  0.00  0.00    +0.000 A 
ATOM     15 CL   UNL     1       1.323   2.848  20.725  0.00  0.00    +0.000 Cl
ATOM     16  C   UNL     1       1.557   5.545  20.810  0.00  0.00    +0.000 A 
ENDBRANCH   8  10
ENDBRANCH   5   6
ENDBRANCH   3   5
ENDBRANCH   1   3
BRANCH   1  17
ATOM     17  C   UNL     1       1.105  12.069  19.694  0.00  0.00    +0.000 C 
BRANCH  17  18
ATOM     18  N   UNL     1       0.143  11.335  18.904  0.00  0.00    +0.000 N 
ATOM     19  C   UNL     1       0.464  10.230  18.174  0.00  0.00    +0.000 C 
ATOM     20  O   UNL     1       1.532   9.641  18.141  0.00  0.00    +0.000 OA
ATOM     21  N   UNL     1      -0.649   9.834  17.473  0.00  0.00    +0.000 N 
ATOM     22  C   UNL     1      -1.785  10.687  17.709  0.00  0.00    +0.000 C 
ATOM     23  C   UNL     1      -2.308  11.338  16.426  0.00  0.00    +0.000 C 
ATOM     24  C   UNL     1      -3.694  10.737  16.216  0.00  0.00    +0.000 C 
ATOM     25  C   UNL     1      -4.189  10.461  17.626  0.00  0.00    +0.000 C 
ATOM     26  C   UNL     1      -2.954   9.924  18.337  0.00  0.00    +0.000 C 
ATOM     27  C   UNL     1      -1.159  11.705  18.686  0.00  0.00    +0.000 C 
ATOM     28  O   UNL     1      -1.718  12.679  19.168  0.00  0.00    +0.000 OA
ATOM     29  H   UNL     1      -0.623   9.028  16.864  0.00  0.00    +0.000 HD
ENDBRANCH  17  18
ENDBRANCH   1  17
TORSDOF 6
ENDMDL
MODEL 9
REMARK VINA RESULT:      -7.5      4.396      7.028
REMARK  Name = 
REMARK  7 active torsions:
REMARK  status: ('A' for Active; 'I' for Inactive)
REMARK    1  A    between atoms: C_1  and  C_2
REMARK    2  A    between atoms: C_2  and  O_3
REMARK    3  A    between atoms: C_2  and  C_18
REMARK    4  A    between atoms: O_3  and  C_4
REMARK    5  A    between atoms: C_4  and  C_6
REMARK    6  A    between atoms: C_6  and  N_7
REMARK    7  A    between atoms: N_20  and  C_21
REMARK                            x       y       z     vdW  Elec       q    Type
REMARK                         _______ _______ _______ _____ _____    ______ ____
ROOT
ATOM      1  C   UNL     1       5.051   6.161  18.550  0.00  0.00    +0.000 C 
ATOM      2  O   UNL     1       5.120   5.334  19.450  0.00  0.00    +0.000 OA
ENDROOT
BRANCH   1   3
ATOM      3  O   UNL     1       3.921   6.848  18.202  0.00  0.00    +0.000 OA
BRANCH   3   5
ATOM      4  C   UNL     1       1.854   5.626  18.170  0.00  0.00    +0.000 C 
ATOM      5  C   UNL     1       2.755   6.564  18.979  0.00  0.00    +0.000 C 
BRANCH   5   6
ATOM      6  C   UNL     1       1.960   7.847  19.296  0.00  0.00    +0.000 C 
ATOM      7  O   UNL     1       1.654   8.115  20.463  0.00  0.00    +0.000 OA
ATOM      8  N   UNL     1       1.665   8.661  18.210  0.00  0.00    +0.000 N 
ATOM      9  H   UNL     1       1.670   8.220  17.290  0.00  0.00    +0.000 HD
BRANCH   8  10
ATOM     10  C   UNL     1       1.083   9.954  18.318  0.00  0.00    +0.000 A 
ATOM     11  C   UNL     1       1.848  11.114  18.515  0.00  0.00    +0.000 A 
ATOM     12  C   UNL     1       1.251  12.361  18.711  0.00  0.00    +0.000 A 
ATOM     13  C   UNL     1      -0.133  12.473  18.685  0.00  0.00    +0.000 A 
ATOM     14  C   UNL     1      -0.905  11.340  18.432  0.00  0.00    +0.000 A 
ATOM     15 CL   UNL     1      -2.620  11.488  18.388  0.00  0.00    +0.000 Cl
ATOM     16  C   UNL     1      -0.307  10.086  18.236  0.00  0.00    +0.000 A 
ENDBRANCH   8  10
ENDBRANCH   5   6
ENDBRANCH   3   5
ENDBRANCH   1   3
BRANCH   1  17
ATOM     17  C   UNL     1       6.238   6.660  17.748  0.00  0.00    +0.000 C 
BRANCH  17  18
ATOM     18  N   UNL     1       6.536   5.703  16.707  0.00  0.00    +0.000 N 
ATOM     19  C   UNL     1       7.457   4.709  16.848  0.00  0.00    +0.000 C 
ATOM     20  O   UNL     1       8.080   4.406  17.851  0.00  0.00    +0.000 OA
ATOM     21  N   UNL     1       7.564   4.043  15.651  0.00  0.00    +0.000 N 
ATOM     22  C   UNL     1       6.699   4.586  14.635  0.00  0.00    +0.000 C 
ATOM     23  C   UNL     1       7.471   5.078  13.408  0.00  0.00    +0.000 C 
ATOM     24  C   UNL     1       7.044   4.147  12.277  0.00  0.00    +0.000 C 
ATOM     25  C   UNL     1       5.618   3.766  12.636  0.00  0.00    +0.000 C 
ATOM     26  C   UNL     1       5.676   3.559  14.144  0.00  0.00    +0.000 C 
ATOM     27  C   UNL     1       6.041   5.735  15.429  0.00  0.00    +0.000 C 
ATOM     28  O   UNL     1       5.232   6.541  14.992  0.00  0.00    +0.000 OA
ATOM     29  H   UNL     1       8.199   3.265  15.541  0.00  0.00    +0.000 HD
ENDBRANCH  17  18
ENDBRANCH   1  17
TORSDOF 6
ENDMDL
