MODEL 1
REMARK VINA RESULT:      -6.4      0.000      0.000
REMARK  Name = 
REMARK  8 active torsions:
REMARK  status: ('A' for Active; 'I' for Inactive)
REMARK    1  A    between atoms: C_1  and  C_2
REMARK    2  A    between atoms: C_2  and  C_3
REMARK    3  A    between atoms: C_3  and  C_4
REMARK    4  A    between atoms: C_4  and  N_5
REMARK    5  A    between atoms: C_9  and  C_11
REMARK    6  A    between atoms: C_11  and  N_12
REMARK    7  A    between atoms: C_11  and  C_13
REMARK    8  A    between atoms: C_13  and  N_14
REMARK                            x       y       z     vdW  Elec       q    Type
REMARK                         _______ _______ _______ _____ _____    ______ ____
ROOT
ATOM      1  N   UNL     1       1.810   2.767  17.885  0.00  0.00    +0.000 NA
ATOM      2  C   UNL     1       1.818   4.186  17.462  0.00  0.00    +0.000 C 
ATOM      3  C   UNL     1       2.834   5.098  18.180  0.00  0.00    +0.000 C 
ATOM      4  N   UNL     1       4.176   4.507  18.217  0.00  0.00    +0.000 N 
ATOM      5  C   UNL     1       5.281   5.343  18.094  0.00  0.00    +0.000 C 
ATOM      6  O   UNL     1       5.150   6.537  17.801  0.00  0.00    +0.000 OA
ATOM      7  C   UNL     1       4.205   3.114  18.673  0.00  0.00    +0.000 C 
ATOM      8  C   UNL     1       3.197   2.254  17.883  0.00  0.00    +0.000 C 
ENDROOT
BRANCH   1   9
ATOM      9  C   UNL     1       1.164   2.524  19.183  0.00  0.00    +0.000 C 
BRANCH   9  10
ATOM     10  C   UNL     1       0.833   3.781  20.002  0.00  0.00    +0.000 C 
BRANCH  10  12
ATOM     11  C   UNL     1       2.163   2.604  21.783  0.00  0.00    +0.000 C 
ATOM     12  C   UNL     1       1.697   3.953  21.252  0.00  0.00    +0.000 C 
ENDBRANCH  10  12
ENDBRANCH   9  10
ENDBRANCH   1   9
BRANCH   5  13
ATOM     13  C   UNL     1       6.693   4.714  18.220  0.00  0.00    +0.000 C 
BRANCH  13  14
ATOM     14  N   UNL     1       7.150   4.301  16.868  0.00  0.00    +0.000 NA
ATOM     15  H   UNL     1       7.711   3.453  16.970  0.00  0.00    +0.000 HD
ATOM     16  H   UNL     1       7.795   5.005  16.509  0.00  0.00    +0.000 HD
ENDBRANCH  13  14
BRANCH  13  17
ATOM     17  C   UNL     1       7.691   5.722  18.837  0.00  0.00    +0.000 C 
BRANCH  17  18
ATOM     18  N   UNL     1       7.954   5.464  20.259  0.00  0.00    +0.000 NA
ATOM     19  H   UNL     1       8.112   6.366  20.719  0.00  0.00    +0.000 HD
ATOM     20  H   UNL     1       8.842   4.969  20.339  0.00  0.00    +0.000 HD
ENDBRANCH  17  18
ENDBRANCH  13  17
ENDBRANCH   5  13
TORSDOF 7
ENDMDL
MODEL 2
REMARK VINA RESULT:      -6.3      1.481      1.743
REMARK  Name = 
REMARK  8 active torsions:
REMARK  status: ('A' for Active; 'I' for Inactive)
REMARK    1  A    between atoms: C_1  and  C_2
REMARK    2  A    between atoms: C_2  and  C_3
REMARK    3  A    between atoms: C_3  and  C_4
REMARK    4  A    between atoms: C_4  and  N_5
REMARK    5  A    between atoms: C_9  and  C_11
REMARK    6  A    between atoms: C_11  and  N_12
REMARK    7  A    between atoms: C_11  and  C_13
REMARK    8  A    between atoms: C_13  and  N_14
REMARK                            x       y       z     vdW  Elec       q    Type
REMARK                         _______ _______ _______ _____ _____    ______ ____
ROOT
ATOM      1  N   UNL     1       2.862   1.798  19.067  0.00  0.00    +0.000 NA
ATOM      2  C   UNL     1       2.686   2.388  17.721  0.00  0.00    +0.000 C 
ATOM      3  C   UNL     1       3.263   3.806  17.525  0.00  0.00    +0.000 C 
ATOM      4  N   UNL     1       4.640   3.914  18.020  0.00  0.00    +0.000 N 
ATOM      5  C   UNL     1       5.540   4.720  17.330  0.00  0.00    +0.000 C 
ATOM      6  O   UNL     1       5.246   5.216  16.236  0.00  0.00    +0.000 OA
ATOM      7  C   UNL     1       4.837   3.375  19.369  0.00  0.00    +0.000 C 
ATOM      8  C   UNL     1       4.275   1.942  19.478  0.00  0.00    +0.000 C 
ENDROOT
BRANCH   1   9
ATOM      9  C   UNL     1       1.960   2.344  20.092  0.00  0.00    +0.000 C 
BRANCH   9  10
ATOM     10  C   UNL     1       0.868   3.290  19.573  0.00  0.00    +0.000 C 
BRANCH  10  12
ATOM     11  C   UNL     1       2.093   5.093  20.828  0.00  0.00    +0.000 C 
ATOM     12  C   UNL     1       0.731   4.583  20.380  0.00  0.00    +0.000 C 
ENDBRANCH  10  12
ENDBRANCH   9  10
ENDBRANCH   1   9
BRANCH   5  13
ATOM     13  C   UNL     1       6.966   4.891  17.913  0.00  0.00    +0.000 C 
BRANCH  13  14
ATOM     14  N   UNL     1       7.928   4.190  17.024  0.00  0.00    +0.000 NA
ATOM     15  H   UNL     1       8.180   4.828  16.266  0.00  0.00    +0.000 HD
ATOM     16  H   UNL     1       7.449   3.413  16.569  0.00  0.00    +0.000 HD
ENDBRANCH  13  14
BRANCH  13  17
ATOM     17  C   UNL     1       7.338   6.387  18.028  0.00  0.00    +0.000 C 
BRANCH  17  18
ATOM     18  N   UNL     1       7.599   7.011  16.724  0.00  0.00    +0.000 NA
ATOM     19  H   UNL     1       8.612   7.009  16.571  0.00  0.00    +0.000 HD
ATOM     20  H   UNL     1       7.344   7.997  16.779  0.00  0.00    +0.000 HD
ENDBRANCH  17  18
ENDBRANCH  13  17
ENDBRANCH   5  13
TORSDOF 7
ENDMDL
MODEL 3
REMARK VINA RESULT:      -6.3      1.071      1.372
REMARK  Name = 
REMARK  8 active torsions:
REMARK  status: ('A' for Active; 'I' for Inactive)
REMARK    1  A    between atoms: C_1  and  C_2
REMARK    2  A    between atoms: C_2  and  C_3
REMARK    3  A    between atoms: C_3  and  C_4
REMARK    4  A    between atoms: C_4  and  N_5
REMARK    5  A    between atoms: C_9  and  C_11
REMARK    6  A    between atoms: C_11  and  N_12
REMARK    7  A    between atoms: C_11  and  C_13
REMARK    8  A    between atoms: C_13  and  N_14
REMARK                            x       y       z     vdW  Elec       q    Type
REMARK                         _______ _______ _______ _____ _____    ______ ____
ROOT
ATOM      1  N   UNL     1       2.398   1.941  18.766  0.00  0.00    +0.000 NA
ATOM      2  C   UNL     1       2.431   2.582  17.432  0.00  0.00    +0.000 C 
ATOM      3  C   UNL     1       3.206   3.913  17.342  0.00  0.00    +0.000 C 
ATOM      4  N   UNL     1       4.532   3.821  17.963  0.00  0.00    +0.000 N 
ATOM      5  C   UNL     1       5.592   4.515  17.389  0.00  0.00    +0.000 C 
ATOM      6  O   UNL     1       5.471   5.073  16.291  0.00  0.00    +0.000 OA
ATOM      7  C   UNL     1       4.527   3.228  19.304  0.00  0.00    +0.000 C 
ATOM      8  C   UNL     1       3.773   1.882  19.309  0.00  0.00    +0.000 C 
ENDROOT
BRANCH   1   9
ATOM      9  C   UNL     1       1.484   2.579  19.724  0.00  0.00    +0.000 C 
BRANCH   9  10
ATOM     10  C   UNL     1       1.983   2.638  21.175  0.00  0.00    +0.000 C 
BRANCH  10  12
ATOM     11  C   UNL     1       1.670   5.089  20.710  0.00  0.00    +0.000 C 
ATOM     12  C   UNL     1       2.177   4.058  21.708  0.00  0.00    +0.000 C 
ENDBRANCH  10  12
ENDBRANCH   9  10
ENDBRANCH   1   9
BRANCH   5  13
ATOM     13  C   UNL     1       6.967   4.477  18.104  0.00  0.00    +0.000 C 
BRANCH  13  14
ATOM     14  N   UNL     1       8.025   4.263  17.084  0.00  0.00    +0.000 NA
ATOM     15  H   UNL     1       7.665   3.607  16.388  0.00  0.00    +0.000 HD
ATOM     16  H   UNL     1       8.811   3.781  17.521  0.00  0.00    +0.000 HD
ENDBRANCH  13  14
BRANCH  13  17
ATOM     17  C   UNL     1       7.224   5.794  18.873  0.00  0.00    +0.000 C 
BRANCH  17  18
ATOM     18  N   UNL     1       7.861   5.577  20.178  0.00  0.00    +0.000 NA
ATOM     19  H   UNL     1       8.546   6.325  20.323  0.00  0.00    +0.000 HD
ATOM     20  H   UNL     1       8.413   4.721  20.131  0.00  0.00    +0.000 HD
ENDBRANCH  17  18
ENDBRANCH  13  17
ENDBRANCH   5  13
TORSDOF 7
ENDMDL
MODEL 4
REMARK VINA RESULT:      -6.2      2.317      6.191
REMARK  Name = 
REMARK  8 active torsions:
REMARK  status: ('A' for Active; 'I' for Inactive)
REMARK    1  A    between atoms: C_1  and  C_2
REMARK    2  A    between atoms: C_2  and  C_3
REMARK    3  A    between atoms: C_3  and  C_4
REMARK    4  A    between atoms: C_4  and  N_5
REMARK    5  A    between atoms: C_9  and  C_11
REMARK    6  A    between atoms: C_11  and  N_12
REMARK    7  A    between atoms: C_11  and  C_13
REMARK    8  A    between atoms: C_13  and  N_14
REMARK                            x       y       z     vdW  Elec       q    Type
REMARK                         _______ _______ _______ _____ _____    ______ ____
ROOT
ATOM      1  N   UNL     1       7.324   6.085  16.849  0.00  0.00    +0.000 NA
ATOM      2  C   UNL     1       7.452   5.221  18.044  0.00  0.00    +0.000 C 
ATOM      3  C   UNL     1       6.153   4.979  18.842  0.00  0.00    +0.000 C 
ATOM      4  N   UNL     1       5.037   4.589  17.974  0.00  0.00    +0.000 N 
ATOM      5  C   UNL     1       4.115   3.659  18.443  0.00  0.00    +0.000 C 
ATOM      6  O   UNL     1       4.304   3.048  19.502  0.00  0.00    +0.000 OA
ATOM      7  C   UNL     1       4.859   5.451  16.802  0.00  0.00    +0.000 C 
ATOM      8  C   UNL     1       6.185   5.613  16.031  0.00  0.00    +0.000 C 
ENDROOT
BRANCH   1   9
ATOM      9  C   UNL     1       7.198   7.519  17.146  0.00  0.00    +0.000 C 
BRANCH   9  10
ATOM     10  C   UNL     1       8.196   8.071  18.174  0.00  0.00    +0.000 C 
BRANCH  10  12
ATOM     11  C   UNL     1       9.245  10.086  19.252  0.00  0.00    +0.000 C 
ATOM     12  C   UNL     1       8.410   9.583  18.083  0.00  0.00    +0.000 C 
ENDBRANCH  10  12
ENDBRANCH   9  10
ENDBRANCH   1   9
BRANCH   5  13
ATOM     13  C   UNL     1       2.894   3.321  17.548  0.00  0.00    +0.000 C 
BRANCH  13  14
ATOM     14  N   UNL     1       2.592   1.874  17.688  0.00  0.00    +0.000 NA
ATOM     15  H   UNL     1       3.249   1.477  18.363  0.00  0.00    +0.000 HD
ATOM     16  H   UNL     1       2.803   1.407  16.806  0.00  0.00    +0.000 HD
ENDBRANCH  13  14
BRANCH  13  17
ATOM     17  C   UNL     1       1.665   4.166  17.952  0.00  0.00    +0.000 C 
BRANCH  17  18
ATOM     18  N   UNL     1       1.273   3.967  19.354  0.00  0.00    +0.000 NA
ATOM     19  H   UNL     1       0.262   3.809  19.380  0.00  0.00    +0.000 HD
ATOM     20  H   UNL     1       1.415   4.843  19.858  0.00  0.00    +0.000 HD
ENDBRANCH  17  18
ENDBRANCH  13  17
ENDBRANCH   5  13
TORSDOF 7
ENDMDL
MODEL 5
REMARK VINA RESULT:      -6.1      2.272      5.437
REMARK  Name = 
REMARK  8 active torsions:
REMARK  status: ('A' for Active; 'I' for Inactive)
REMARK    1  A    between atoms: C_1  and  C_2
REMARK    2  A    between atoms: C_2  and  C_3
REMARK    3  A    between atoms: C_3  and  C_4
REMARK    4  A    between atoms: C_4  and  N_5
REMARK    5  A    between atoms: C_9  and  C_11
REMARK    6  A    between atoms: C_11  and  N_12
REMARK    7  A    between atoms: C_11  and  C_13
REMARK    8  A    between atoms: C_13  and  N_14
REMARK                            x       y       z     vdW  Elec       q    Type
REMARK                         _______ _______ _______ _____ _____    ______ ____
ROOT
ATOM      1  N   UNL     1       5.287   5.477  16.471  0.00  0.00    +0.000 NA
ATOM      2  C   UNL     1       4.751   4.126  16.186  0.00  0.00    +0.000 C 
ATOM      3  C   UNL     1       4.385   3.273  17.418  0.00  0.00    +0.000 C 
ATOM      4  N   UNL     1       3.568   4.018  18.382  0.00  0.00    +0.000 N 
ATOM      5  C   UNL     1       2.568   3.346  19.078  0.00  0.00    +0.000 C 
ATOM      6  O   UNL     1       2.258   2.184  18.787  0.00  0.00    +0.000 OA
ATOM      7  C   UNL     1       4.096   5.344  18.717  0.00  0.00    +0.000 C 
ATOM      8  C   UNL     1       4.399   6.155  17.440  0.00  0.00    +0.000 C 
ENDROOT
BRANCH   1   9
ATOM      9  C   UNL     1       6.680   5.491  16.939  0.00  0.00    +0.000 C 
BRANCH   9  10
ATOM     10  C   UNL     1       7.274   6.882  17.203  0.00  0.00    +0.000 C 
BRANCH  10  12
ATOM     11  C   UNL     1       7.875   5.719  19.351  0.00  0.00    +0.000 C 
ATOM     12  C   UNL     1       8.005   7.002  18.542  0.00  0.00    +0.000 C 
ENDBRANCH  10  12
ENDBRANCH   9  10
ENDBRANCH   1   9
BRANCH   5  13
ATOM     13  C   UNL     1       1.771   4.127  20.154  0.00  0.00    +0.000 C 
BRANCH  13  14
ATOM     14  N   UNL     1       0.377   3.614  20.175  0.00  0.00    +0.000 NA
ATOM     15  H   UNL     1      -0.204   4.256  19.632  0.00  0.00    +0.000 HD
ATOM     16  H   UNL     1       0.019   3.673  21.128  0.00  0.00    +0.000 HD
ENDBRANCH  13  14
BRANCH  13  17
ATOM     17  C   UNL     1       2.422   3.964  21.547  0.00  0.00    +0.000 C 
BRANCH  17  18
ATOM     18  N   UNL     1       2.573   2.557  21.944  0.00  0.00    +0.000 NA
ATOM     19  H   UNL     1       3.555   2.297  21.817  0.00  0.00    +0.000 HD
ATOM     20  H   UNL     1       2.059   1.977  21.281  0.00  0.00    +0.000 HD
ENDBRANCH  17  18
ENDBRANCH  13  17
ENDBRANCH   5  13
TORSDOF 7
ENDMDL
MODEL 6
REMARK VINA RESULT:      -6.1      2.390      6.313
REMARK  Name = 
REMARK  8 active torsions:
REMARK  status: ('A' for Active; 'I' for Inactive)
REMARK    1  A    between atoms: C_1  and  C_2
REMARK    2  A    between atoms: C_2  and  C_3
REMARK    3  A    between atoms: C_3  and  C_4
REMARK    4  A    between atoms: C_4  and  N_5
REMARK    5  A    between atoms: C_9  and  C_11
REMARK    6  A    between atoms: C_11  and  N_12
REMARK    7  A    between atoms: C_11  and  C_13
REMARK    8  A    between atoms: C_13  and  N_14
REMARK                            x       y       z     vdW  Elec       q    Type
REMARK                         _______ _______ _______ _____ _____    ______ ____
ROOT
ATOM      1  N   UNL     1       6.814   6.337  16.798  0.00  0.00    +0.000 NA
ATOM      2  C   UNL     1       6.821   4.860  16.904  0.00  0.00    +0.000 C 
ATOM      3  C   UNL     1       5.955   4.261  18.033  0.00  0.00    +0.000 C 
ATOM      4  N   UNL     1       4.602   4.827  18.049  0.00  0.00    +0.000 N 
ATOM      5  C   UNL     1       3.533   4.002  18.383  0.00  0.00    +0.000 C 
ATOM      6  O   UNL     1       3.683   2.781  18.513  0.00  0.00    +0.000 OA
ATOM      7  C   UNL     1       4.563   6.291  17.987  0.00  0.00    +0.000 C 
ATOM      8  C   UNL     1       5.414   6.816  16.812  0.00  0.00    +0.000 C 
ENDROOT
BRANCH   1   9
ATOM      9  C   UNL     1       7.613   7.023  17.824  0.00  0.00    +0.000 C 
BRANCH   9  10
ATOM     10  C   UNL     1       7.769   8.538  17.634  0.00  0.00    +0.000 C 
BRANCH  10  12
ATOM     11  C   UNL     1       9.084  10.606  18.202  0.00  0.00    +0.000 C 
ATOM     12  C   UNL     1       8.711   9.197  18.643  0.00  0.00    +0.000 C 
ENDBRANCH  10  12
ENDBRANCH   9  10
ENDBRANCH   1   9
BRANCH   5  13
ATOM     13  C   UNL     1       2.120   4.635  18.480  0.00  0.00    +0.000 C 
BRANCH  13  14
ATOM     14  N   UNL     1       1.254   4.016  17.443  0.00  0.00    +0.000 NA
ATOM     15  H   UNL     1       1.847   3.454  16.830  0.00  0.00    +0.000 HD
ATOM     16  H   UNL     1       0.878   4.753  16.847  0.00  0.00    +0.000 HD
ENDBRANCH  13  14
BRANCH  13  17
ATOM     17  C   UNL     1       1.514   4.415  19.885  0.00  0.00    +0.000 C 
BRANCH  17  18
ATOM     18  N   UNL     1       0.728   3.178  19.979  0.00  0.00    +0.000 NA
ATOM     19  H   UNL     1       0.538   2.999  20.969  0.00  0.00    +0.000 HD
ATOM     20  H   UNL     1       1.313   2.399  19.679  0.00  0.00    +0.000 HD
ENDBRANCH  17  18
ENDBRANCH  13  17
ENDBRANCH   5  13
TORSDOF 7
ENDMDL
MODEL 7
REMARK VINA RESULT:      -6.1      1.653      2.265
REMARK  Name = 
REMARK  8 active torsions:
REMARK  status: ('A' for Active; 'I' for Inactive)
REMARK    1  A    between atoms: C_1  and  C_2
REMARK    2  A    between atoms: C_2  and  C_3
REMARK    3  A    between atoms: C_3  and  C_4
REMARK    4  A    between atoms: C_4  and  N_5
REMARK    5  A    between atoms: C_9  and  C_11
REMARK    6  A    between atoms: C_11  and  N_12
REMARK    7  A    between atoms: C_11  and  C_13
REMARK    8  A    between atoms: C_13  and  N_14
REMARK                            x       y       z     vdW  Elec       q    Type
REMARK                         _______ _______ _______ _____ _____    ______ ____
ROOT
ATOM      1  N   UNL     1       3.535   2.667  18.365  0.00  0.00    +0.000 NA
ATOM      2  C   UNL     1       4.407   2.634  17.169  0.00  0.00    +0.000 C 
ATOM      3  C   UNL     1       5.054   3.976  16.769  0.00  0.00    +0.000 C 
ATOM      4  N   UNL     1       5.680   4.649  17.912  0.00  0.00    +0.000 N 
ATOM      5  C   UNL     1       6.859   5.359  17.710  0.00  0.00    +0.000 C 
ATOM      6  O   UNL     1       7.462   5.303  16.632  0.00  0.00    +0.000 OA
ATOM      7  C   UNL     1       4.825   4.734  19.100  0.00  0.00    +0.000 C 
ATOM      8  C   UNL     1       4.249   3.351  19.465  0.00  0.00    +0.000 C 
ENDROOT
BRANCH   1   9
ATOM      9  C   UNL     1       2.216   3.275  18.139  0.00  0.00    +0.000 C 
BRANCH   9  10
ATOM     10  C   UNL     1       1.062   2.671  18.952  0.00  0.00    +0.000 C 
BRANCH  10  12
ATOM     11  C   UNL     1       1.350   2.775  21.448  0.00  0.00    +0.000 C 
ATOM     12  C   UNL     1       0.730   3.445  20.229  0.00  0.00    +0.000 C 
ENDBRANCH  10  12
ENDBRANCH   9  10
ENDBRANCH   1   9
BRANCH   5  13
ATOM     13  C   UNL     1       7.463   6.135  18.909  0.00  0.00    +0.000 C 
BRANCH  13  14
ATOM     14  N   UNL     1       8.392   5.232  19.637  0.00  0.00    +0.000 NA
ATOM     15  H   UNL     1       9.306   5.689  19.680  0.00  0.00    +0.000 HD
ATOM     16  H   UNL     1       8.541   4.393  19.077  0.00  0.00    +0.000 HD
ENDBRANCH  13  14
BRANCH  13  17
ATOM     17  C   UNL     1       8.212   7.398  18.427  0.00  0.00    +0.000 C 
BRANCH  17  18
ATOM     18  N   UNL     1       7.539   8.065  17.304  0.00  0.00    +0.000 NA
ATOM     19  H   UNL     1       6.530   8.024  17.472  0.00  0.00    +0.000 HD
ATOM     20  H   UNL     1       7.689   7.511  16.461  0.00  0.00    +0.000 HD
ENDBRANCH  17  18
ENDBRANCH  13  17
ENDBRANCH   5  13
TORSDOF 7
ENDMDL
MODEL 8
REMARK VINA RESULT:      -6.0      2.384      3.671
REMARK  Name = 
REMARK  8 active torsions:
REMARK  status: ('A' for Active; 'I' for Inactive)
REMARK    1  A    between atoms: C_1  and  C_2
REMARK    2  A    between atoms: C_2  and  C_3
REMARK    3  A    between atoms: C_3  and  C_4
REMARK    4  A    between atoms: C_4  and  N_5
REMARK    5  A    between atoms: C_9  and  C_11
REMARK    6  A    between atoms: C_11  and  N_12
REMARK    7  A    between atoms: C_11  and  C_13
REMARK    8  A    between atoms: C_13  and  N_14
REMARK                            x       y       z     vdW  Elec       q    Type
REMARK                         _______ _______ _______ _____ _____    ______ ____
ROOT
ATOM      1  N   UNL     1       3.739   5.729  19.181  0.00  0.00    +0.000 NA
ATOM      2  C   UNL     1       5.123   5.329  19.520  0.00  0.00    +0.000 C 
ATOM      3  C   UNL     1       5.820   4.390  18.513  0.00  0.00    +0.000 C 
ATOM      4  N   UNL     1       5.687   4.867  17.132  0.00  0.00    +0.000 N 
ATOM      5  C   UNL     1       6.750   4.685  16.253  0.00  0.00    +0.000 C 
ATOM      6  O   UNL     1       7.846   4.274  16.652  0.00  0.00    +0.000 OA
ATOM      7  C   UNL     1       4.319   5.232  16.753  0.00  0.00    +0.000 C 
ATOM      8  C   UNL     1       3.702   6.204  17.780  0.00  0.00    +0.000 C 
ENDROOT
BRANCH   1   9
ATOM      9  C   UNL     1       2.731   4.683  19.406  0.00  0.00    +0.000 C 
BRANCH   9  10
ATOM     10  C   UNL     1       2.359   4.429  20.874  0.00  0.00    +0.000 C 
BRANCH  10  12
ATOM     11  C   UNL     1       0.813   2.792  19.755  0.00  0.00    +0.000 C 
ATOM     12  C   UNL     1       1.409   3.248  21.079  0.00  0.00    +0.000 C 
ENDBRANCH  10  12
ENDBRANCH   9  10
ENDBRANCH   1   9
BRANCH   5  13
ATOM     13  C   UNL     1       6.562   5.117  14.776  0.00  0.00    +0.000 C 
BRANCH  13  14
ATOM     14  N   UNL     1       7.901   5.378  14.186  0.00  0.00    +0.000 NA
ATOM     15  H   UNL     1       8.204   6.306  14.490  0.00  0.00    +0.000 HD
ATOM     16  H   UNL     1       7.806   5.448  13.174  0.00  0.00    +0.000 HD
ENDBRANCH  13  14
BRANCH  13  17
ATOM     17  C   UNL     1       5.828   4.020  13.971  0.00  0.00    +0.000 C 
BRANCH  17  18
ATOM     18  N   UNL     1       6.659   3.444  12.904  0.00  0.00    +0.000 NA
ATOM     19  H   UNL     1       7.203   4.203  12.484  0.00  0.00    +0.000 HD
ATOM     20  H   UNL     1       6.046   3.116  12.158  0.00  0.00    +0.000 HD
ENDBRANCH  17  18
ENDBRANCH  13  17
ENDBRANCH   5  13
TORSDOF 7
ENDMDL
MODEL 9
REMARK VINA RESULT:      -6.0      2.354      5.893
REMARK  Name = 
REMARK  8 active torsions:
REMARK  status: ('A' for Active; 'I' for Inactive)
REMARK    1  A    between atoms: C_1  and  C_2
REMARK    2  A    between atoms: C_2  and  C_3
REMARK    3  A    between atoms: C_3  and  C_4
REMARK    4  A    between atoms: C_4  and  N_5
REMARK    5  A    between atoms: C_9  and  C_11
REMARK    6  A    between atoms: C_11  and  N_12
REMARK    7  A    between atoms: C_11  and  C_13
REMARK    8  A    between atoms: C_13  and  N_14
REMARK                            x       y       z     vdW  Elec       q    Type
REMARK                         _______ _______ _______ _____ _____    ______ ____
ROOT
ATOM      1  N   UNL     1       5.602   5.564  18.139  0.00  0.00    +0.000 NA
ATOM      2  C   UNL     1       5.328   4.254  17.507  0.00  0.00    +0.000 C 
ATOM      3  C   UNL     1       4.673   3.191  18.415  0.00  0.00    +0.000 C 
ATOM      4  N   UNL     1       3.517   3.725  19.142  0.00  0.00    +0.000 N 
ATOM      5  C   UNL     1       2.421   2.898  19.362  0.00  0.00    +0.000 C 
ATOM      6  O   UNL     1       2.342   1.786  18.827  0.00  0.00    +0.000 OA
ATOM      7  C   UNL     1       3.770   5.004  19.814  0.00  0.00    +0.000 C 
ATOM      8  C   UNL     1       4.384   6.028  18.838  0.00  0.00    +0.000 C 
ENDROOT
BRANCH   1   9
ATOM      9  C   UNL     1       6.760   5.572  19.044  0.00  0.00    +0.000 C 
BRANCH   9  10
ATOM     10  C   UNL     1       7.885   6.548  18.670  0.00  0.00    +0.000 C 
BRANCH  10  12
ATOM     11  C   UNL     1       7.982   8.896  17.773  0.00  0.00    +0.000 C 
ATOM     12  C   UNL     1       7.546   7.464  17.493  0.00  0.00    +0.000 C 
ENDBRANCH  10  12
ENDBRANCH   9  10
ENDBRANCH   1   9
BRANCH   5  13
ATOM     13  C   UNL     1       1.243   3.449  20.206  0.00  0.00    +0.000 C 
BRANCH  13  14
ATOM     14  N   UNL     1      -0.032   3.033  19.568  0.00  0.00    +0.000 NA
ATOM     15  H   UNL     1      -0.341   2.167  20.015  0.00  0.00    +0.000 HD
ATOM     16  H   UNL     1       0.153   2.779  18.598  0.00  0.00    +0.000 HD
ENDBRANCH  13  14
BRANCH  13  17
ATOM     17  C   UNL     1       1.312   2.922  21.658  0.00  0.00    +0.000 C 
BRANCH  17  18
ATOM     18  N   UNL     1       2.632   2.379  22.005  0.00  0.00    +0.000 NA
ATOM     19  H   UNL     1       2.687   1.424  21.638  0.00  0.00    +0.000 HD
ATOM     20  H   UNL     1       2.684   2.275  23.018  0.00  0.00    +0.000 HD
ENDBRANCH  17  18
ENDBRANCH  13  17
ENDBRANCH   5  13
TORSDOF 7
ENDMDL
