MODEL 1
REMARK VINA RESULT:      -8.0      0.000      0.000
REMARK  Name = 
REMARK  6 active torsions:
REMARK  status: ('A' for Active; 'I' for Inactive)
REMARK    1  A    between atoms: C_1  and  C_2
REMARK    2  A    between atoms: N_7  and  C_8
REMARK    3  A    between atoms: C_8  and  C_9
REMARK    4  A    between atoms: C_10  and  C_11
REMARK    5  A    between atoms: C_22  and  C_23
REMARK    6  A    between atoms: C_27  and  C_28
REMARK                            x       y       z     vdW  Elec       q    Type
REMARK                         _______ _______ _______ _____ _____    ______ ____
ROOT
ATOM      1  C   UNL     1      -0.660  12.625  21.810  0.00  0.00    +0.000 A 
ATOM      2  C   UNL     1      -1.435  12.719  22.963  0.00  0.00    +0.000 A 
ATOM      3  N   UNL     1      -1.515  11.498  23.599  0.00  0.00    +0.000 NA
ATOM      4  C   UNL     1      -0.835  10.659  22.852  0.00  0.00    +0.000 A 
ATOM      5  C   UNL     1      -0.612   9.259  22.986  0.00  0.00    +0.000 A 
ATOM      6  C   UNL     1       0.129   8.603  22.070  0.00  0.00    +0.000 A 
ATOM      7  C   UNL     1       0.730   9.292  20.932  0.00  0.00    +0.000 A 
ATOM      8  C   UNL     1       0.523  10.620  20.816  0.00  0.00    +0.000 A 
ATOM      9  N   UNL     1      -0.266  11.295  21.755  0.00  0.00    +0.000 N 
ENDROOT
BRANCH   2  10
ATOM     10  C   UNL     1      -2.068  13.912  23.519  0.00  0.00    +0.000 A 
ATOM     11  C   UNL     1      -1.350  14.902  24.205  0.00  0.00    +0.000 A 
ATOM     12  C   UNL     1      -1.998  16.006  24.769  0.00  0.00    +0.000 A 
ATOM     13  C   UNL     1      -3.373  16.148  24.622  0.00  0.00    +0.000 A 
ATOM     14 CL   UNL     1      -4.170  17.502  25.322  0.00  0.00    +0.000 Cl
ATOM     15  C   UNL     1      -4.103  15.202  23.908  0.00  0.00    +0.000 A 
ATOM     16  C   UNL     1      -3.451  14.090  23.359  0.00  0.00    +0.000 A 
ENDBRANCH   2  10
BRANCH   7  17
ATOM     17  C   UNL     1       1.494   8.617  19.874  0.00  0.00    +0.000 A 
ATOM     18  C   UNL     1       1.611   9.177  18.596  0.00  0.00    +0.000 A 
ATOM     19  C   UNL     1       2.320   8.505  17.599  0.00  0.00    +0.000 A 
ATOM     20  C   UNL     1       2.917   7.274  17.871  0.00  0.00    +0.000 A 
ATOM     21  C   UNL     1       2.811   6.699  19.142  0.00  0.00    +0.000 A 
ATOM     22  C   UNL     1       3.447   5.374  19.448  0.00  0.00    +0.000 C 
ATOM     23  C   UNL     1       2.105   7.379  20.138  0.00  0.00    +0.000 A 
ENDBRANCH   7  17
BRANCH   1  24
ATOM     24  C   UNL     1      -0.274  13.622  20.775  0.00  0.00    +0.000 C 
BRANCH  24  31
ATOM     25  C   UNL     1       3.198  16.783  17.280  0.00  0.00    +0.000 C 
ATOM     26  C   UNL     1       3.401  15.458  17.967  0.00  0.00    +0.000 C 
ATOM     27  O   UNL     1       4.409  14.790  17.742  0.00  0.00    +0.000 OA
ATOM     28  N   UNL     1       2.430  15.072  18.872  0.00  0.00    +0.000 N 
ATOM     29  C   UNL     1       2.618  13.834  19.635  0.00  0.00    +0.000 C 
ATOM     30  C   UNL     1       2.137  13.989  21.092  0.00  0.00    +0.000 C 
ATOM     31  N   UNL     1       0.770  14.544  21.234  0.00  0.00    +0.000 NA
ATOM     32  C   UNL     1       0.705  15.821  20.491  0.00  0.00    +0.000 C 
ATOM     33  C   UNL     1       1.114  15.702  19.009  0.00  0.00    +0.000 C 
ENDBRANCH  24  31
ENDBRANCH   1  24
TORSDOF 4
ENDMDL
MODEL 2
REMARK VINA RESULT:      -7.9      0.590      1.032
REMARK  Name = 
REMARK  6 active torsions:
REMARK  status: ('A' for Active; 'I' for Inactive)
REMARK    1  A    between atoms: C_1  and  C_2
REMARK    2  A    between atoms: N_7  and  C_8
REMARK    3  A    between atoms: C_8  and  C_9
REMARK    4  A    between atoms: C_10  and  C_11
REMARK    5  A    between atoms: C_22  and  C_23
REMARK    6  A    between atoms: C_27  and  C_28
REMARK                            x       y       z     vdW  Elec       q    Type
REMARK                         _______ _______ _______ _____ _____    ______ ____
ROOT
ATOM      1  C   UNL     1      -1.125  12.683  21.806  0.00  0.00    +0.000 A 
ATOM      2  C   UNL     1      -1.793  12.747  23.026  0.00  0.00    +0.000 A 
ATOM      3  N   UNL     1      -1.643  11.569  23.728  0.00  0.00    +0.000 NA
ATOM      4  C   UNL     1      -0.926  10.781  22.958  0.00  0.00    +0.000 A 
ATOM      5  C   UNL     1      -0.500   9.435  23.138  0.00  0.00    +0.000 A 
ATOM      6  C   UNL     1       0.235   8.826  22.186  0.00  0.00    +0.000 A 
ATOM      7  C   UNL     1       0.624   9.516  20.959  0.00  0.00    +0.000 A 
ATOM      8  C   UNL     1       0.226  10.794  20.799  0.00  0.00    +0.000 A 
ATOM      9  N   UNL     1      -0.556  11.417  21.778  0.00  0.00    +0.000 N 
ENDROOT
BRANCH   2  10
ATOM     10  C   UNL     1      -2.530  13.878  23.583  0.00  0.00    +0.000 A 
ATOM     11  C   UNL     1      -3.884  14.112  23.305  0.00  0.00    +0.000 A 
ATOM     12  C   UNL     1      -4.545  15.234  23.815  0.00  0.00    +0.000 A 
ATOM     13  C   UNL     1      -3.862  16.120  24.641  0.00  0.00    +0.000 A 
ATOM     14 CL   UNL     1      -4.673  17.504  25.262  0.00  0.00    +0.000 Cl
ATOM     15  C   UNL     1      -2.529  15.887  24.968  0.00  0.00    +0.000 A 
ATOM     16  C   UNL     1      -1.868  14.770  24.441  0.00  0.00    +0.000 A 
ENDBRANCH   2  10
BRANCH   7  17
ATOM     17  C   UNL     1       1.372   8.882  19.865  0.00  0.00    +0.000 A 
ATOM     18  C   UNL     1       1.512   9.514  18.623  0.00  0.00    +0.000 A 
ATOM     19  C   UNL     1       2.204   8.882  17.589  0.00  0.00    +0.000 A 
ATOM     20  C   UNL     1       2.761   7.618  17.787  0.00  0.00    +0.000 A 
ATOM     21  C   UNL     1       2.631   6.971  19.020  0.00  0.00    +0.000 A 
ATOM     22  C   UNL     1       3.223   5.610  19.247  0.00  0.00    +0.000 C 
ATOM     23  C   UNL     1       1.942   7.612  20.054  0.00  0.00    +0.000 A 
ENDBRANCH   7  17
BRANCH   1  24
ATOM     24  C   UNL     1      -0.979  13.654  20.688  0.00  0.00    +0.000 C 
BRANCH  24  31
ATOM     25  C   UNL     1       3.306  16.063  17.510  0.00  0.00    +0.000 C 
ATOM     26  C   UNL     1       3.332  15.098  18.666  0.00  0.00    +0.000 C 
ATOM     27  O   UNL     1       4.393  14.588  19.024  0.00  0.00    +0.000 OA
ATOM     28  N   UNL     1       2.131  14.862  19.307  0.00  0.00    +0.000 N 
ATOM     29  C   UNL     1       2.111  14.000  20.493  0.00  0.00    +0.000 C 
ATOM     30  C   UNL     1       1.143  14.535  21.566  0.00  0.00    +0.000 C 
ATOM     31  N   UNL     1      -0.217  14.849  21.067  0.00  0.00    +0.000 NA
ATOM     32  C   UNL     1      -0.093  15.777  19.922  0.00  0.00    +0.000 C 
ATOM     33  C   UNL     1       0.815  15.253  18.792  0.00  0.00    +0.000 C 
ENDBRANCH  24  31
ENDBRANCH   1  24
TORSDOF 4
ENDMDL
MODEL 3
REMARK VINA RESULT:      -7.9      1.038      1.134
REMARK  Name = 
REMARK  6 active torsions:
REMARK  status: ('A' for Active; 'I' for Inactive)
REMARK    1  A    between atoms: C_1  and  C_2
REMARK    2  A    between atoms: N_7  and  C_8
REMARK    3  A    between atoms: C_8  and  C_9
REMARK    4  A    between atoms: C_10  and  C_11
REMARK    5  A    between atoms: C_22  and  C_23
REMARK    6  A    between atoms: C_27  and  C_28
REMARK                            x       y       z     vdW  Elec       q    Type
REMARK                         _______ _______ _______ _____ _____    ______ ____
ROOT
ATOM      1  C   UNL     1      -0.543  12.817  21.642  0.00  0.00    +0.000 A 
ATOM      2  C   UNL     1      -1.299  13.001  22.795  0.00  0.00    +0.000 A 
ATOM      3  N   UNL     1      -1.407  11.821  23.502  0.00  0.00    +0.000 NA
ATOM      4  C   UNL     1      -0.762  10.920  22.797  0.00  0.00    +0.000 A 
ATOM      5  C   UNL     1      -0.578   9.524  23.008  0.00  0.00    +0.000 A 
ATOM      6  C   UNL     1       0.131   8.795  22.123  0.00  0.00    +0.000 A 
ATOM      7  C   UNL     1       0.737   9.400  20.941  0.00  0.00    +0.000 A 
ATOM      8  C   UNL     1       0.568  10.724  20.752  0.00  0.00    +0.000 A 
ATOM      9  N   UNL     1      -0.188  11.475  21.659  0.00  0.00    +0.000 N 
ENDROOT
BRANCH   2  10
ATOM     10  C   UNL     1      -1.890  14.242  23.289  0.00  0.00    +0.000 A 
ATOM     11  C   UNL     1      -1.307  15.005  24.311  0.00  0.00    +0.000 A 
ATOM     12  C   UNL     1      -1.928  16.162  24.793  0.00  0.00    +0.000 A 
ATOM     13  C   UNL     1      -3.127  16.587  24.233  0.00  0.00    +0.000 A 
ATOM     14 CL   UNL     1      -3.894  18.005  24.833  0.00  0.00    +0.000 Cl
ATOM     15  C   UNL     1      -3.705  15.871  23.188  0.00  0.00    +0.000 A 
ATOM     16  C   UNL     1      -3.086  14.704  22.719  0.00  0.00    +0.000 A 
ENDBRANCH   2  10
BRANCH   7  17
ATOM     17  C   UNL     1       1.468   8.642  19.916  0.00  0.00    +0.000 A 
ATOM     18  C   UNL     1       1.602   9.134  18.612  0.00  0.00    +0.000 A 
ATOM     19  C   UNL     1       2.279   8.385  17.647  0.00  0.00    +0.000 A 
ATOM     20  C   UNL     1       2.824   7.145  17.977  0.00  0.00    +0.000 A 
ATOM     21  C   UNL     1       2.701   6.638  19.274  0.00  0.00    +0.000 A 
ATOM     22  C   UNL     1       3.282   5.304  19.643  0.00  0.00    +0.000 C 
ATOM     23  C   UNL     1       2.028   7.394  20.238  0.00  0.00    +0.000 A 
ENDBRANCH   7  17
BRANCH   1  24
ATOM     24  C   UNL     1      -0.140  13.741  20.547  0.00  0.00    +0.000 C 
BRANCH  24  31
ATOM     25  C   UNL     1       0.756  18.466  17.210  0.00  0.00    +0.000 C 
ATOM     26  C   UNL     1       1.698  17.416  17.741  0.00  0.00    +0.000 C 
ATOM     27  O   UNL     1       2.876  17.405  17.389  0.00  0.00    +0.000 OA
ATOM     28  N   UNL     1       1.177  16.519  18.655  0.00  0.00    +0.000 N 
ATOM     29  C   UNL     1       2.068  15.532  19.271  0.00  0.00    +0.000 C 
ATOM     30  C   UNL     1       1.734  15.320  20.761  0.00  0.00    +0.000 C 
ATOM     31  N   UNL     1       0.303  15.050  21.039  0.00  0.00    +0.000 NA
ATOM     32  C   UNL     1      -0.503  16.135  20.440  0.00  0.00    +0.000 C 
ATOM     33  C   UNL     1      -0.251  16.340  18.933  0.00  0.00    +0.000 C 
ENDBRANCH  24  31
ENDBRANCH   1  24
TORSDOF 4
ENDMDL
MODEL 4
REMARK VINA RESULT:      -7.7      1.220      1.517
REMARK  Name = 
REMARK  6 active torsions:
REMARK  status: ('A' for Active; 'I' for Inactive)
REMARK    1  A    between atoms: C_1  and  C_2
REMARK    2  A    between atoms: N_7  and  C_8
REMARK    3  A    between atoms: C_8  and  C_9
REMARK    4  A    between atoms: C_10  and  C_11
REMARK    5  A    between atoms: C_22  and  C_23
REMARK    6  A    between atoms: C_27  and  C_28
REMARK                            x       y       z     vdW  Elec       q    Type
REMARK                         _______ _______ _______ _____ _____    ______ ____
ROOT
ATOM      1  C   UNL     1      -0.107  12.536  21.882  0.00  0.00    +0.000 A 
ATOM      2  C   UNL     1      -1.043  12.675  22.902  0.00  0.00    +0.000 A 
ATOM      3  N   UNL     1      -1.445  11.440  23.368  0.00  0.00    +0.000 NA
ATOM      4  C   UNL     1      -0.800  10.555  22.642  0.00  0.00    +0.000 A 
ATOM      5  C   UNL     1      -0.851   9.133  22.641  0.00  0.00    +0.000 A 
ATOM      6  C   UNL     1      -0.086   8.430  21.781  0.00  0.00    +0.000 A 
ATOM      7  C   UNL     1       0.816   9.090  20.841  0.00  0.00    +0.000 A 
ATOM      8  C   UNL     1       0.866  10.438  20.854  0.00  0.00    +0.000 A 
ATOM      9  N   UNL     1       0.055  11.165  21.732  0.00  0.00    +0.000 N 
ENDROOT
BRANCH   2  10
ATOM     10  C   UNL     1      -1.548  13.913  23.490  0.00  0.00    +0.000 A 
ATOM     11  C   UNL     1      -0.723  15.013  23.766  0.00  0.00    +0.000 A 
ATOM     12  C   UNL     1      -1.232  16.163  24.377  0.00  0.00    +0.000 A 
ATOM     13  C   UNL     1      -2.584  16.239  24.688  0.00  0.00    +0.000 A 
ATOM     14 CL   UNL     1      -3.208  17.651  25.447  0.00  0.00    +0.000 Cl
ATOM     15  C   UNL     1      -3.433  15.177  24.386  0.00  0.00    +0.000 A 
ATOM     16  C   UNL     1      -2.915  14.021  23.788  0.00  0.00    +0.000 A 
ENDBRANCH   2  10
BRANCH   7  17
ATOM     17  C   UNL     1       1.626   8.377  19.844  0.00  0.00    +0.000 A 
ATOM     18  C   UNL     1       1.814   8.899  18.558  0.00  0.00    +0.000 A 
ATOM     19  C   UNL     1       2.566   8.192  17.619  0.00  0.00    +0.000 A 
ATOM     20  C   UNL     1       3.133   6.963  17.955  0.00  0.00    +0.000 A 
ATOM     21  C   UNL     1       2.957   6.426  19.234  0.00  0.00    +0.000 A 
ATOM     22  C   UNL     1       3.560   5.104  19.610  0.00  0.00    +0.000 C 
ATOM     23  C   UNL     1       2.208   7.142  20.173  0.00  0.00    +0.000 A 
ENDBRANCH   7  17
BRANCH   1  24
ATOM     24  C   UNL     1       0.623  13.528  21.046  0.00  0.00    +0.000 C 
BRANCH  24  31
ATOM     25  C   UNL     1       2.553  17.222  16.936  0.00  0.00    +0.000 C 
ATOM     26  C   UNL     1       1.703  17.436  18.162  0.00  0.00    +0.000 C 
ATOM     27  O   UNL     1       1.383  18.573  18.505  0.00  0.00    +0.000 OA
ATOM     28  N   UNL     1       1.283  16.303  18.833  0.00  0.00    +0.000 N 
ATOM     29  C   UNL     1       0.383  16.445  19.981  0.00  0.00    +0.000 C 
ATOM     30  C   UNL     1      -0.684  15.333  20.006  0.00  0.00    +0.000 C 
ATOM     31  N   UNL     1      -0.144  13.959  19.872  0.00  0.00    +0.000 NA
ATOM     32  C   UNL     1       0.689  13.900  18.652  0.00  0.00    +0.000 C 
ATOM     33  C   UNL     1       1.814  14.954  18.613  0.00  0.00    +0.000 C 
ENDBRANCH  24  31
ENDBRANCH   1  24
TORSDOF 4
ENDMDL
MODEL 5
REMARK VINA RESULT:      -7.5      1.235      1.757
REMARK  Name = 
REMARK  6 active torsions:
REMARK  status: ('A' for Active; 'I' for Inactive)
REMARK    1  A    between atoms: C_1  and  C_2
REMARK    2  A    between atoms: N_7  and  C_8
REMARK    3  A    between atoms: C_8  and  C_9
REMARK    4  A    between atoms: C_10  and  C_11
REMARK    5  A    between atoms: C_22  and  C_23
REMARK    6  A    between atoms: C_27  and  C_28
REMARK                            x       y       z     vdW  Elec       q    Type
REMARK                         _______ _______ _______ _____ _____    ______ ____
ROOT
ATOM      1  C   UNL     1      -0.468  12.225  21.418  0.00  0.00    +0.000 A 
ATOM      2  C   UNL     1      -1.248  12.381  22.560  0.00  0.00    +0.000 A 
ATOM      3  N   UNL     1      -1.307  11.204  23.276  0.00  0.00    +0.000 NA
ATOM      4  C   UNL     1      -0.609  10.330  22.588  0.00  0.00    +0.000 A 
ATOM      5  C   UNL     1      -0.360   8.946  22.814  0.00  0.00    +0.000 A 
ATOM      6  C   UNL     1       0.396   8.245  21.945  0.00  0.00    +0.000 A 
ATOM      7  C   UNL     1       0.987   8.869  20.765  0.00  0.00    +0.000 A 
ATOM      8  C   UNL     1       0.756  10.182  20.561  0.00  0.00    +0.000 A 
ATOM      9  N   UNL     1      -0.048  10.903  21.452  0.00  0.00    +0.000 N 
ENDROOT
BRANCH   2  10
ATOM     10  C   UNL     1      -1.905  13.596  23.035  0.00  0.00    +0.000 A 
ATOM     11  C   UNL     1      -3.236  13.909  22.725  0.00  0.00    +0.000 A 
ATOM     12  C   UNL     1      -3.818  15.106  23.155  0.00  0.00    +0.000 A 
ATOM     13  C   UNL     1      -3.080  15.991  23.932  0.00  0.00    +0.000 A 
ATOM     14 CL   UNL     1      -3.793  17.467  24.453  0.00  0.00    +0.000 Cl
ATOM     15  C   UNL     1      -1.770  15.684  24.291  0.00  0.00    +0.000 A 
ATOM     16  C   UNL     1      -1.188  14.491  23.844  0.00  0.00    +0.000 A 
ENDBRANCH   2  10
BRANCH   7  17
ATOM     17  C   UNL     1       1.767   8.140  19.755  0.00  0.00    +0.000 A 
ATOM     18  C   UNL     1       2.042   8.707  18.505  0.00  0.00    +0.000 A 
ATOM     19  C   UNL     1       2.763   7.985  17.552  0.00  0.00    +0.000 A 
ATOM     20  C   UNL     1       3.214   6.698  17.840  0.00  0.00    +0.000 A 
ATOM     21  C   UNL     1       2.950   6.115  19.084  0.00  0.00    +0.000 A 
ATOM     22  C   UNL     1       3.428   4.730  19.408  0.00  0.00    +0.000 C 
ATOM     23  C   UNL     1       2.233   6.845  20.037  0.00  0.00    +0.000 A 
ENDBRANCH   7  17
BRANCH   1  24
ATOM     24  C   UNL     1      -0.097  13.159  20.320  0.00  0.00    +0.000 C 
BRANCH  24  31
ATOM     25  C   UNL     1       1.937  18.631  20.741  0.00  0.00    +0.000 C 
ATOM     26  C   UNL     1       1.703  17.734  19.554  0.00  0.00    +0.000 C 
ATOM     27  O   UNL     1       1.843  18.167  18.411  0.00  0.00    +0.000 OA
ATOM     28  N   UNL     1       1.371  16.419  19.823  0.00  0.00    +0.000 N 
ATOM     29  C   UNL     1       1.218  15.479  18.710  0.00  0.00    +0.000 C 
ATOM     30  C   UNL     1       1.795  14.092  19.055  0.00  0.00    +0.000 C 
ATOM     31  N   UNL     1       1.321  13.532  20.343  0.00  0.00    +0.000 NA
ATOM     32  C   UNL     1       1.585  14.522  21.409  0.00  0.00    +0.000 C 
ATOM     33  C   UNL     1       0.969  15.909  21.138  0.00  0.00    +0.000 C 
ENDBRANCH  24  31
ENDBRANCH   1  24
TORSDOF 4
ENDMDL
MODEL 6
REMARK VINA RESULT:      -7.4      0.968      1.231
REMARK  Name = 
REMARK  6 active torsions:
REMARK  status: ('A' for Active; 'I' for Inactive)
REMARK    1  A    between atoms: C_1  and  C_2
REMARK    2  A    between atoms: N_7  and  C_8
REMARK    3  A    between atoms: C_8  and  C_9
REMARK    4  A    between atoms: C_10  and  C_11
REMARK    5  A    between atoms: C_22  and  C_23
REMARK    6  A    between atoms: C_27  and  C_28
REMARK                            x       y       z     vdW  Elec       q    Type
REMARK                         _______ _______ _______ _____ _____    ______ ____
ROOT
ATOM      1  C   UNL     1      -0.402  12.559  21.781  0.00  0.00    +0.000 A 
ATOM      2  C   UNL     1      -1.223  12.681  22.898  0.00  0.00    +0.000 A 
ATOM      3  N   UNL     1      -1.412  11.456  23.502  0.00  0.00    +0.000 NA
ATOM      4  C   UNL     1      -0.751  10.589  22.769  0.00  0.00    +0.000 A 
ATOM      5  C   UNL     1      -0.625   9.175  22.882  0.00  0.00    +0.000 A 
ATOM      6  C   UNL     1       0.116   8.490  21.987  0.00  0.00    +0.000 A 
ATOM      7  C   UNL     1       0.813   9.162  20.894  0.00  0.00    +0.000 A 
ATOM      8  C   UNL     1       0.697  10.501  20.799  0.00  0.00    +0.000 A 
ATOM      9  N   UNL     1      -0.091  11.208  21.715  0.00  0.00    +0.000 N 
ENDROOT
BRANCH   2  10
ATOM     10  C   UNL     1      -1.806  13.901  23.450  0.00  0.00    +0.000 A 
ATOM     11  C   UNL     1      -1.046  14.863  24.133  0.00  0.00    +0.000 A 
ATOM     12  C   UNL     1      -1.646  15.995  24.693  0.00  0.00    +0.000 A 
ATOM     13  C   UNL     1      -3.014  16.194  24.547  0.00  0.00    +0.000 A 
ATOM     14 CL   UNL     1      -3.753  17.583  25.243  0.00  0.00    +0.000 Cl
ATOM     15  C   UNL     1      -3.784  15.277  23.836  0.00  0.00    +0.000 A 
ATOM     16  C   UNL     1      -3.180  14.137  23.291  0.00  0.00    +0.000 A 
ENDBRANCH   2  10
BRANCH   7  17
ATOM     17  C   UNL     1       1.583   8.459  19.858  0.00  0.00    +0.000 A 
ATOM     18  C   UNL     1       1.759   9.015  18.585  0.00  0.00    +0.000 A 
ATOM     19  C   UNL     1       2.473   8.318  17.609  0.00  0.00    +0.000 A 
ATOM     20  C   UNL     1       3.014   7.065  17.896  0.00  0.00    +0.000 A 
ATOM     21  C   UNL     1       2.848   6.493  19.161  0.00  0.00    +0.000 A 
ATOM     22  C   UNL     1       3.423   5.144  19.484  0.00  0.00    +0.000 C 
ATOM     23  C   UNL     1       2.138   7.198  20.137  0.00  0.00    +0.000 A 
ENDBRANCH   7  17
BRANCH   1  24
ATOM     24  C   UNL     1       0.097  13.549  20.787  0.00  0.00    +0.000 C 
BRANCH  24  31
ATOM     25  C   UNL     1       4.522  17.333  20.192  0.00  0.00    +0.000 C 
ATOM     26  C   UNL     1       3.492  16.827  19.214  0.00  0.00    +0.000 C 
ATOM     27  O   UNL     1       3.423  17.306  18.083  0.00  0.00    +0.000 OA
ATOM     28  N   UNL     1       2.683  15.792  19.644  0.00  0.00    +0.000 N 
ATOM     29  C   UNL     1       1.724  15.201  18.707  0.00  0.00    +0.000 C 
ATOM     30  C   UNL     1       1.638  13.671  18.875  0.00  0.00    +0.000 C 
ATOM     31  N   UNL     1       1.428  13.215  20.269  0.00  0.00    +0.000 NA
ATOM     32  C   UNL     1       2.484  13.807  21.119  0.00  0.00    +0.000 C 
ATOM     33  C   UNL     1       2.564  15.344  21.035  0.00  0.00    +0.000 C 
ENDBRANCH  24  31
ENDBRANCH   1  24
TORSDOF 4
ENDMDL
MODEL 7
REMARK VINA RESULT:      -7.3      3.054      6.017
REMARK  Name = 
REMARK  6 active torsions:
REMARK  status: ('A' for Active; 'I' for Inactive)
REMARK    1  A    between atoms: C_1  and  C_2
REMARK    2  A    between atoms: N_7  and  C_8
REMARK    3  A    between atoms: C_8  and  C_9
REMARK    4  A    between atoms: C_10  and  C_11
REMARK    5  A    between atoms: C_22  and  C_23
REMARK    6  A    between atoms: C_27  and  C_28
REMARK                            x       y       z     vdW  Elec       q    Type
REMARK                         _______ _______ _______ _____ _____    ______ ____
ROOT
ATOM      1  C   UNL     1       1.506   9.976  19.843  0.00  0.00    +0.000 A 
ATOM      2  C   UNL     1       1.749  10.895  18.827  0.00  0.00    +0.000 A 
ATOM      3  N   UNL     1       2.234  10.263  17.701  0.00  0.00    +0.000 NA
ATOM      4  C   UNL     1       2.320   8.990  18.014  0.00  0.00    +0.000 A 
ATOM      5  C   UNL     1       2.797   7.875  17.268  0.00  0.00    +0.000 A 
ATOM      6  C   UNL     1       2.792   6.643  17.817  0.00  0.00    +0.000 A 
ATOM      7  C   UNL     1       2.296   6.408  19.170  0.00  0.00    +0.000 A 
ATOM      8  C   UNL     1       1.837   7.467  19.868  0.00  0.00    +0.000 A 
ATOM      9  N   UNL     1       1.864   8.748  19.304  0.00  0.00    +0.000 N 
ENDROOT
BRANCH   2  10
ATOM     10  C   UNL     1       1.505  12.335  18.846  0.00  0.00    +0.000 A 
ATOM     11  C   UNL     1       2.456  13.259  19.304  0.00  0.00    +0.000 A 
ATOM     12  C   UNL     1       2.169  14.627  19.356  0.00  0.00    +0.000 A 
ATOM     13  C   UNL     1       0.934  15.090  18.918  0.00  0.00    +0.000 A 
ATOM     14 CL   UNL     1       0.579  16.772  18.990  0.00  0.00    +0.000 Cl
ATOM     15  C   UNL     1      -0.012  14.199  18.418  0.00  0.00    +0.000 A 
ATOM     16  C   UNL     1       0.275  12.828  18.383  0.00  0.00    +0.000 A 
ENDBRANCH   2  10
BRANCH   7  17
ATOM     17  C   UNL     1       2.323   5.100  19.838  0.00  0.00    +0.000 A 
ATOM     18  C   UNL     1       1.277   4.692  20.673  0.00  0.00    +0.000 A 
ATOM     19  C   UNL     1       1.336   3.455  21.318  0.00  0.00    +0.000 A 
ATOM     20  C   UNL     1       2.437   2.619  21.132  0.00  0.00    +0.000 A 
ATOM     21  C   UNL     1       3.492   3.009  20.300  0.00  0.00    +0.000 A 
ATOM     22  C   UNL     1       4.684   2.121  20.092  0.00  0.00    +0.000 C 
ATOM     23  C   UNL     1       3.425   4.246  19.653  0.00  0.00    +0.000 A 
ENDBRANCH   7  17
BRANCH   1  24
ATOM     24  C   UNL     1       1.001  10.127  21.235  0.00  0.00    +0.000 C 
BRANCH  24  31
ATOM     25  C   UNL     1      -3.924  13.259  21.682  0.00  0.00    +0.000 C 
ATOM     26  C   UNL     1      -3.014  12.661  22.724  0.00  0.00    +0.000 C 
ATOM     27  O   UNL     1      -3.198  12.895  23.917  0.00  0.00    +0.000 OA
ATOM     28  N   UNL     1      -2.015  11.821  22.269  0.00  0.00    +0.000 N 
ATOM     29  C   UNL     1      -1.155  11.142  23.242  0.00  0.00    +0.000 C 
ATOM     30  C   UNL     1      -0.840   9.696  22.808  0.00  0.00    +0.000 C 
ATOM     31  N   UNL     1      -0.342   9.566  21.418  0.00  0.00    +0.000 NA
ATOM     32  C   UNL     1      -1.310  10.218  20.511  0.00  0.00    +0.000 C 
ATOM     33  C   UNL     1      -1.607  11.688  20.867  0.00  0.00    +0.000 C 
ENDBRANCH  24  31
ENDBRANCH   1  24
TORSDOF 4
ENDMDL
MODEL 8
REMARK VINA RESULT:      -7.3      1.841      3.048
REMARK  Name = 
REMARK  6 active torsions:
REMARK  status: ('A' for Active; 'I' for Inactive)
REMARK    1  A    between atoms: C_1  and  C_2
REMARK    2  A    between atoms: N_7  and  C_8
REMARK    3  A    between atoms: C_8  and  C_9
REMARK    4  A    between atoms: C_10  and  C_11
REMARK    5  A    between atoms: C_22  and  C_23
REMARK    6  A    between atoms: C_27  and  C_28
REMARK                            x       y       z     vdW  Elec       q    Type
REMARK                         _______ _______ _______ _____ _____    ______ ____
ROOT
ATOM      1  C   UNL     1       0.523  10.552  20.004  0.00  0.00    +0.000 A 
ATOM      2  C   UNL     1      -0.347  10.624  21.089  0.00  0.00    +0.000 A 
ATOM      3  N   UNL     1      -0.380   9.425  21.770  0.00  0.00    +0.000 NA
ATOM      4  C   UNL     1       0.423   8.618  21.114  0.00  0.00    +0.000 A 
ATOM      5  C   UNL     1       0.747   7.248  21.325  0.00  0.00    +0.000 A 
ATOM      6  C   UNL     1       1.609   6.623  20.499  0.00  0.00    +0.000 A 
ATOM      7  C   UNL     1       2.242   7.317  19.381  0.00  0.00    +0.000 A 
ATOM      8  C   UNL     1       1.939   8.618  19.193  0.00  0.00    +0.000 A 
ATOM      9  N   UNL     1       1.026   9.259  20.038  0.00  0.00    +0.000 N 
ENDROOT
BRANCH   2  10
ATOM     10  C   UNL     1      -1.117  11.780  21.542  0.00  0.00    +0.000 A 
ATOM     11  C   UNL     1      -2.077  12.414  20.740  0.00  0.00    +0.000 A 
ATOM     12  C   UNL     1      -2.759  13.549  21.189  0.00  0.00    +0.000 A 
ATOM     13  C   UNL     1      -2.510  14.045  22.463  0.00  0.00    +0.000 A 
ATOM     14 CL   UNL     1      -3.343  15.447  23.011  0.00  0.00    +0.000 Cl
ATOM     15  C   UNL     1      -1.593  13.409  23.296  0.00  0.00    +0.000 A 
ATOM     16  C   UNL     1      -0.901  12.281  22.835  0.00  0.00    +0.000 A 
ENDBRANCH   2  10
BRANCH   7  17
ATOM     17  C   UNL     1       3.140   6.670  18.416  0.00  0.00    +0.000 A 
ATOM     18  C   UNL     1       3.913   7.426  17.526  0.00  0.00    +0.000 A 
ATOM     19  C   UNL     1       4.740   6.788  16.600  0.00  0.00    +0.000 A 
ATOM     20  C   UNL     1       4.802   5.396  16.557  0.00  0.00    +0.000 A 
ATOM     21  C   UNL     1       4.038   4.623  17.438  0.00  0.00    +0.000 A 
ATOM     22  C   UNL     1       4.094   3.124  17.402  0.00  0.00    +0.000 C 
ATOM     23  C   UNL     1       3.216   5.267  18.367  0.00  0.00    +0.000 A 
ENDBRANCH   7  17
BRANCH   1  24
ATOM     24  C   UNL     1       0.910  11.539  18.959  0.00  0.00    +0.000 C 
BRANCH  24  31
ATOM     25  C   UNL     1       1.516  17.225  20.209  0.00  0.00    +0.000 C 
ATOM     26  C   UNL     1       1.668  16.456  18.922  0.00  0.00    +0.000 C 
ATOM     27  O   UNL     1       1.860  17.051  17.863  0.00  0.00    +0.000 OA
ATOM     28  N   UNL     1       1.622  15.078  19.012  0.00  0.00    +0.000 N 
ATOM     29  C   UNL     1       1.852  14.276  17.807  0.00  0.00    +0.000 C 
ATOM     30  C   UNL     1       2.686  13.016  18.115  0.00  0.00    +0.000 C 
ATOM     31  N   UNL     1       2.183  12.207  19.251  0.00  0.00    +0.000 NA
ATOM     32  C   UNL     1       2.054  13.088  20.431  0.00  0.00    +0.000 C 
ATOM     33  C   UNL     1       1.172  14.329  20.190  0.00  0.00    +0.000 C 
ENDBRANCH  24  31
ENDBRANCH   1  24
TORSDOF 4
ENDMDL
MODEL 9
REMARK VINA RESULT:      -7.1      1.593      1.961
REMARK  Name = 
REMARK  6 active torsions:
REMARK  status: ('A' for Active; 'I' for Inactive)
REMARK    1  A    between atoms: C_1  and  C_2
REMARK    2  A    between atoms: N_7  and  C_8
REMARK    3  A    between atoms: C_8  and  C_9
REMARK    4  A    between atoms: C_10  and  C_11
REMARK    5  A    between atoms: C_22  and  C_23
REMARK    6  A    between atoms: C_27  and  C_28
REMARK                            x       y       z     vdW  Elec       q    Type
REMARK                         _______ _______ _______ _____ _____    ______ ____
ROOT
ATOM      1  C   UNL     1       0.168  12.389  21.062  0.00  0.00    +0.000 A 
ATOM      2  C   UNL     1      -0.574  12.909  22.118  0.00  0.00    +0.000 A 
ATOM      3  N   UNL     1      -0.879  11.922  23.033  0.00  0.00    +0.000 NA
ATOM      4  C   UNL     1      -0.368  10.813  22.550  0.00  0.00    +0.000 A 
ATOM      5  C   UNL     1      -0.409   9.476  23.035  0.00  0.00    +0.000 A 
ATOM      6  C   UNL     1       0.197   8.488  22.346  0.00  0.00    +0.000 A 
ATOM      7  C   UNL     1       0.914   8.749  21.101  0.00  0.00    +0.000 A 
ATOM      8  C   UNL     1       0.957  10.019  20.652  0.00  0.00    +0.000 A 
ATOM      9  N   UNL     1       0.309  11.039  21.357  0.00  0.00    +0.000 N 
ENDROOT
BRANCH   2  10
ATOM     10  C   UNL     1      -0.974  14.297  22.332  0.00  0.00    +0.000 A 
ATOM     11  C   UNL     1      -0.942  14.910  23.593  0.00  0.00    +0.000 A 
ATOM     12  C   UNL     1      -1.381  16.226  23.769  0.00  0.00    +0.000 A 
ATOM     13  C   UNL     1      -1.827  16.957  22.674  0.00  0.00    +0.000 A 
ATOM     14 CL   UNL     1      -2.375  18.573  22.892  0.00  0.00    +0.000 Cl
ATOM     15  C   UNL     1      -1.828  16.386  21.404  0.00  0.00    +0.000 A 
ATOM     16  C   UNL     1      -1.402  15.062  21.236  0.00  0.00    +0.000 A 
ENDBRANCH   2  10
BRANCH   7  17
ATOM     17  C   UNL     1       1.538   7.703  20.280  0.00  0.00    +0.000 A 
ATOM     18  C   UNL     1       2.054   7.991  19.011  0.00  0.00    +0.000 A 
ATOM     19  C   UNL     1       2.620   6.975  18.238  0.00  0.00    +0.000 A 
ATOM     20  C   UNL     1       2.676   5.670  18.726  0.00  0.00    +0.000 A 
ATOM     21  C   UNL     1       2.166   5.363  19.992  0.00  0.00    +0.000 A 
ATOM     22  C   UNL     1       2.218   3.962  20.529  0.00  0.00    +0.000 C 
ATOM     23  C   UNL     1       1.606   6.385  20.764  0.00  0.00    +0.000 A 
ENDBRANCH   7  17
BRANCH   1  24
ATOM     24  C   UNL     1       0.733  13.006  19.831  0.00  0.00    +0.000 C 
BRANCH  24  31
ATOM     25  C   UNL     1       4.385  17.530  20.505  0.00  0.00    +0.000 C 
ATOM     26  C   UNL     1       3.824  16.866  19.275  0.00  0.00    +0.000 C 
ATOM     27  O   UNL     1       4.034  17.343  18.161  0.00  0.00    +0.000 OA
ATOM     28  N   UNL     1       3.114  15.695  19.470  0.00  0.00    +0.000 N 
ATOM     29  C   UNL     1       2.620  14.958  18.303  0.00  0.00    +0.000 C 
ATOM     30  C   UNL     1       2.754  13.435  18.497  0.00  0.00    +0.000 C 
ATOM     31  N   UNL     1       2.197  12.925  19.772  0.00  0.00    +0.000 NA
ATOM     32  C   UNL     1       2.808  13.681  20.886  0.00  0.00    +0.000 C 
ATOM     33  C   UNL     1       2.641  15.209  20.769  0.00  0.00    +0.000 C 
ENDBRANCH  24  31
ENDBRANCH   1  24
TORSDOF 4
ENDMDL
