MODEL 1
REMARK VINA RESULT:      -8.8      0.000      0.000
REMARK  Name = 
REMARK  3 active torsions:
REMARK  status: ('A' for Active; 'I' for Inactive)
REMARK    1  A    between atoms: C_2  and  O_3
REMARK    2  A    between atoms: C_2  and  C_10
REMARK    3  A    between atoms: O_3  and  C_4
REMARK                            x       y       z     vdW  Elec       q    Type
REMARK                         _______ _______ _______ _____ _____    ______ ____
ROOT
ATOM      1  C   UNL     1       5.877   4.630  16.929  0.00  0.00    +0.000 A 
ATOM      2  C   UNL     1       5.266   4.098  15.854  0.00  0.00    +0.000 A 
ATOM      3  C   UNL     1       5.880   4.194  14.540  0.00  0.00    +0.000 A 
ATOM      4  C   UNL     1       5.462   3.410  13.464  0.00  0.00    +0.000 A 
ATOM      5  C   UNL     1       6.153   3.467  12.249  0.00  0.00    +0.000 A 
ATOM      6  C   UNL     1       7.238   4.330  12.093  0.00  0.00    +0.000 A 
ATOM      7  C   UNL     1       7.652   5.124  13.158  0.00  0.00    +0.000 A 
ATOM      8  C   UNL     1       6.979   5.027  14.374  0.00  0.00    +0.000 A 
ATOM      9  O   UNL     1       7.501   5.740  15.462  0.00  0.00    +0.000 OA
ATOM     10  C   UNL     1       7.108   5.448  16.767  0.00  0.00    +0.000 A 
ATOM     11  O   UNL     1       7.768   5.883  17.700  0.00  0.00    +0.000 OA
ENDROOT
BRANCH   1  13
ATOM     12  O   UNL     1       5.958   4.223  19.292  0.00  0.00    +0.000 OA
ATOM     13  C   UNL     1       5.333   4.202  18.246  0.00  0.00    +0.000 C 
BRANCH  13  14
ATOM     14  O   UNL     1       4.010   3.956  18.151  0.00  0.00    +0.000 OA
BRANCH  14  15
ATOM     15  C   UNL     1       3.112   5.079  18.255  0.00  0.00    +0.000 C 
ATOM     16  C   UNL     1       1.763   4.581  17.735  0.00  0.00    +0.000 C 
ATOM     17  C   UNL     1       1.183   3.474  18.622  0.00  0.00    +0.000 C 
ATOM     18  C   UNL     1       1.107   3.893  20.087  0.00  0.00    +0.000 C 
ATOM     19  C   UNL     1       2.430   4.453  20.608  0.00  0.00    +0.000 C 
ATOM     20  C   UNL     1       2.974   5.553  19.699  0.00  0.00    +0.000 C 
ENDBRANCH  14  15
ENDBRANCH  13  14
ENDBRANCH   1  13
TORSDOF 3
ENDMDL
MODEL 2
REMARK VINA RESULT:      -8.7      0.699      1.015
REMARK  Name = 
REMARK  3 active torsions:
REMARK  status: ('A' for Active; 'I' for Inactive)
REMARK    1  A    between atoms: C_2  and  O_3
REMARK    2  A    between atoms: C_2  and  C_10
REMARK    3  A    between atoms: O_3  and  C_4
REMARK                            x       y       z     vdW  Elec       q    Type
REMARK                         _______ _______ _______ _____ _____    ______ ____
ROOT
ATOM      1  C   UNL     1       6.002   4.691  16.945  0.00  0.00    +0.000 A 
ATOM      2  C   UNL     1       5.370   4.120  15.903  0.00  0.00    +0.000 A 
ATOM      3  C   UNL     1       5.937   4.203  14.567  0.00  0.00    +0.000 A 
ATOM      4  C   UNL     1       5.505   3.385  13.523  0.00  0.00    +0.000 A 
ATOM      5  C   UNL     1       6.152   3.433  12.284  0.00  0.00    +0.000 A 
ATOM      6  C   UNL     1       7.209   4.321  12.073  0.00  0.00    +0.000 A 
ATOM      7  C   UNL     1       7.637   5.148  13.107  0.00  0.00    +0.000 A 
ATOM      8  C   UNL     1       7.008   5.060  14.346  0.00  0.00    +0.000 A 
ATOM      9  O   UNL     1       7.547   5.810  15.401  0.00  0.00    +0.000 OA
ATOM     10  C   UNL     1       7.205   5.536  16.725  0.00  0.00    +0.000 A 
ATOM     11  O   UNL     1       7.884   6.009  17.626  0.00  0.00    +0.000 OA
ENDROOT
BRANCH   1  13
ATOM     12  O   UNL     1       6.150   4.396  19.322  0.00  0.00    +0.000 OA
ATOM     13  C   UNL     1       5.514   4.278  18.289  0.00  0.00    +0.000 C 
BRANCH  13  14
ATOM     14  O   UNL     1       4.214   3.920  18.227  0.00  0.00    +0.000 OA
BRANCH  14  15
ATOM     15  C   UNL     1       3.353   4.343  19.303  0.00  0.00    +0.000 C 
ATOM     16  C   UNL     1       2.146   5.002  18.632  0.00  0.00    +0.000 C 
ATOM     17  C   UNL     1       1.342   4.000  17.795  0.00  0.00    +0.000 C 
ATOM     18  C   UNL     1       0.941   2.769  18.603  0.00  0.00    +0.000 C 
ATOM     19  C   UNL     1       2.124   2.133  19.332  0.00  0.00    +0.000 C 
ATOM     20  C   UNL     1       2.898   3.161  20.154  0.00  0.00    +0.000 C 
ENDBRANCH  14  15
ENDBRANCH  13  14
ENDBRANCH   1  13
TORSDOF 3
ENDMDL
MODEL 3
REMARK VINA RESULT:      -8.6      0.806      1.487
REMARK  Name = 
REMARK  3 active torsions:
REMARK  status: ('A' for Active; 'I' for Inactive)
REMARK    1  A    between atoms: C_2  and  O_3
REMARK    2  A    between atoms: C_2  and  C_10
REMARK    3  A    between atoms: O_3  and  C_4
REMARK                            x       y       z     vdW  Elec       q    Type
REMARK                         _______ _______ _______ _____ _____    ______ ____
ROOT
ATOM      1  C   UNL     1       5.946   4.665  16.932  0.00  0.00    +0.000 A 
ATOM      2  C   UNL     1       5.327   4.095  15.881  0.00  0.00    +0.000 A 
ATOM      3  C   UNL     1       5.908   4.185  14.552  0.00  0.00    +0.000 A 
ATOM      4  C   UNL     1       5.489   3.369  13.500  0.00  0.00    +0.000 A 
ATOM      5  C   UNL     1       6.150   3.423  12.268  0.00  0.00    +0.000 A 
ATOM      6  C   UNL     1       7.207   4.313  12.072  0.00  0.00    +0.000 A 
ATOM      7  C   UNL     1       7.621   5.139  13.114  0.00  0.00    +0.000 A 
ATOM      8  C   UNL     1       6.979   5.044  14.346  0.00  0.00    +0.000 A 
ATOM      9  O   UNL     1       7.505   5.792  15.409  0.00  0.00    +0.000 OA
ATOM     10  C   UNL     1       7.149   5.513  16.728  0.00  0.00    +0.000 A 
ATOM     11  O   UNL     1       7.817   5.984  17.638  0.00  0.00    +0.000 OA
ENDROOT
BRANCH   1  13
ATOM     12  O   UNL     1       6.114   4.233  19.287  0.00  0.00    +0.000 OA
ATOM     13  C   UNL     1       5.443   4.246  18.269  0.00  0.00    +0.000 C 
BRANCH  13  14
ATOM     14  O   UNL     1       4.109   4.050  18.230  0.00  0.00    +0.000 OA
BRANCH  14  15
ATOM     15  C   UNL     1       3.614   2.745  18.590  0.00  0.00    +0.000 C 
ATOM     16  C   UNL     1       3.408   2.784  20.105  0.00  0.00    +0.000 C 
ATOM     17  C   UNL     1       2.323   3.790  20.507  0.00  0.00    +0.000 C 
ATOM     18  C   UNL     1       1.014   3.550  19.762  0.00  0.00    +0.000 C 
ATOM     19  C   UNL     1       1.208   3.445  18.250  0.00  0.00    +0.000 C 
ATOM     20  C   UNL     1       2.294   2.434  17.890  0.00  0.00    +0.000 C 
ENDBRANCH  14  15
ENDBRANCH  13  14
ENDBRANCH   1  13
TORSDOF 3
ENDMDL
MODEL 4
REMARK VINA RESULT:      -8.4      0.913      1.239
REMARK  Name = 
REMARK  3 active torsions:
REMARK  status: ('A' for Active; 'I' for Inactive)
REMARK    1  A    between atoms: C_2  and  O_3
REMARK    2  A    between atoms: C_2  and  C_10
REMARK    3  A    between atoms: O_3  and  C_4
REMARK                            x       y       z     vdW  Elec       q    Type
REMARK                         _______ _______ _______ _____ _____    ______ ____
ROOT
ATOM      1  C   UNL     1       5.778   4.824  16.823  0.00  0.00    +0.000 A 
ATOM      2  C   UNL     1       5.144   4.296  15.760  0.00  0.00    +0.000 A 
ATOM      3  C   UNL     1       5.789   4.277  14.458  0.00  0.00    +0.000 A 
ATOM      4  C   UNL     1       5.325   3.481  13.409  0.00  0.00    +0.000 A 
ATOM      5  C   UNL     1       6.040   3.421  12.209  0.00  0.00    +0.000 A 
ATOM      6  C   UNL     1       7.199   4.180  12.039  0.00  0.00    +0.000 A 
ATOM      7  C   UNL     1       7.660   4.986  13.076  0.00  0.00    +0.000 A 
ATOM      8  C   UNL     1       6.959   5.003  14.279  0.00  0.00    +0.000 A 
ATOM      9  O   UNL     1       7.520   5.720  15.345  0.00  0.00    +0.000 OA
ATOM     10  C   UNL     1       7.078   5.525  16.653  0.00  0.00    +0.000 A 
ATOM     11  O   UNL     1       7.755   5.945  17.580  0.00  0.00    +0.000 OA
ENDROOT
BRANCH   1  13
ATOM     12  O   UNL     1       5.474   3.544  18.830  0.00  0.00    +0.000 OA
ATOM     13  C   UNL     1       5.174   4.507  18.146  0.00  0.00    +0.000 C 
BRANCH  13  14
ATOM     14  O   UNL     1       4.381   5.519  18.556  0.00  0.00    +0.000 OA
BRANCH  14  15
ATOM     15  C   UNL     1       3.043   5.577  18.023  0.00  0.00    +0.000 C 
ATOM     16  C   UNL     1       2.247   4.517  18.785  0.00  0.00    +0.000 C 
ATOM     17  C   UNL     1       2.138   4.849  20.278  0.00  0.00    +0.000 C 
ATOM     18  C   UNL     1       1.588   6.252  20.515  0.00  0.00    +0.000 C 
ATOM     19  C   UNL     1       2.330   7.319  19.712  0.00  0.00    +0.000 C 
ATOM     20  C   UNL     1       2.416   6.953  18.232  0.00  0.00    +0.000 C 
ENDBRANCH  14  15
ENDBRANCH  13  14
ENDBRANCH   1  13
TORSDOF 3
ENDMDL
MODEL 5
REMARK VINA RESULT:      -8.0      0.935      1.067
REMARK  Name = 
REMARK  3 active torsions:
REMARK  status: ('A' for Active; 'I' for Inactive)
REMARK    1  A    between atoms: C_2  and  O_3
REMARK    2  A    between atoms: C_2  and  C_10
REMARK    3  A    between atoms: O_3  and  C_4
REMARK                            x       y       z     vdW  Elec       q    Type
REMARK                         _______ _______ _______ _____ _____    ______ ____
ROOT
ATOM      1  C   UNL     1       5.665   5.044  16.736  0.00  0.00    +0.000 A 
ATOM      2  C   UNL     1       5.000   4.525  15.687  0.00  0.00    +0.000 A 
ATOM      3  C   UNL     1       5.666   4.364  14.405  0.00  0.00    +0.000 A 
ATOM      4  C   UNL     1       5.142   3.563  13.390  0.00  0.00    +0.000 A 
ATOM      5  C   UNL     1       5.871   3.360  12.214  0.00  0.00    +0.000 A 
ATOM      6  C   UNL     1       7.108   3.982  12.033  0.00  0.00    +0.000 A 
ATOM      7  C   UNL     1       7.630   4.793  13.037  0.00  0.00    +0.000 A 
ATOM      8  C   UNL     1       6.910   4.953  14.218  0.00  0.00    +0.000 A 
ATOM      9  O   UNL     1       7.522   5.666  15.258  0.00  0.00    +0.000 OA
ATOM     10  C   UNL     1       7.035   5.594  16.563  0.00  0.00    +0.000 A 
ATOM     11  O   UNL     1       7.734   5.993  17.483  0.00  0.00    +0.000 OA
ENDROOT
BRANCH   1  13
ATOM     12  O   UNL     1       4.994   5.706  18.944  0.00  0.00    +0.000 OA
ATOM     13  C   UNL     1       5.004   4.868  18.058  0.00  0.00    +0.000 C 
BRANCH  13  14
ATOM     14  O   UNL     1       4.275   3.732  18.072  0.00  0.00    +0.000 OA
BRANCH  14  15
ATOM     15  C   UNL     1       2.959   3.776  17.485  0.00  0.00    +0.000 C 
ATOM     16  C   UNL     1       2.416   2.349  17.578  0.00  0.00    +0.000 C 
ATOM     17  C   UNL     1       2.233   1.902  19.032  0.00  0.00    +0.000 C 
ATOM     18  C   UNL     1       1.384   2.886  19.832  0.00  0.00    +0.000 C 
ATOM     19  C   UNL     1       1.872   4.327  19.701  0.00  0.00    +0.000 C 
ATOM     20  C   UNL     1       2.041   4.735  18.240  0.00  0.00    +0.000 C 
ENDBRANCH  14  15
ENDBRANCH  13  14
ENDBRANCH   1  13
TORSDOF 3
ENDMDL
MODEL 6
REMARK VINA RESULT:      -7.9      0.902      1.007
REMARK  Name = 
REMARK  3 active torsions:
REMARK  status: ('A' for Active; 'I' for Inactive)
REMARK    1  A    between atoms: C_2  and  O_3
REMARK    2  A    between atoms: C_2  and  C_10
REMARK    3  A    between atoms: O_3  and  C_4
REMARK                            x       y       z     vdW  Elec       q    Type
REMARK                         _______ _______ _______ _____ _____    ______ ____
ROOT
ATOM      1  C   UNL     1       5.920   4.741  17.402  0.00  0.00    +0.000 A 
ATOM      2  C   UNL     1       5.052   4.730  16.373  0.00  0.00    +0.000 A 
ATOM      3  C   UNL     1       5.519   4.460  15.024  0.00  0.00    +0.000 A 
ATOM      4  C   UNL     1       4.646   4.132  13.986  0.00  0.00    +0.000 A 
ATOM      5  C   UNL     1       5.153   3.781  12.730  0.00  0.00    +0.000 A 
ATOM      6  C   UNL     1       6.529   3.789  12.498  0.00  0.00    +0.000 A 
ATOM      7  C   UNL     1       7.405   4.128  13.525  0.00  0.00    +0.000 A 
ATOM      8  C   UNL     1       6.886   4.436  14.780  0.00  0.00    +0.000 A 
ATOM      9  O   UNL     1       7.798   4.643  15.825  0.00  0.00    +0.000 OA
ATOM     10  C   UNL     1       7.382   4.623  17.156  0.00  0.00    +0.000 A 
ATOM     11  O   UNL     1       8.220   4.531  18.041  0.00  0.00    +0.000 OA
ENDROOT
BRANCH   1  13
ATOM     12  O   UNL     1       5.779   5.234  19.746  0.00  0.00    +0.000 OA
ATOM     13  C   UNL     1       5.303   4.708  18.756  0.00  0.00    +0.000 C 
BRANCH  13  14
ATOM     14  O   UNL     1       4.068   4.168  18.695  0.00  0.00    +0.000 OA
BRANCH  14  15
ATOM     15  C   UNL     1       2.963   4.978  19.145  0.00  0.00    +0.000 C 
ATOM     16  C   UNL     1       1.851   4.772  18.115  0.00  0.00    +0.000 C 
ATOM     17  C   UNL     1       1.353   3.322  18.096  0.00  0.00    +0.000 C 
ATOM     18  C   UNL     1       0.938   2.840  19.483  0.00  0.00    +0.000 C 
ATOM     19  C   UNL     1       2.011   3.094  20.540  0.00  0.00    +0.000 C 
ATOM     20  C   UNL     1       2.480   4.548  20.528  0.00  0.00    +0.000 C 
ENDBRANCH  14  15
ENDBRANCH  13  14
ENDBRANCH   1  13
TORSDOF 3
ENDMDL
MODEL 7
REMARK VINA RESULT:      -7.8      0.845      1.022
REMARK  Name = 
REMARK  3 active torsions:
REMARK  status: ('A' for Active; 'I' for Inactive)
REMARK    1  A    between atoms: C_2  and  O_3
REMARK    2  A    between atoms: C_2  and  C_10
REMARK    3  A    between atoms: O_3  and  C_4
REMARK                            x       y       z     vdW  Elec       q    Type
REMARK                         _______ _______ _______ _____ _____    ______ ____
ROOT
ATOM      1  C   UNL     1       5.240   4.033  16.782  0.00  0.00    +0.000 A 
ATOM      2  C   UNL     1       4.840   3.893  15.505  0.00  0.00    +0.000 A 
ATOM      3  C   UNL     1       5.753   4.193  14.415  0.00  0.00    +0.000 A 
ATOM      4  C   UNL     1       5.510   3.779  13.104  0.00  0.00    +0.000 A 
ATOM      5  C   UNL     1       6.469   4.004  12.111  0.00  0.00    +0.000 A 
ATOM      6  C   UNL     1       7.656   4.673  12.414  0.00  0.00    +0.000 A 
ATOM      7  C   UNL     1       7.899   5.100  13.717  0.00  0.00    +0.000 A 
ATOM      8  C   UNL     1       6.952   4.833  14.702  0.00  0.00    +0.000 A 
ATOM      9  O   UNL     1       7.285   5.158  16.024  0.00  0.00    +0.000 OA
ATOM     10  C   UNL     1       6.563   4.634  17.096  0.00  0.00    +0.000 A 
ATOM     11  O   UNL     1       7.032   4.707  18.223  0.00  0.00    +0.000 OA
ENDROOT
BRANCH   1  13
ATOM     12  O   UNL     1       4.167   2.203  17.905  0.00  0.00    +0.000 OA
ATOM     13  C   UNL     1       4.353   3.403  17.798  0.00  0.00    +0.000 C 
BRANCH  13  14
ATOM     14  O   UNL     1       3.926   4.325  18.686  0.00  0.00    +0.000 OA
BRANCH  14  15
ATOM     15  C   UNL     1       2.818   5.162  18.298  0.00  0.00    +0.000 C 
ATOM     16  C   UNL     1       1.667   4.206  17.982  0.00  0.00    +0.000 C 
ATOM     17  C   UNL     1       1.215   3.427  19.222  0.00  0.00    +0.000 C 
ATOM     18  C   UNL     1       0.880   4.351  20.389  0.00  0.00    +0.000 C 
ATOM     19  C   UNL     1       1.993   5.357  20.681  0.00  0.00    +0.000 C 
ATOM     20  C   UNL     1       2.414   6.112  19.423  0.00  0.00    +0.000 C 
ENDBRANCH  14  15
ENDBRANCH  13  14
ENDBRANCH   1  13
TORSDOF 3
ENDMDL
MODEL 8
REMARK VINA RESULT:      -7.8      2.708      6.632
REMARK  Name = 
REMARK  3 active torsions:
REMARK  status: ('A' for Active; 'I' for Inactive)
REMARK    1  A    between atoms: C_2  and  O_3
REMARK    2  A    between atoms: C_2  and  C_10
REMARK    3  A    between atoms: O_3  and  C_4
REMARK                            x       y       z     vdW  Elec       q    Type
REMARK                         _______ _______ _______ _____ _____    ______ ____
ROOT
ATOM      1  C   UNL     1       2.941   5.562  18.683  0.00  0.00    +0.000 A 
ATOM      2  C   UNL     1       2.670   6.626  17.905  0.00  0.00    +0.000 A 
ATOM      3  C   UNL     1       2.078   7.822  18.482  0.00  0.00    +0.000 A 
ATOM      4  C   UNL     1       2.063   9.044  17.807  0.00  0.00    +0.000 A 
ATOM      5  C   UNL     1       1.573  10.188  18.446  0.00  0.00    +0.000 A 
ATOM      6  C   UNL     1       1.066  10.110  19.744  0.00  0.00    +0.000 A 
ATOM      7  C   UNL     1       1.067   8.892  20.418  0.00  0.00    +0.000 A 
ATOM      8  C   UNL     1       1.595   7.770  19.783  0.00  0.00    +0.000 A 
ATOM      9  O   UNL     1       1.702   6.592  20.534  0.00  0.00    +0.000 OA
ATOM     10  C   UNL     1       2.507   5.537  20.104  0.00  0.00    +0.000 A 
ATOM     11  O   UNL     1       2.798   4.650  20.894  0.00  0.00    +0.000 OA
ENDROOT
BRANCH   1  13
ATOM     12  O   UNL     1       3.450   3.679  17.284  0.00  0.00    +0.000 OA
ATOM     13  C   UNL     1       3.825   4.534  18.068  0.00  0.00    +0.000 C 
BRANCH  13  14
ATOM     14  O   UNL     1       5.117   4.789  18.361  0.00  0.00    +0.000 OA
BRANCH  14  15
ATOM     15  C   UNL     1       6.081   4.660  17.298  0.00  0.00    +0.000 C 
ATOM     16  C   UNL     1       5.867   5.877  16.395  0.00  0.00    +0.000 C 
ATOM     17  C   UNL     1       6.187   7.188  17.120  0.00  0.00    +0.000 C 
ATOM     18  C   UNL     1       7.583   7.178  17.736  0.00  0.00    +0.000 C 
ATOM     19  C   UNL     1       7.839   5.938  18.592  0.00  0.00    +0.000 C 
ATOM     20  C   UNL     1       7.510   4.653  17.835  0.00  0.00    +0.000 C 
ENDBRANCH  14  15
ENDBRANCH  13  14
ENDBRANCH   1  13
TORSDOF 3
ENDMDL
MODEL 9
REMARK VINA RESULT:      -7.7      4.426      7.573
REMARK  Name = 
REMARK  3 active torsions:
REMARK  status: ('A' for Active; 'I' for Inactive)
REMARK    1  A    between atoms: C_2  and  O_3
REMARK    2  A    between atoms: C_2  and  C_10
REMARK    3  A    between atoms: O_3  and  C_4
REMARK                            x       y       z     vdW  Elec       q    Type
REMARK                         _______ _______ _______ _____ _____    ______ ____
ROOT
ATOM      1  C   UNL     1       2.210   7.849  19.008  0.00  0.00    +0.000 A 
ATOM      2  C   UNL     1       1.879   7.707  20.305  0.00  0.00    +0.000 A 
ATOM      3  C   UNL     1       1.056   8.707  20.965  0.00  0.00    +0.000 A 
ATOM      4  C   UNL     1       0.432   8.466  22.190  0.00  0.00    +0.000 A 
ATOM      5  C   UNL     1      -0.432   9.423  22.733  0.00  0.00    +0.000 A 
ATOM      6  C   UNL     1      -0.649  10.634  22.074  0.00  0.00    +0.000 A 
ATOM      7  C   UNL     1      -0.020  10.885  20.858  0.00  0.00    +0.000 A 
ATOM      8  C   UNL     1       0.806   9.906  20.311  0.00  0.00    +0.000 A 
ATOM      9  O   UNL     1       1.318  10.135  19.026  0.00  0.00    +0.000 OA
ATOM     10  C   UNL     1       1.864   9.095  18.274  0.00  0.00    +0.000 A 
ATOM     11  O   UNL     1       2.047   9.258  17.076  0.00  0.00    +0.000 OA
ENDROOT
BRANCH   1  13
ATOM     12  O   UNL     1       3.819   6.605  17.735  0.00  0.00    +0.000 OA
ATOM     13  C   UNL     1       2.772   6.634  18.358  0.00  0.00    +0.000 C 
BRANCH  13  14
ATOM     14  O   UNL     1       2.056   5.543  18.702  0.00  0.00    +0.000 OA
BRANCH  14  15
ATOM     15  C   UNL     1       2.744   4.277  18.738  0.00  0.00    +0.000 C 
ATOM     16  C   UNL     1       3.304   4.150  20.155  0.00  0.00    +0.000 C 
ATOM     17  C   UNL     1       2.189   4.072  21.204  0.00  0.00    +0.000 C 
ATOM     18  C   UNL     1       1.182   2.970  20.891  0.00  0.00    +0.000 C 
ATOM     19  C   UNL     1       0.657   3.042  19.458  0.00  0.00    +0.000 C 
ATOM     20  C   UNL     1       1.796   3.117  18.443  0.00  0.00    +0.000 C 
ENDBRANCH  14  15
ENDBRANCH  13  14
ENDBRANCH   1  13
TORSDOF 3
ENDMDL
