MODEL 1
REMARK VINA RESULT:      -7.1      0.000      0.000
REMARK  Name = 
REMARK  6 active torsions:
REMARK  status: ('A' for Active; 'I' for Inactive)
REMARK    1  A    between atoms: C_1  and  O_2
REMARK    2  A    between atoms: O_2  and  C_3
REMARK    3  A    between atoms: C_3  and  C_4
REMARK    4  A    between atoms: C_3  and  C_14
REMARK    5  A    between atoms: C_4  and  C_7
REMARK    6  A    between atoms: N_5  and  O_6
REMARK                            x       y       z     vdW  Elec       q    Type
REMARK                         _______ _______ _______ _____ _____    ______ ____
ROOT
ATOM      1  C   UNL     1       4.484   5.532  18.244  0.00  0.00    +0.000 C 
ATOM      2  N   UNL     1       5.164   5.612  19.356  0.00  0.00    +0.000 NA
ENDROOT
BRANCH   1   3
ATOM      3  C   UNL     1       5.015   5.115  16.895  0.00  0.00    +0.000 A 
ATOM      4  C   UNL     1       5.361   6.069  15.926  0.00  0.00    +0.000 A 
ATOM      5  C   UNL     1       5.866   5.674  14.681  0.00  0.00    +0.000 A 
ATOM      6  C   UNL     1       6.009   4.325  14.382  0.00  0.00    +0.000 A 
ATOM      7 CL   UNL     1       6.627   3.837  12.852  0.00  0.00    +0.000 Cl
ATOM      8  C   UNL     1       5.650   3.364  15.317  0.00  0.00    +0.000 A 
ATOM      9  C   UNL     1       5.157   3.758  16.565  0.00  0.00    +0.000 A 
ENDBRANCH   1   3
BRANCH   2  10
ATOM     10  O   UNL     1       6.484   5.179  19.261  0.00  0.00    +0.000 OA
ATOM     11  H   UNL     1       6.925   5.674  19.978  0.00  0.00    +0.000 HD
ENDBRANCH   2  10
BRANCH   1  12
ATOM     12  C   UNL     1       2.970   5.896  18.370  0.00  0.00    +0.000 C 
BRANCH  12  13
ATOM     13  C   UNL     1       2.164   4.732  18.952  0.00  0.00    +0.000 A 
ATOM     14  C   UNL     1       1.872   4.650  20.324  0.00  0.00    +0.000 A 
ATOM     15  C   UNL     1       1.138   3.580  20.840  0.00  0.00    +0.000 A 
ATOM     16  C   UNL     1       0.678   2.576  19.992  0.00  0.00    +0.000 A 
ATOM     17  C   UNL     1       0.941   2.650  18.626  0.00  0.00    +0.000 A 
ATOM     18  C   UNL     1       1.674   3.720  18.107  0.00  0.00    +0.000 A 
ENDBRANCH  12  13
BRANCH  12  20
ATOM     19  C   UNL     1       2.333   8.202  18.310  0.00  0.00    +0.000 C 
ATOM     20  O   UNL     1       2.699   7.087  19.111  0.00  0.00    +0.000 OA
ENDBRANCH  12  20
ENDBRANCH   1  12
TORSDOF 5
ENDMDL
MODEL 2
REMARK VINA RESULT:      -7.1      0.096      1.110
REMARK  Name = 
REMARK  6 active torsions:
REMARK  status: ('A' for Active; 'I' for Inactive)
REMARK    1  A    between atoms: C_1  and  O_2
REMARK    2  A    between atoms: O_2  and  C_3
REMARK    3  A    between atoms: C_3  and  C_4
REMARK    4  A    between atoms: C_3  and  C_14
REMARK    5  A    between atoms: C_4  and  C_7
REMARK    6  A    between atoms: N_5  and  O_6
REMARK                            x       y       z     vdW  Elec       q    Type
REMARK                         _______ _______ _______ _____ _____    ______ ____
ROOT
ATOM      1  C   UNL     1       4.535   5.558  18.272  0.00  0.00    +0.000 C 
ATOM      2  N   UNL     1       5.235   5.621  19.372  0.00  0.00    +0.000 NA
ENDROOT
BRANCH   1   3
ATOM      3  C   UNL     1       5.032   5.127  16.914  0.00  0.00    +0.000 A 
ATOM      4  C   UNL     1       5.326   6.069  15.918  0.00  0.00    +0.000 A 
ATOM      5  C   UNL     1       5.800   5.662  14.664  0.00  0.00    +0.000 A 
ATOM      6  C   UNL     1       5.963   4.311  14.385  0.00  0.00    +0.000 A 
ATOM      7 CL   UNL     1       6.543   3.808  12.846  0.00  0.00    +0.000 Cl
ATOM      8  C   UNL     1       5.656   3.360  15.348  0.00  0.00    +0.000 A 
ATOM      9  C   UNL     1       5.193   3.767  16.604  0.00  0.00    +0.000 A 
ENDBRANCH   1   3
BRANCH   2  10
ATOM     10  O   UNL     1       6.543   5.155  19.254  0.00  0.00    +0.000 OA
ATOM     11  H   UNL     1       7.037   5.962  19.011  0.00  0.00    +0.000 HD
ENDBRANCH   2  10
BRANCH   1  12
ATOM     12  C   UNL     1       3.032   5.958  18.423  0.00  0.00    +0.000 C 
BRANCH  12  13
ATOM     13  C   UNL     1       2.194   4.789  18.946  0.00  0.00    +0.000 A 
ATOM     14  C   UNL     1       1.723   3.778  18.091  0.00  0.00    +0.000 A 
ATOM     15  C   UNL     1       0.956   2.719  18.583  0.00  0.00    +0.000 A 
ATOM     16  C   UNL     1       0.651   2.651  19.939  0.00  0.00    +0.000 A 
ATOM     17  C   UNL     1       1.124   3.634  20.806  0.00  0.00    +0.000 A 
ATOM     18  C   UNL     1       1.893   4.693  20.316  0.00  0.00    +0.000 A 
ENDBRANCH  12  13
BRANCH  12  20
ATOM     19  C   UNL     1       2.179   8.191  18.535  0.00  0.00    +0.000 C 
ATOM     20  O   UNL     1       2.798   7.116  19.227  0.00  0.00    +0.000 OA
ENDBRANCH  12  20
ENDBRANCH   1  12
TORSDOF 5
ENDMDL
MODEL 3
REMARK VINA RESULT:      -7.1      0.095      1.108
REMARK  Name = 
REMARK  6 active torsions:
REMARK  status: ('A' for Active; 'I' for Inactive)
REMARK    1  A    between atoms: C_1  and  O_2
REMARK    2  A    between atoms: O_2  and  C_3
REMARK    3  A    between atoms: C_3  and  C_4
REMARK    4  A    between atoms: C_3  and  C_14
REMARK    5  A    between atoms: C_4  and  C_7
REMARK    6  A    between atoms: N_5  and  O_6
REMARK                            x       y       z     vdW  Elec       q    Type
REMARK                         _______ _______ _______ _____ _____    ______ ____
ROOT
ATOM      1  C   UNL     1       4.544   5.553  18.255  0.00  0.00    +0.000 C 
ATOM      2  N   UNL     1       5.242   5.626  19.356  0.00  0.00    +0.000 NA
ENDROOT
BRANCH   1   3
ATOM      3  C   UNL     1       5.045   5.106  16.903  0.00  0.00    +0.000 A 
ATOM      4  C   UNL     1       5.192   3.745  16.599  0.00  0.00    +0.000 A 
ATOM      5  C   UNL     1       5.644   3.337  15.338  0.00  0.00    +0.000 A 
ATOM      6  C   UNL     1       5.977   4.284  14.377  0.00  0.00    +0.000 A 
ATOM      7 CL   UNL     1       6.536   3.787  12.828  0.00  0.00    +0.000 Cl
ATOM      8  C   UNL     1       5.863   5.637  14.665  0.00  0.00    +0.000 A 
ATOM      9  C   UNL     1       5.400   6.044  15.921  0.00  0.00    +0.000 A 
ENDBRANCH   1   3
BRANCH   2  10
ATOM     10  O   UNL     1       6.548   5.156  19.248  0.00  0.00    +0.000 OA
ATOM     11  H   UNL     1       7.079   5.968  19.357  0.00  0.00    +0.000 HD
ENDBRANCH   2  10
BRANCH   1  12
ATOM     12  C   UNL     1       3.043   5.959  18.397  0.00  0.00    +0.000 C 
BRANCH  12  13
ATOM     13  C   UNL     1       2.202   4.804  18.947  0.00  0.00    +0.000 A 
ATOM     14  C   UNL     1       1.885   4.707  20.312  0.00  0.00    +0.000 A 
ATOM     15  C   UNL     1       1.120   3.645  20.799  0.00  0.00    +0.000 A 
ATOM     16  C   UNL     1       0.654   2.665  19.928  0.00  0.00    +0.000 A 
ATOM     17  C   UNL     1       0.942   2.753  18.568  0.00  0.00    +0.000 A 
ATOM     18  C   UNL     1       1.706   3.815  18.078  0.00  0.00    +0.000 A 
ENDBRANCH  12  13
BRANCH  12  20
ATOM     19  C   UNL     1       2.173   8.187  18.464  0.00  0.00    +0.000 C 
ATOM     20  O   UNL     1       2.811   7.135  19.175  0.00  0.00    +0.000 OA
ENDBRANCH  12  20
ENDBRANCH   1  12
TORSDOF 5
ENDMDL
MODEL 4
REMARK VINA RESULT:      -7.0      3.389      6.087
REMARK  Name = 
REMARK  6 active torsions:
REMARK  status: ('A' for Active; 'I' for Inactive)
REMARK    1  A    between atoms: C_1  and  O_2
REMARK    2  A    between atoms: O_2  and  C_3
REMARK    3  A    between atoms: C_3  and  C_4
REMARK    4  A    between atoms: C_3  and  C_14
REMARK    5  A    between atoms: C_4  and  C_7
REMARK    6  A    between atoms: N_5  and  O_6
REMARK                            x       y       z     vdW  Elec       q    Type
REMARK                         _______ _______ _______ _____ _____    ______ ____
ROOT
ATOM      1  C   UNL     1       3.391   4.229  18.103  0.00  0.00    +0.000 C 
ATOM      2  N   UNL     1       2.763   3.462  17.254  0.00  0.00    +0.000 NA
ENDROOT
BRANCH   1   3
ATOM      3  C   UNL     1       2.824   5.433  18.816  0.00  0.00    +0.000 A 
ATOM      4  C   UNL     1       2.268   5.319  20.098  0.00  0.00    +0.000 A 
ATOM      5  C   UNL     1       1.756   6.443  20.759  0.00  0.00    +0.000 A 
ATOM      6  C   UNL     1       1.773   7.685  20.137  0.00  0.00    +0.000 A 
ATOM      7 CL   UNL     1       1.143   9.067  20.945  0.00  0.00    +0.000 Cl
ATOM      8  C   UNL     1       2.297   7.816  18.858  0.00  0.00    +0.000 A 
ATOM      9  C   UNL     1       2.819   6.695  18.203  0.00  0.00    +0.000 A 
ENDBRANCH   1   3
BRANCH   2  10
ATOM     10  O   UNL     1       1.415   3.769  17.081  0.00  0.00    +0.000 OA
ATOM     11  H   UNL     1       1.272   3.584  16.133  0.00  0.00    +0.000 HD
ENDBRANCH   2  10
BRANCH   1  12
ATOM     12  C   UNL     1       4.868   3.814  18.398  0.00  0.00    +0.000 C 
BRANCH  12  13
ATOM     13  C   UNL     1       5.841   4.951  18.078  0.00  0.00    +0.000 A 
ATOM     14  C   UNL     1       6.801   5.385  19.008  0.00  0.00    +0.000 A 
ATOM     15  C   UNL     1       7.680   6.426  18.702  0.00  0.00    +0.000 A 
ATOM     16  C   UNL     1       7.618   7.048  17.458  0.00  0.00    +0.000 A 
ATOM     17  C   UNL     1       6.685   6.620  16.516  0.00  0.00    +0.000 A 
ATOM     18  C   UNL     1       5.806   5.578  16.819  0.00  0.00    +0.000 A 
ENDBRANCH  12  13
BRANCH  12  20
ATOM     19  C   UNL     1       4.334   2.200  20.082  0.00  0.00    +0.000 C 
ATOM     20  O   UNL     1       5.104   3.339  19.726  0.00  0.00    +0.000 OA
ENDBRANCH  12  20
ENDBRANCH   1  12
TORSDOF 5
ENDMDL
MODEL 5
REMARK VINA RESULT:      -7.0      3.396      6.188
REMARK  Name = 
REMARK  6 active torsions:
REMARK  status: ('A' for Active; 'I' for Inactive)
REMARK    1  A    between atoms: C_1  and  O_2
REMARK    2  A    between atoms: O_2  and  C_3
REMARK    3  A    between atoms: C_3  and  C_4
REMARK    4  A    between atoms: C_3  and  C_14
REMARK    5  A    between atoms: C_4  and  C_7
REMARK    6  A    between atoms: N_5  and  O_6
REMARK                            x       y       z     vdW  Elec       q    Type
REMARK                         _______ _______ _______ _____ _____    ______ ____
ROOT
ATOM      1  C   UNL     1       3.097   4.241  18.181  0.00  0.00    +0.000 C 
ATOM      2  N   UNL     1       2.397   3.508  17.357  0.00  0.00    +0.000 NA
ENDROOT
BRANCH   1   3
ATOM      3  C   UNL     1       2.622   5.472  18.912  0.00  0.00    +0.000 A 
ATOM      4  C   UNL     1       2.101   5.387  20.212  0.00  0.00    +0.000 A 
ATOM      5  C   UNL     1       1.675   6.536  20.890  0.00  0.00    +0.000 A 
ATOM      6  C   UNL     1       1.741   7.777  20.268  0.00  0.00    +0.000 A 
ATOM      7 CL   UNL     1       1.216   9.190  21.097  0.00  0.00    +0.000 Cl
ATOM      8  C   UNL     1       2.230   7.881  18.973  0.00  0.00    +0.000 A 
ATOM      9  C   UNL     1       2.667   6.735  18.301  0.00  0.00    +0.000 A 
ENDBRANCH   1   3
BRANCH   2  10
ATOM     10  O   UNL     1       1.062   3.887  17.234  0.00  0.00    +0.000 OA
ATOM     11  H   UNL     1       1.105   4.623  16.595  0.00  0.00    +0.000 HD
ENDBRANCH   2  10
BRANCH   1  12
ATOM     12  C   UNL     1       4.560   3.748  18.421  0.00  0.00    +0.000 C 
BRANCH  12  13
ATOM     13  C   UNL     1       5.580   4.816  18.023  0.00  0.00    +0.000 A 
ATOM     14  C   UNL     1       5.618   5.353  16.725  0.00  0.00    +0.000 A 
ATOM     15  C   UNL     1       6.558   6.325  16.375  0.00  0.00    +0.000 A 
ATOM     16  C   UNL     1       7.473   6.782  17.320  0.00  0.00    +0.000 A 
ATOM     17  C   UNL     1       7.439   6.276  18.617  0.00  0.00    +0.000 A 
ATOM     18  C   UNL     1       6.499   5.304  18.969  0.00  0.00    +0.000 A 
ENDBRANCH  12  13
BRANCH  12  20
ATOM     19  C   UNL     1       4.395   1.970  20.015  0.00  0.00    +0.000 C 
ATOM     20  O   UNL     1       4.830   3.296  19.750  0.00  0.00    +0.000 OA
ENDBRANCH  12  20
ENDBRANCH   1  12
TORSDOF 5
ENDMDL
MODEL 6
REMARK VINA RESULT:      -6.9      3.375      6.088
REMARK  Name = 
REMARK  6 active torsions:
REMARK  status: ('A' for Active; 'I' for Inactive)
REMARK    1  A    between atoms: C_1  and  O_2
REMARK    2  A    between atoms: O_2  and  C_3
REMARK    3  A    between atoms: C_3  and  C_4
REMARK    4  A    between atoms: C_3  and  C_14
REMARK    5  A    between atoms: C_4  and  C_7
REMARK    6  A    between atoms: N_5  and  O_6
REMARK                            x       y       z     vdW  Elec       q    Type
REMARK                         _______ _______ _______ _____ _____    ______ ____
ROOT
ATOM      1  C   UNL     1       3.201   4.218  18.169  0.00  0.00    +0.000 C 
ATOM      2  N   UNL     1       2.523   3.460  17.351  0.00  0.00    +0.000 NA
ENDROOT
BRANCH   1   3
ATOM      3  C   UNL     1       2.700   5.459  18.868  0.00  0.00    +0.000 A 
ATOM      4  C   UNL     1       2.764   6.715  18.248  0.00  0.00    +0.000 A 
ATOM      5  C   UNL     1       2.285   7.859  18.897  0.00  0.00    +0.000 A 
ATOM      6  C   UNL     1       1.760   7.765  20.180  0.00  0.00    +0.000 A 
ATOM      7 CL   UNL     1       1.173   9.170  20.981  0.00  0.00    +0.000 Cl
ATOM      8  C   UNL     1       1.709   6.535  20.822  0.00  0.00    +0.000 A 
ATOM      9  C   UNL     1       2.177   5.390  20.169  0.00  0.00    +0.000 A 
ENDBRANCH   1   3
BRANCH   2  10
ATOM     10  O   UNL     1       1.185   3.819  17.201  0.00  0.00    +0.000 OA
ATOM     11  H   UNL     1       1.073   4.514  17.878  0.00  0.00    +0.000 HD
ENDBRANCH   2  10
BRANCH   1  12
ATOM     12  C   UNL     1       4.667   3.749  18.441  0.00  0.00    +0.000 C 
BRANCH  12  13
ATOM     13  C   UNL     1       5.679   4.831  18.054  0.00  0.00    +0.000 A 
ATOM     14  C   UNL     1       5.740   5.352  16.751  0.00  0.00    +0.000 A 
ATOM     15  C   UNL     1       6.672   6.336  16.413  0.00  0.00    +0.000 A 
ATOM     16  C   UNL     1       7.554   6.820  17.374  0.00  0.00    +0.000 A 
ATOM     17  C   UNL     1       7.496   6.329  18.677  0.00  0.00    +0.000 A 
ATOM     18  C   UNL     1       6.565   5.345  19.017  0.00  0.00    +0.000 A 
ENDBRANCH  12  13
BRANCH  12  20
ATOM     19  C   UNL     1       4.166   2.171  20.168  0.00  0.00    +0.000 C 
ATOM     20  O   UNL     1       4.918   3.311  19.777  0.00  0.00    +0.000 OA
ENDBRANCH  12  20
ENDBRANCH   1  12
TORSDOF 5
ENDMDL
MODEL 7
REMARK VINA RESULT:      -6.9      3.398      6.021
REMARK  Name = 
REMARK  6 active torsions:
REMARK  status: ('A' for Active; 'I' for Inactive)
REMARK    1  A    between atoms: C_1  and  O_2
REMARK    2  A    between atoms: O_2  and  C_3
REMARK    3  A    between atoms: C_3  and  C_4
REMARK    4  A    between atoms: C_3  and  C_14
REMARK    5  A    between atoms: C_4  and  C_7
REMARK    6  A    between atoms: N_5  and  O_6
REMARK                            x       y       z     vdW  Elec       q    Type
REMARK                         _______ _______ _______ _____ _____    ______ ____
ROOT
ATOM      1  C   UNL     1       3.067   4.280  18.170  0.00  0.00    +0.000 C 
ATOM      2  N   UNL     1       2.368   3.549  17.345  0.00  0.00    +0.000 NA
ENDROOT
BRANCH   1   3
ATOM      3  C   UNL     1       2.599   5.524  18.884  0.00  0.00    +0.000 A 
ATOM      4  C   UNL     1       2.659   6.781  18.265  0.00  0.00    +0.000 A 
ATOM      5  C   UNL     1       2.210   7.929  18.929  0.00  0.00    +0.000 A 
ATOM      6  C   UNL     1       1.721   7.838  20.227  0.00  0.00    +0.000 A 
ATOM      7 CL   UNL     1       1.172   9.247  21.046  0.00  0.00    +0.000 Cl
ATOM      8  C   UNL     1       1.675   6.607  20.868  0.00  0.00    +0.000 A 
ATOM      9  C   UNL     1       2.113   5.459  20.200  0.00  0.00    +0.000 A 
ENDBRANCH   1   3
BRANCH   2  10
ATOM     10  O   UNL     1       1.039   3.942  17.204  0.00  0.00    +0.000 OA
ATOM     11  H   UNL     1       0.943   4.034  16.237  0.00  0.00    +0.000 HD
ENDBRANCH   2  10
BRANCH   1  12
ATOM     12  C   UNL     1       4.521   3.772  18.430  0.00  0.00    +0.000 C 
BRANCH  12  13
ATOM     13  C   UNL     1       5.559   4.829  18.045  0.00  0.00    +0.000 A 
ATOM     14  C   UNL     1       6.486   5.327  18.977  0.00  0.00    +0.000 A 
ATOM     15  C   UNL     1       7.425   6.294  18.611  0.00  0.00    +0.000 A 
ATOM     16  C   UNL     1       7.456   6.776  17.306  0.00  0.00    +0.000 A 
ATOM     17  C   UNL     1       6.557   6.282  16.363  0.00  0.00    +0.000 A 
ATOM     18  C   UNL     1       5.618   5.313  16.726  0.00  0.00    +0.000 A 
ENDBRANCH  12  13
BRANCH  12  20
ATOM     19  C   UNL     1       4.428   1.958  19.988  0.00  0.00    +0.000 C 
ATOM     20  O   UNL     1       4.768   3.319  19.763  0.00  0.00    +0.000 OA
ENDBRANCH  12  20
ENDBRANCH   1  12
TORSDOF 5
ENDMDL
MODEL 8
REMARK VINA RESULT:      -6.9      0.590      1.564
REMARK  Name = 
REMARK  6 active torsions:
REMARK  status: ('A' for Active; 'I' for Inactive)
REMARK    1  A    between atoms: C_1  and  O_2
REMARK    2  A    between atoms: O_2  and  C_3
REMARK    3  A    between atoms: C_3  and  C_4
REMARK    4  A    between atoms: C_3  and  C_14
REMARK    5  A    between atoms: C_4  and  C_7
REMARK    6  A    between atoms: N_5  and  O_6
REMARK                            x       y       z     vdW  Elec       q    Type
REMARK                         _______ _______ _______ _____ _____    ______ ____
ROOT
ATOM      1  C   UNL     1       4.715   5.451  18.106  0.00  0.00    +0.000 C 
ATOM      2  N   UNL     1       5.286   5.357  19.276  0.00  0.00    +0.000 NA
ENDROOT
BRANCH   1   3
ATOM      3  C   UNL     1       5.351   5.156  16.770  0.00  0.00    +0.000 A 
ATOM      4  C   UNL     1       4.877   4.116  15.956  0.00  0.00    +0.000 A 
ATOM      5  C   UNL     1       5.464   3.857  14.712  0.00  0.00    +0.000 A 
ATOM      6  C   UNL     1       6.544   4.616  14.277  0.00  0.00    +0.000 A 
ATOM      7 CL   UNL     1       7.268   4.298  12.750  0.00  0.00    +0.000 Cl
ATOM      8  C   UNL     1       7.044   5.635  15.077  0.00  0.00    +0.000 A 
ATOM      9  C   UNL     1       6.450   5.901  16.315  0.00  0.00    +0.000 A 
ENDBRANCH   1   3
BRANCH   2  10
ATOM     10  O   UNL     1       6.583   4.850  19.249  0.00  0.00    +0.000 OA
ATOM     11  H   UNL     1       6.462   3.970  18.842  0.00  0.00    +0.000 HD
ENDBRANCH   2  10
BRANCH   1  12
ATOM     12  C   UNL     1       3.218   5.899  18.137  0.00  0.00    +0.000 C 
BRANCH  12  13
ATOM     13  C   UNL     1       2.324   4.814  18.742  0.00  0.00    +0.000 A 
ATOM     14  C   UNL     1       1.913   3.697  17.996  0.00  0.00    +0.000 A 
ATOM     15  C   UNL     1       1.093   2.717  18.562  0.00  0.00    +0.000 A 
ATOM     16  C   UNL     1       0.677   2.835  19.885  0.00  0.00    +0.000 A 
ATOM     17  C   UNL     1       1.090   3.926  20.646  0.00  0.00    +0.000 A 
ATOM     18  C   UNL     1       1.910   4.907  20.083  0.00  0.00    +0.000 A 
ENDBRANCH  12  13
BRANCH  12  20
ATOM     19  C   UNL     1       2.597   8.200  17.928  0.00  0.00    +0.000 C 
ATOM     20  O   UNL     1       2.979   7.144  18.797  0.00  0.00    +0.000 OA
ENDBRANCH  12  20
ENDBRANCH   1  12
TORSDOF 5
ENDMDL
MODEL 9
REMARK VINA RESULT:      -6.8      2.881      6.315
REMARK  Name = 
REMARK  6 active torsions:
REMARK  status: ('A' for Active; 'I' for Inactive)
REMARK    1  A    between atoms: C_1  and  O_2
REMARK    2  A    between atoms: O_2  and  C_3
REMARK    3  A    between atoms: C_3  and  C_4
REMARK    4  A    between atoms: C_3  and  C_14
REMARK    5  A    between atoms: C_4  and  C_7
REMARK    6  A    between atoms: N_5  and  O_6
REMARK                            x       y       z     vdW  Elec       q    Type
REMARK                         _______ _______ _______ _____ _____    ______ ____
ROOT
ATOM      1  C   UNL     1       5.335   5.371  16.563  0.00  0.00    +0.000 C 
ATOM      2  N   UNL     1       5.445   6.586  16.099  0.00  0.00    +0.000 NA
ENDROOT
BRANCH   1   3
ATOM      3  C   UNL     1       4.221   4.840  17.433  0.00  0.00    +0.000 A 
ATOM      4  C   UNL     1       4.053   5.291  18.750  0.00  0.00    +0.000 A 
ATOM      5  C   UNL     1       3.009   4.803  19.546  0.00  0.00    +0.000 A 
ATOM      6  C   UNL     1       2.138   3.844  19.043  0.00  0.00    +0.000 A 
ATOM      7 CL   UNL     1       0.856   3.242  20.020  0.00  0.00    +0.000 Cl
ATOM      8  C   UNL     1       2.300   3.366  17.750  0.00  0.00    +0.000 A 
ATOM      9  C   UNL     1       3.336   3.862  16.951  0.00  0.00    +0.000 A 
ENDBRANCH   1   3
BRANCH   2  10
ATOM     10  O   UNL     1       4.365   7.418  16.386  0.00  0.00    +0.000 OA
ATOM     11  H   UNL     1       4.519   7.654  17.321  0.00  0.00    +0.000 HD
ENDBRANCH   2  10
BRANCH   1  12
ATOM     12  C   UNL     1       6.479   4.396  16.139  0.00  0.00    +0.000 C 
BRANCH  12  13
ATOM     13  C   UNL     1       6.616   4.326  14.617  0.00  0.00    +0.000 A 
ATOM     14  C   UNL     1       5.760   3.532  13.835  0.00  0.00    +0.000 A 
ATOM     15  C   UNL     1       5.900   3.475  12.446  0.00  0.00    +0.000 A 
ATOM     16  C   UNL     1       6.895   4.216  11.815  0.00  0.00    +0.000 A 
ATOM     17  C   UNL     1       7.741   5.024  12.571  0.00  0.00    +0.000 A 
ATOM     18  C   UNL     1       7.603   5.083  13.960  0.00  0.00    +0.000 A 
ENDBRANCH  12  13
BRANCH  12  20
ATOM     19  C   UNL     1       7.722   4.841  18.135  0.00  0.00    +0.000 C 
ATOM     20  O   UNL     1       7.753   4.676  16.725  0.00  0.00    +0.000 OA
ENDBRANCH  12  20
ENDBRANCH   1  12
TORSDOF 5
ENDMDL
