MODEL 1
REMARK VINA RESULT:      -8.5      0.000      0.000
REMARK  Name = 
REMARK  10 active torsions:
REMARK  status: ('A' for Active; 'I' for Inactive)
REMARK    1  A    between atoms: C_1  and  C_2
REMARK    2  A    between atoms: C_2  and  C_3
REMARK    3  A    between atoms: C_2  and  N_4
REMARK    4  A    between atoms: N_4  and  C_5
REMARK    5  A    between atoms: C_5  and  C_6
REMARK    6  A    between atoms: C_6  and  C_7
REMARK    7  A    between atoms: N_9  and  C_10
REMARK    8  A    between atoms: C_14  and  C_15
REMARK    9  A    between atoms: C_20  and  C_21
REMARK   10  A    between atoms: N_24  and  C_25
REMARK                            x       y       z     vdW  Elec       q    Type
REMARK                         _______ _______ _______ _____ _____    ______ ____
ROOT
ATOM      1  C   UNL     1       4.473   5.610  17.471  0.00  0.00    +0.000 A 
ATOM      2  S   UNL     1       4.920   4.032  17.023  0.00  0.00    +0.000 S 
ATOM      3  C   UNL     1       3.570   3.377  17.811  0.00  0.00    +0.000 A 
ATOM      4  C   UNL     1       2.761   4.341  18.389  0.00  0.00    +0.000 A 
ATOM      5  C   UNL     1       3.299   5.666  18.197  0.00  0.00    +0.000 A 
ATOM      6  C   UNL     1       1.491   3.912  19.071  0.00  0.00    +0.000 C 
ATOM      7  C   UNL     1       1.456   2.391  19.319  0.00  0.00    +0.000 C 
ATOM      8  N   UNL     1       1.915   1.606  18.160  0.00  0.00    +0.000 NA
ATOM      9  C   UNL     1       3.333   1.897  17.874  0.00  0.00    +0.000 C 
ATOM     10  H   UNL     1       1.375   1.890  17.342  0.00  0.00    +0.000 HD
ENDROOT
BRANCH   5  11
ATOM     11  C   UNL     1       2.692   6.989  18.640  0.00  0.00    +0.000 A 
ATOM     12  N   UNL     1       2.660   8.050  17.851  0.00  0.00    +0.000 NA
ATOM     13  C   UNL     1       2.026   9.109  18.488  0.00  0.00    +0.000 A 
ATOM     14  C   UNL     1       1.780  10.391  17.958  0.00  0.00    +0.000 A 
ATOM     15  C   UNL     1       1.156  11.369  18.753  0.00  0.00    +0.000 A 
ATOM     16  C   UNL     1       0.770  11.089  20.068  0.00  0.00    +0.000 A 
ATOM     17  C   UNL     1       0.982   9.811  20.593  0.00  0.00    +0.000 A 
ATOM     18  C   UNL     1       1.603   8.846  19.787  0.00  0.00    +0.000 A 
ATOM     19  S   UNL     1       1.967   7.225  20.177  0.00  0.00    +0.000 S 
BRANCH  16  20
ATOM     20  C   UNL     1       0.171  12.103  20.920  0.00  0.00    +0.000 A 
ATOM     21  C   UNL     1       0.406  13.496  20.994  0.00  0.00    +0.000 A 
ATOM     22  N   UNL     1      -0.322  14.094  21.936  0.00  0.00    +0.000 NA
ATOM     23  N   UNL     1      -1.022  13.084  22.480  0.00  0.00    +0.000 N 
ATOM     24  C   UNL     1      -1.932  13.337  23.572  0.00  0.00    +0.000 C 
ATOM     25  C   UNL     1      -0.768  11.872  21.902  0.00  0.00    +0.000 A 
ENDBRANCH  16  20
ENDBRANCH   5  11
BRANCH   1  28
ATOM     26  C   UNL     1       6.603   6.696  17.827  0.00  0.00    +0.000 C 
ATOM     27  O   UNL     1       7.005   5.956  18.725  0.00  0.00    +0.000 OA
ATOM     28  N   UNL     1       5.372   6.618  17.208  0.00  0.00    +0.000 N 
ATOM     29  H   UNL     1       5.325   7.012  16.268  0.00  0.00    +0.000 HD
BRANCH  26  30
ATOM     30  C   UNL     1       7.489   7.834  17.335  0.00  0.00    +0.000 C 
BRANCH  30  31
ATOM     31  C   UNL     1       8.352   8.532  18.390  0.00  0.00    +0.000 C 
BRANCH  31  32
ATOM     32  N   UNL     1       8.543   9.976  18.179  0.00  0.00    +0.000 NA
ATOM     33  H   UNL     1       8.514  10.181  17.178  0.00  0.00    +0.000 HD
BRANCH  32  35
ATOM     34  C   UNL     1      10.366  11.645  17.895  0.00  0.00    +0.000 C 
ATOM     35  C   UNL     1       9.786  10.521  18.752  0.00  0.00    +0.000 C 
ATOM     36  C   UNL     1       9.500  11.029  20.166  0.00  0.00    +0.000 C 
ENDBRANCH  32  35
ENDBRANCH  31  32
ENDBRANCH  30  31
ENDBRANCH  26  30
ENDBRANCH   1  28
TORSDOF 7
ENDMDL
MODEL 2
REMARK VINA RESULT:      -8.4      1.166      1.787
REMARK  Name = 
REMARK  10 active torsions:
REMARK  status: ('A' for Active; 'I' for Inactive)
REMARK    1  A    between atoms: C_1  and  C_2
REMARK    2  A    between atoms: C_2  and  C_3
REMARK    3  A    between atoms: C_2  and  N_4
REMARK    4  A    between atoms: N_4  and  C_5
REMARK    5  A    between atoms: C_5  and  C_6
REMARK    6  A    between atoms: C_6  and  C_7
REMARK    7  A    between atoms: N_9  and  C_10
REMARK    8  A    between atoms: C_14  and  C_15
REMARK    9  A    between atoms: C_20  and  C_21
REMARK   10  A    between atoms: N_24  and  C_25
REMARK                            x       y       z     vdW  Elec       q    Type
REMARK                         _______ _______ _______ _____ _____    ______ ____
ROOT
ATOM      1  C   UNL     1       4.297   5.567  17.616  0.00  0.00    +0.000 A 
ATOM      2  S   UNL     1       4.755   3.987  17.188  0.00  0.00    +0.000 S 
ATOM      3  C   UNL     1       3.441   3.329  18.033  0.00  0.00    +0.000 A 
ATOM      4  C   UNL     1       2.634   4.294  18.615  0.00  0.00    +0.000 A 
ATOM      5  C   UNL     1       3.146   5.622  18.377  0.00  0.00    +0.000 A 
ATOM      6  C   UNL     1       1.394   3.862  19.346  0.00  0.00    +0.000 C 
ATOM      7  C   UNL     1       1.390   2.346  19.629  0.00  0.00    +0.000 C 
ATOM      8  N   UNL     1       1.825   1.542  18.473  0.00  0.00    +0.000 NA
ATOM      9  C   UNL     1       3.229   1.848  18.136  0.00  0.00    +0.000 C 
ATOM     10  H   UNL     1       1.255   1.800  17.667  0.00  0.00    +0.000 HD
ENDROOT
BRANCH   5  11
ATOM     11  C   UNL     1       2.532   6.946  18.809  0.00  0.00    +0.000 A 
ATOM     12  N   UNL     1       2.102   7.154  20.042  0.00  0.00    +0.000 NA
ATOM     13  C   UNL     1       1.619   8.450  20.174  0.00  0.00    +0.000 A 
ATOM     14  C   UNL     1       1.103   9.046  21.342  0.00  0.00    +0.000 A 
ATOM     15  C   UNL     1       0.617  10.365  21.298  0.00  0.00    +0.000 A 
ATOM     16  C   UNL     1       0.639  11.102  20.109  0.00  0.00    +0.000 A 
ATOM     17  C   UNL     1       1.177  10.530  18.952  0.00  0.00    +0.000 A 
ATOM     18  C   UNL     1       1.660   9.215  19.013  0.00  0.00    +0.000 A 
ATOM     19  S   UNL     1       2.367   8.294  17.762  0.00  0.00    +0.000 S 
BRANCH  16  20
ATOM     20  C   UNL     1       0.094  12.447  20.034  0.00  0.00    +0.000 A 
ATOM     21  C   UNL     1      -0.965  13.050  20.753  0.00  0.00    +0.000 A 
ATOM     22  N   UNL     1      -1.196  14.307  20.375  0.00  0.00    +0.000 NA
ATOM     23  N   UNL     1      -0.292  14.514  19.403  0.00  0.00    +0.000 N 
ATOM     24  C   UNL     1      -0.240  15.784  18.718  0.00  0.00    +0.000 C 
ATOM     25  C   UNL     1       0.509  13.433  19.165  0.00  0.00    +0.000 A 
ENDBRANCH  16  20
ENDBRANCH   5  11
BRANCH   1  28
ATOM     26  C   UNL     1       6.427   6.682  17.865  0.00  0.00    +0.000 C 
ATOM     27  O   UNL     1       6.878   5.957  18.752  0.00  0.00    +0.000 OA
ATOM     28  N   UNL     1       5.171   6.583  17.302  0.00  0.00    +0.000 N 
ATOM     29  H   UNL     1       5.078   6.966  16.361  0.00  0.00    +0.000 HD
BRANCH  26  30
ATOM     30  C   UNL     1       7.277   7.825  17.322  0.00  0.00    +0.000 C 
BRANCH  30  31
ATOM     31  C   UNL     1       8.341   8.393  18.266  0.00  0.00    +0.000 C 
BRANCH  31  32
ATOM     32  N   UNL     1       8.380   9.861  18.344  0.00  0.00    +0.000 NA
ATOM     33  H   UNL     1       8.216  10.257  17.416  0.00  0.00    +0.000 HD
BRANCH  32  35
ATOM     34  C   UNL     1      10.221  11.498  17.993  0.00  0.00    +0.000 C 
ATOM     35  C   UNL     1       9.632  10.413  18.893  0.00  0.00    +0.000 C 
ATOM     36  C   UNL     1       9.355  10.977  20.287  0.00  0.00    +0.000 C 
ENDBRANCH  32  35
ENDBRANCH  31  32
ENDBRANCH  30  31
ENDBRANCH  26  30
ENDBRANCH   1  28
TORSDOF 7
ENDMDL
MODEL 3
REMARK VINA RESULT:      -7.9      4.486     10.005
REMARK  Name = 
REMARK  10 active torsions:
REMARK  status: ('A' for Active; 'I' for Inactive)
REMARK    1  A    between atoms: C_1  and  C_2
REMARK    2  A    between atoms: C_2  and  C_3
REMARK    3  A    between atoms: C_2  and  N_4
REMARK    4  A    between atoms: N_4  and  C_5
REMARK    5  A    between atoms: C_5  and  C_6
REMARK    6  A    between atoms: C_6  and  C_7
REMARK    7  A    between atoms: N_9  and  C_10
REMARK    8  A    between atoms: C_14  and  C_15
REMARK    9  A    between atoms: C_20  and  C_21
REMARK   10  A    between atoms: N_24  and  C_25
REMARK                            x       y       z     vdW  Elec       q    Type
REMARK                         _______ _______ _______ _____ _____    ______ ____
ROOT
ATOM      1  C   UNL     1      -0.345  13.785  19.049  0.00  0.00    +0.000 A 
ATOM      2  S   UNL     1      -0.379  15.485  19.050  0.00  0.00    +0.000 S 
ATOM      3  C   UNL     1       1.240  15.562  19.548  0.00  0.00    +0.000 A 
ATOM      4  C   UNL     1       1.823  14.314  19.687  0.00  0.00    +0.000 A 
ATOM      5  C   UNL     1       0.883  13.257  19.400  0.00  0.00    +0.000 A 
ATOM      6  C   UNL     1       3.276  14.226  20.063  0.00  0.00    +0.000 C 
ATOM      7  C   UNL     1       3.820  15.574  20.578  0.00  0.00    +0.000 C 
ATOM      8  N   UNL     1       3.387  16.721  19.762  0.00  0.00    +0.000 NA
ATOM      9  C   UNL     1       1.920  16.871  19.825  0.00  0.00    +0.000 C 
ATOM     10  H   UNL     1       3.632  16.537  18.788  0.00  0.00    +0.000 HD
ENDROOT
BRANCH   5  11
ATOM     11  C   UNL     1       1.142  11.758  19.398  0.00  0.00    +0.000 A 
ATOM     12  N   UNL     1       1.623  11.126  18.341  0.00  0.00    +0.000 NA
ATOM     13  C   UNL     1       1.791   9.775  18.618  0.00  0.00    +0.000 A 
ATOM     14  C   UNL     1       2.304   8.790  17.750  0.00  0.00    +0.000 A 
ATOM     15  C   UNL     1       2.374   7.451  18.175  0.00  0.00    +0.000 A 
ATOM     16  C   UNL     1       1.944   7.078  19.453  0.00  0.00    +0.000 A 
ATOM     17  C   UNL     1       1.462   8.053  20.333  0.00  0.00    +0.000 A 
ATOM     18  C   UNL     1       1.401   9.383  19.895  0.00  0.00    +0.000 A 
ATOM     19  S   UNL     1       0.869  10.753  20.762  0.00  0.00    +0.000 S 
BRANCH  16  20
ATOM     20  C   UNL     1       1.962   5.692  19.890  0.00  0.00    +0.000 A 
ATOM     21  C   UNL     1       2.184   5.136  21.172  0.00  0.00    +0.000 A 
ATOM     22  N   UNL     1       2.155   3.804  21.170  0.00  0.00    +0.000 NA
ATOM     23  N   UNL     1       1.924   3.497  19.882  0.00  0.00    +0.000 N 
ATOM     24  C   UNL     1       1.842   2.116  19.470  0.00  0.00    +0.000 C 
ATOM     25  C   UNL     1       1.794   4.592  19.076  0.00  0.00    +0.000 A 
ENDBRANCH  16  20
ENDBRANCH   5  11
BRANCH   1  28
ATOM     26  C   UNL     1      -2.448  12.927  19.873  0.00  0.00    +0.000 C 
ATOM     27  O   UNL     1      -2.277  13.212  21.058  0.00  0.00    +0.000 OA
ATOM     28  N   UNL     1      -1.539  13.131  18.855  0.00  0.00    +0.000 N 
ATOM     29  H   UNL     1      -1.937  13.213  17.919  0.00  0.00    +0.000 HD
BRANCH  26  30
ATOM     30  C   UNL     1      -3.750  12.264  19.438  0.00  0.00    +0.000 C 
BRANCH  30  31
ATOM     31  C   UNL     1      -3.639  11.193  18.349  0.00  0.00    +0.000 C 
BRANCH  31  32
ATOM     32  N   UNL     1      -3.546  11.712  16.976  0.00  0.00    +0.000 NA
ATOM     33  H   UNL     1      -4.462  11.654  16.526  0.00  0.00    +0.000 HD
BRANCH  32  35
ATOM     34  C   UNL     1      -1.731  10.011  16.917  0.00  0.00    +0.000 C 
ATOM     35  C   UNL     1      -2.546  11.036  16.130  0.00  0.00    +0.000 C 
ATOM     36  C   UNL     1      -3.261  10.357  14.962  0.00  0.00    +0.000 C 
ENDBRANCH  32  35
ENDBRANCH  31  32
ENDBRANCH  30  31
ENDBRANCH  26  30
ENDBRANCH   1  28
TORSDOF 7
ENDMDL
MODEL 4
REMARK VINA RESULT:      -7.9      4.831     11.158
REMARK  Name = 
REMARK  10 active torsions:
REMARK  status: ('A' for Active; 'I' for Inactive)
REMARK    1  A    between atoms: C_1  and  C_2
REMARK    2  A    between atoms: C_2  and  C_3
REMARK    3  A    between atoms: C_2  and  N_4
REMARK    4  A    between atoms: N_4  and  C_5
REMARK    5  A    between atoms: C_5  and  C_6
REMARK    6  A    between atoms: C_6  and  C_7
REMARK    7  A    between atoms: N_9  and  C_10
REMARK    8  A    between atoms: C_14  and  C_15
REMARK    9  A    between atoms: C_20  and  C_21
REMARK   10  A    between atoms: N_24  and  C_25
REMARK                            x       y       z     vdW  Elec       q    Type
REMARK                         _______ _______ _______ _____ _____    ______ ____
ROOT
ATOM      1  C   UNL     1      -3.864  14.201  21.398  0.00  0.00    +0.000 A 
ATOM      2  S   UNL     1      -4.680  15.538  22.061  0.00  0.00    +0.000 S 
ATOM      3  C   UNL     1      -3.642  15.565  23.400  0.00  0.00    +0.000 A 
ATOM      4  C   UNL     1      -2.659  14.591  23.343  0.00  0.00    +0.000 A 
ATOM      5  C   UNL     1      -2.794  13.774  22.161  0.00  0.00    +0.000 A 
ATOM      6  C   UNL     1      -1.626  14.533  24.434  0.00  0.00    +0.000 C 
ATOM      7  C   UNL     1      -2.031  15.381  25.657  0.00  0.00    +0.000 C 
ATOM      8  N   UNL     1      -2.574  16.700  25.290  0.00  0.00    +0.000 NA
ATOM      9  C   UNL     1      -3.824  16.544  24.522  0.00  0.00    +0.000 C 
ATOM     10  H   UNL     1      -1.901  17.170  24.682  0.00  0.00    +0.000 HD
ENDROOT
BRANCH   5  11
ATOM     11  C   UNL     1      -1.894  12.632  21.712  0.00  0.00    +0.000 A 
ATOM     12  N   UNL     1      -1.602  11.612  22.501  0.00  0.00    +0.000 NA
ATOM     13  C   UNL     1      -0.792  10.701  21.836  0.00  0.00    +0.000 A 
ATOM     14  C   UNL     1      -0.298   9.481  22.340  0.00  0.00    +0.000 A 
ATOM     15  C   UNL     1       0.548   8.686  21.545  0.00  0.00    +0.000 A 
ATOM     16  C   UNL     1       0.908   9.086  20.254  0.00  0.00    +0.000 A 
ATOM     17  C   UNL     1       0.398  10.280  19.733  0.00  0.00    +0.000 A 
ATOM     18  C   UNL     1      -0.445  11.059  20.537  0.00  0.00    +0.000 A 
ATOM     19  S   UNL     1      -1.202  12.538  20.145  0.00  0.00    +0.000 S 
BRANCH  16  20
ATOM     20  C   UNL     1       1.821   8.303  19.439  0.00  0.00    +0.000 A 
ATOM     21  C   UNL     1       2.333   8.547  18.143  0.00  0.00    +0.000 A 
ATOM     22  N   UNL     1       3.128   7.569  17.709  0.00  0.00    +0.000 NA
ATOM     23  N   UNL     1       3.122   6.687  18.723  0.00  0.00    +0.000 N 
ATOM     24  C   UNL     1       3.871   5.457  18.618  0.00  0.00    +0.000 C 
ATOM     25  C   UNL     1       2.360   7.083  19.785  0.00  0.00    +0.000 A 
ENDBRANCH  16  20
ENDBRANCH   5  11
BRANCH   1  28
ATOM     26  C   UNL     1      -5.366  12.603  20.383  0.00  0.00    +0.000 C 
ATOM     27  O   UNL     1      -5.747  12.067  21.424  0.00  0.00    +0.000 OA
ATOM     28  N   UNL     1      -4.424  13.607  20.291  0.00  0.00    +0.000 N 
ATOM     29  H   UNL     1      -4.490  14.198  19.462  0.00  0.00    +0.000 HD
BRANCH  26  30
ATOM     30  C   UNL     1      -5.930  12.138  19.046  0.00  0.00    +0.000 C 
BRANCH  30  31
ATOM     31  C   UNL     1      -5.029  11.231  18.203  0.00  0.00    +0.000 C 
BRANCH  31  32
ATOM     32  N   UNL     1      -4.108  11.938  17.301  0.00  0.00    +0.000 NA
ATOM     33  H   UNL     1      -4.618  12.260  16.475  0.00  0.00    +0.000 HD
BRANCH  32  35
ATOM     34  C   UNL     1      -2.808   9.848  17.665  0.00  0.00    +0.000 C 
ATOM     35  C   UNL     1      -2.940  11.148  16.873  0.00  0.00    +0.000 C 
ATOM     36  C   UNL     1      -3.065  10.846  15.379  0.00  0.00    +0.000 C 
ENDBRANCH  32  35
ENDBRANCH  31  32
ENDBRANCH  30  31
ENDBRANCH  26  30
ENDBRANCH   1  28
TORSDOF 7
ENDMDL
MODEL 5
REMARK VINA RESULT:      -7.9      4.630     10.194
REMARK  Name = 
REMARK  10 active torsions:
REMARK  status: ('A' for Active; 'I' for Inactive)
REMARK    1  A    between atoms: C_1  and  C_2
REMARK    2  A    between atoms: C_2  and  C_3
REMARK    3  A    between atoms: C_2  and  N_4
REMARK    4  A    between atoms: N_4  and  C_5
REMARK    5  A    between atoms: C_5  and  C_6
REMARK    6  A    between atoms: C_6  and  C_7
REMARK    7  A    between atoms: N_9  and  C_10
REMARK    8  A    between atoms: C_14  and  C_15
REMARK    9  A    between atoms: C_20  and  C_21
REMARK   10  A    between atoms: N_24  and  C_25
REMARK                            x       y       z     vdW  Elec       q    Type
REMARK                         _______ _______ _______ _____ _____    ______ ____
ROOT
ATOM      1  C   UNL     1      -0.918  13.867  19.796  0.00  0.00    +0.000 A 
ATOM      2  S   UNL     1      -1.128  15.532  20.069  0.00  0.00    +0.000 S 
ATOM      3  C   UNL     1       0.399  15.652  20.795  0.00  0.00    +0.000 A 
ATOM      4  C   UNL     1       1.088  14.450  20.808  0.00  0.00    +0.000 A 
ATOM      5  C   UNL     1       0.305  13.387  20.225  0.00  0.00    +0.000 A 
ATOM      6  C   UNL     1       2.483  14.416  21.366  0.00  0.00    +0.000 C 
ATOM      7  C   UNL     1       2.816  15.692  22.165  0.00  0.00    +0.000 C 
ATOM      8  N   UNL     1       2.371  16.926  21.493  0.00  0.00    +0.000 NA
ATOM      9  C   UNL     1       0.900  16.942  21.374  0.00  0.00    +0.000 C 
ATOM     10  H   UNL     1       2.753  16.935  20.547  0.00  0.00    +0.000 HD
ENDROOT
BRANCH   5  11
ATOM     11  C   UNL     1       0.716  11.937  20.015  0.00  0.00    +0.000 A 
ATOM     12  N   UNL     1       1.115  11.480  18.840  0.00  0.00    +0.000 NA
ATOM     13  C   UNL     1       1.459  10.137  18.935  0.00  0.00    +0.000 A 
ATOM     14  C   UNL     1       1.951   9.315  17.901  0.00  0.00    +0.000 A 
ATOM     15  C   UNL     1       2.216   7.957  18.154  0.00  0.00    +0.000 A 
ATOM     16  C   UNL     1       2.001   7.405  19.421  0.00  0.00    +0.000 A 
ATOM     17  C   UNL     1       1.542   8.220  20.461  0.00  0.00    +0.000 A 
ATOM     18  C   UNL     1       1.285   9.571  20.194  0.00  0.00    +0.000 A 
ATOM     19  S   UNL     1       0.733  10.772  21.274  0.00  0.00    +0.000 S 
BRANCH  16  20
ATOM     20  C   UNL     1       2.222   5.993  19.687  0.00  0.00    +0.000 A 
ATOM     21  C   UNL     1       1.594   5.124  20.610  0.00  0.00    +0.000 A 
ATOM     22  N   UNL     1       2.098   3.890  20.583  0.00  0.00    +0.000 NA
ATOM     23  N   UNL     1       3.059   3.965  19.647  0.00  0.00    +0.000 N 
ATOM     24  C   UNL     1       3.861   2.805  19.337  0.00  0.00    +0.000 C 
ATOM     25  C   UNL     1       3.169   5.200  19.075  0.00  0.00    +0.000 A 
ENDBRANCH  16  20
ENDBRANCH   5  11
BRANCH   1  28
ATOM     26  C   UNL     1      -3.022  12.736  20.162  0.00  0.00    +0.000 C 
ATOM     27  O   UNL     1      -3.045  12.846  21.387  0.00  0.00    +0.000 OA
ATOM     28  N   UNL     1      -2.005  13.163  19.332  0.00  0.00    +0.000 N 
ATOM     29  H   UNL     1      -2.275  13.359  18.368  0.00  0.00    +0.000 HD
BRANCH  26  30
ATOM     30  C   UNL     1      -4.179  12.051  19.445  0.00  0.00    +0.000 C 
BRANCH  30  31
ATOM     31  C   UNL     1      -3.811  11.126  18.281  0.00  0.00    +0.000 C 
BRANCH  31  32
ATOM     32  N   UNL     1      -3.259  11.806  17.100  0.00  0.00    +0.000 NA
ATOM     33  H   UNL     1      -4.023  12.174  16.529  0.00  0.00    +0.000 HD
BRANCH  32  35
ATOM     34  C   UNL     1      -1.723   9.848  17.064  0.00  0.00    +0.000 C 
ATOM     35  C   UNL     1      -2.385  10.966  16.261  0.00  0.00    +0.000 C 
ATOM     36  C   UNL     1      -3.214  10.375  15.119  0.00  0.00    +0.000 C 
ENDBRANCH  32  35
ENDBRANCH  31  32
ENDBRANCH  30  31
ENDBRANCH  26  30
ENDBRANCH   1  28
TORSDOF 7
ENDMDL
MODEL 6
REMARK VINA RESULT:      -7.8      4.552     10.034
REMARK  Name = 
REMARK  10 active torsions:
REMARK  status: ('A' for Active; 'I' for Inactive)
REMARK    1  A    between atoms: C_1  and  C_2
REMARK    2  A    between atoms: C_2  and  C_3
REMARK    3  A    between atoms: C_2  and  N_4
REMARK    4  A    between atoms: N_4  and  C_5
REMARK    5  A    between atoms: C_5  and  C_6
REMARK    6  A    between atoms: C_6  and  C_7
REMARK    7  A    between atoms: N_9  and  C_10
REMARK    8  A    between atoms: C_14  and  C_15
REMARK    9  A    between atoms: C_20  and  C_21
REMARK   10  A    between atoms: N_24  and  C_25
REMARK                            x       y       z     vdW  Elec       q    Type
REMARK                         _______ _______ _______ _____ _____    ______ ____
ROOT
ATOM      1  C   UNL     1      -0.624  13.722  19.474  0.00  0.00    +0.000 A 
ATOM      2  S   UNL     1      -0.775  15.405  19.658  0.00  0.00    +0.000 S 
ATOM      3  C   UNL     1       0.771  15.515  20.346  0.00  0.00    +0.000 A 
ATOM      4  C   UNL     1       1.420  14.293  20.414  0.00  0.00    +0.000 A 
ATOM      5  C   UNL     1       0.592  13.226  19.906  0.00  0.00    +0.000 A 
ATOM      6  C   UNL     1       2.826  14.244  20.945  0.00  0.00    +0.000 C 
ATOM      7  C   UNL     1       3.216  15.551  21.664  0.00  0.00    +0.000 C 
ATOM      8  N   UNL     1       2.797  16.759  20.934  0.00  0.00    +0.000 NA
ATOM      9  C   UNL     1       1.325  16.818  20.842  0.00  0.00    +0.000 C 
ATOM     10  H   UNL     1       3.158  16.704  19.981  0.00  0.00    +0.000 HD
ENDROOT
BRANCH   5  11
ATOM     11  C   UNL     1       0.951  11.754  19.770  0.00  0.00    +0.000 A 
ATOM     12  N   UNL     1       1.413  11.242  18.642  0.00  0.00    +0.000 NA
ATOM     13  C   UNL     1       1.689   9.889  18.801  0.00  0.00    +0.000 A 
ATOM     14  C   UNL     1       2.217   9.013  17.831  0.00  0.00    +0.000 A 
ATOM     15  C   UNL     1       2.403   7.655  18.143  0.00  0.00    +0.000 A 
ATOM     16  C   UNL     1       2.073   7.154  19.407  0.00  0.00    +0.000 A 
ATOM     17  C   UNL     1       1.577   8.022  20.386  0.00  0.00    +0.000 A 
ATOM     18  C   UNL     1       1.400   9.373  20.060  0.00  0.00    +0.000 A 
ATOM     19  S   UNL     1       0.826  10.631  21.061  0.00  0.00    +0.000 S 
BRANCH  16  20
ATOM     20  C   UNL     1       2.211   5.744  19.729  0.00  0.00    +0.000 A 
ATOM     21  C   UNL     1       2.962   4.726  19.095  0.00  0.00    +0.000 A 
ATOM     22  N   UNL     1       2.806   3.534  19.670  0.00  0.00    +0.000 NA
ATOM     23  N   UNL     1       1.944   3.780  20.671  0.00  0.00    +0.000 N 
ATOM     24  C   UNL     1       1.506   2.705  21.530  0.00  0.00    +0.000 C 
ATOM     25  C   UNL     1       1.562   5.089  20.753  0.00  0.00    +0.000 A 
ENDBRANCH  16  20
ENDBRANCH   5  11
BRANCH   1  28
ATOM     26  C   UNL     1      -2.723  12.625  19.955  0.00  0.00    +0.000 C 
ATOM     27  O   UNL     1      -2.684  12.748  21.179  0.00  0.00    +0.000 OA
ATOM     28  N   UNL     1      -1.742  13.029  19.072  0.00  0.00    +0.000 N 
ATOM     29  H   UNL     1      -2.057  13.219  18.120  0.00  0.00    +0.000 HD
BRANCH  26  30
ATOM     30  C   UNL     1      -3.924  11.951  19.303  0.00  0.00    +0.000 C 
BRANCH  30  31
ATOM     31  C   UNL     1      -3.827  11.690  17.797  0.00  0.00    +0.000 C 
BRANCH  31  32
ATOM     32  N   UNL     1      -4.012  10.286  17.398  0.00  0.00    +0.000 NA
ATOM     33  H   UNL     1      -4.068   9.698  18.232  0.00  0.00    +0.000 HD
BRANCH  32  35
ATOM     34  C   UNL     1      -2.933  10.502  15.166  0.00  0.00    +0.000 C 
ATOM     35  C   UNL     1      -2.967   9.760  16.501  0.00  0.00    +0.000 C 
ATOM     36  C   UNL     1      -1.612   9.870  17.201  0.00  0.00    +0.000 C 
ENDBRANCH  32  35
ENDBRANCH  31  32
ENDBRANCH  30  31
ENDBRANCH  26  30
ENDBRANCH   1  28
TORSDOF 7
ENDMDL
MODEL 7
REMARK VINA RESULT:      -7.8      4.674     10.820
REMARK  Name = 
REMARK  10 active torsions:
REMARK  status: ('A' for Active; 'I' for Inactive)
REMARK    1  A    between atoms: C_1  and  C_2
REMARK    2  A    between atoms: C_2  and  C_3
REMARK    3  A    between atoms: C_2  and  N_4
REMARK    4  A    between atoms: N_4  and  C_5
REMARK    5  A    between atoms: C_5  and  C_6
REMARK    6  A    between atoms: C_6  and  C_7
REMARK    7  A    between atoms: N_9  and  C_10
REMARK    8  A    between atoms: C_14  and  C_15
REMARK    9  A    between atoms: C_20  and  C_21
REMARK   10  A    between atoms: N_24  and  C_25
REMARK                            x       y       z     vdW  Elec       q    Type
REMARK                         _______ _______ _______ _____ _____    ______ ____
ROOT
ATOM      1  C   UNL     1      -3.621  13.679  20.771  0.00  0.00    +0.000 A 
ATOM      2  S   UNL     1      -4.481  14.931  21.535  0.00  0.00    +0.000 S 
ATOM      3  C   UNL     1      -3.295  15.072  22.739  0.00  0.00    +0.000 A 
ATOM      4  C   UNL     1      -2.233  14.201  22.556  0.00  0.00    +0.000 A 
ATOM      5  C   UNL     1      -2.428  13.368  21.395  0.00  0.00    +0.000 A 
ATOM      6  C   UNL     1      -1.074  14.256  23.512  0.00  0.00    +0.000 C 
ATOM      7  C   UNL     1      -1.411  15.066  24.781  0.00  0.00    +0.000 C 
ATOM      8  N   UNL     1      -2.125  16.321  24.490  0.00  0.00    +0.000 NA
ATOM      9  C   UNL     1      -3.438  16.034  23.880  0.00  0.00    +0.000 C 
ATOM     10  H   UNL     1      -1.583  16.853  23.808  0.00  0.00    +0.000 HD
ENDROOT
BRANCH   5  11
ATOM     11  C   UNL     1      -1.478  12.319  20.833  0.00  0.00    +0.000 A 
ATOM     12  N   UNL     1      -0.938  12.429  19.631  0.00  0.00    +0.000 NA
ATOM     13  C   UNL     1      -0.091  11.357  19.381  0.00  0.00    +0.000 A 
ATOM     14  C   UNL     1       0.680  11.140  18.221  0.00  0.00    +0.000 A 
ATOM     15  C   UNL     1       1.463   9.976  18.109  0.00  0.00    +0.000 A 
ATOM     16  C   UNL     1       1.491   9.026  19.135  0.00  0.00    +0.000 A 
ATOM     17  C   UNL     1       0.753   9.247  20.302  0.00  0.00    +0.000 A 
ATOM     18  C   UNL     1      -0.019  10.413  20.400  0.00  0.00    +0.000 A 
ATOM     19  S   UNL     1      -0.995  10.923  21.704  0.00  0.00    +0.000 S 
BRANCH  16  20
ATOM     20  C   UNL     1       2.253   7.795  19.014  0.00  0.00    +0.000 A 
ATOM     21  C   UNL     1       3.110   7.342  17.983  0.00  0.00    +0.000 A 
ATOM     22  N   UNL     1       3.608   6.129  18.219  0.00  0.00    +0.000 NA
ATOM     23  N   UNL     1       3.064   5.792  19.401  0.00  0.00    +0.000 N 
ATOM     24  C   UNL     1       3.357   4.508  19.993  0.00  0.00    +0.000 C 
ATOM     25  C   UNL     1       2.251   6.758  19.922  0.00  0.00    +0.000 A 
ENDBRANCH  16  20
ENDBRANCH   5  11
BRANCH   1  28
ATOM     26  C   UNL     1      -5.298  12.152  19.938  0.00  0.00    +0.000 C 
ATOM     27  O   UNL     1      -5.734  11.791  21.031  0.00  0.00    +0.000 OA
ATOM     28  N   UNL     1      -4.248  13.024  19.736  0.00  0.00    +0.000 N 
ATOM     29  H   UNL     1      -4.249  13.516  18.842  0.00  0.00    +0.000 HD
BRANCH  26  30
ATOM     30  C   UNL     1      -5.916  11.597  18.660  0.00  0.00    +0.000 C 
BRANCH  30  31
ATOM     31  C   UNL     1      -5.390  12.172  17.341  0.00  0.00    +0.000 C 
BRANCH  31  32
ATOM     32  N   UNL     1      -3.970  11.901  17.070  0.00  0.00    +0.000 NA
ATOM     33  H   UNL     1      -3.622  12.567  16.377  0.00  0.00    +0.000 HD
BRANCH  32  35
ATOM     34  C   UNL     1      -2.996  10.514  15.248  0.00  0.00    +0.000 C 
ATOM     35  C   UNL     1      -3.684  10.530  16.612  0.00  0.00    +0.000 C 
ATOM     36  C   UNL     1      -2.807   9.832  17.653  0.00  0.00    +0.000 C 
ENDBRANCH  32  35
ENDBRANCH  31  32
ENDBRANCH  30  31
ENDBRANCH  26  30
ENDBRANCH   1  28
TORSDOF 7
ENDMDL
MODEL 8
REMARK VINA RESULT:      -7.8      4.497     10.419
REMARK  Name = 
REMARK  10 active torsions:
REMARK  status: ('A' for Active; 'I' for Inactive)
REMARK    1  A    between atoms: C_1  and  C_2
REMARK    2  A    between atoms: C_2  and  C_3
REMARK    3  A    between atoms: C_2  and  N_4
REMARK    4  A    between atoms: N_4  and  C_5
REMARK    5  A    between atoms: C_5  and  C_6
REMARK    6  A    between atoms: C_6  and  C_7
REMARK    7  A    between atoms: N_9  and  C_10
REMARK    8  A    between atoms: C_14  and  C_15
REMARK    9  A    between atoms: C_20  and  C_21
REMARK   10  A    between atoms: N_24  and  C_25
REMARK                            x       y       z     vdW  Elec       q    Type
REMARK                         _______ _______ _______ _____ _____    ______ ____
ROOT
ATOM      1  C   UNL     1      -0.247  13.179  18.376  0.00  0.00    +0.000 A 
ATOM      2  S   UNL     1      -0.475  14.860  18.482  0.00  0.00    +0.000 S 
ATOM      3  C   UNL     1       0.650  14.980  19.743  0.00  0.00    +0.000 A 
ATOM      4  C   UNL     1       1.226  13.763  20.071  0.00  0.00    +0.000 A 
ATOM      5  C   UNL     1       0.689  12.691  19.268  0.00  0.00    +0.000 A 
ATOM      6  C   UNL     1       2.291  13.724  21.132  0.00  0.00    +0.000 C 
ATOM      7  C   UNL     1       2.339  15.032  21.949  0.00  0.00    +0.000 C 
ATOM      8  N   UNL     1       2.246  16.239  21.110  0.00  0.00    +0.000 NA
ATOM      9  C   UNL     1       0.940  16.285  20.423  0.00  0.00    +0.000 C 
ATOM     10  H   UNL     1       2.967  16.190  20.390  0.00  0.00    +0.000 HD
ENDROOT
BRANCH   5  11
ATOM     11  C   UNL     1       1.086  11.223  19.292  0.00  0.00    +0.000 A 
ATOM     12  N   UNL     1       1.633  10.623  18.248  0.00  0.00    +0.000 NA
ATOM     13  C   UNL     1       1.925   9.298  18.549  0.00  0.00    +0.000 A 
ATOM     14  C   UNL     1       2.534   8.352  17.700  0.00  0.00    +0.000 A 
ATOM     15  C   UNL     1       2.726   7.033  18.146  0.00  0.00    +0.000 A 
ATOM     16  C   UNL     1       2.322   6.640  19.427  0.00  0.00    +0.000 A 
ATOM     17  C   UNL     1       1.743   7.579  20.287  0.00  0.00    +0.000 A 
ATOM     18  C   UNL     1       1.562   8.891  19.828  0.00  0.00    +0.000 A 
ATOM     19  S   UNL     1       0.897  10.218  20.670  0.00  0.00    +0.000 S 
BRANCH  16  20
ATOM     20  C   UNL     1       2.465   5.269  19.885  0.00  0.00    +0.000 A 
ATOM     21  C   UNL     1       1.610   4.474  20.685  0.00  0.00    +0.000 A 
ATOM     22  N   UNL     1       2.106   3.260  20.924  0.00  0.00    +0.000 NA
ATOM     23  N   UNL     1       3.289   3.274  20.286  0.00  0.00    +0.000 N 
ATOM     24  C   UNL     1       4.149   2.115  20.330  0.00  0.00    +0.000 C 
ATOM     25  C   UNL     1       3.548   4.451  19.643  0.00  0.00    +0.000 A 
ENDBRANCH  16  20
ENDBRANCH   5  11
BRANCH   1  28
ATOM     26  C   UNL     1      -2.270  11.911  18.002  0.00  0.00    +0.000 C 
ATOM     27  O   UNL     1      -2.652  11.881  19.171  0.00  0.00    +0.000 OA
ATOM     28  N   UNL     1      -1.096  12.478  17.551  0.00  0.00    +0.000 N 
ATOM     29  H   UNL     1      -1.093  12.767  16.572  0.00  0.00    +0.000 HD
BRANCH  26  30
ATOM     30  C   UNL     1      -3.115  11.255  16.916  0.00  0.00    +0.000 C 
BRANCH  30  31
ATOM     31  C   UNL     1      -4.631  11.251  17.140  0.00  0.00    +0.000 C 
BRANCH  31  32
ATOM     32  N   UNL     1      -5.162  12.451  17.804  0.00  0.00    +0.000 NA
ATOM     33  H   UNL     1      -4.452  12.839  18.427  0.00  0.00    +0.000 HD
BRANCH  32  35
ATOM     34  C   UNL     1      -6.794  10.755  18.610  0.00  0.00    +0.000 C 
ATOM     35  C   UNL     1      -6.407  12.232  18.561  0.00  0.00    +0.000 C 
ATOM     36  C   UNL     1      -6.228  12.777  19.979  0.00  0.00    +0.000 C 
ENDBRANCH  32  35
ENDBRANCH  31  32
ENDBRANCH  30  31
ENDBRANCH  26  30
ENDBRANCH   1  28
TORSDOF 7
ENDMDL
MODEL 9
REMARK VINA RESULT:      -7.7      1.963      2.844
REMARK  Name = 
REMARK  10 active torsions:
REMARK  status: ('A' for Active; 'I' for Inactive)
REMARK    1  A    between atoms: C_1  and  C_2
REMARK    2  A    between atoms: C_2  and  C_3
REMARK    3  A    between atoms: C_2  and  N_4
REMARK    4  A    between atoms: N_4  and  C_5
REMARK    5  A    between atoms: C_5  and  C_6
REMARK    6  A    between atoms: C_6  and  C_7
REMARK    7  A    between atoms: N_9  and  C_10
REMARK    8  A    between atoms: C_14  and  C_15
REMARK    9  A    between atoms: C_20  and  C_21
REMARK   10  A    between atoms: N_24  and  C_25
REMARK                            x       y       z     vdW  Elec       q    Type
REMARK                         _______ _______ _______ _____ _____    ______ ____
ROOT
ATOM      1  C   UNL     1       4.005   5.029  17.996  0.00  0.00    +0.000 A 
ATOM      2  S   UNL     1       4.273   3.386  17.652  0.00  0.00    +0.000 S 
ATOM      3  C   UNL     1       2.848   2.938  18.454  0.00  0.00    +0.000 A 
ATOM      4  C   UNL     1       2.148   4.022  18.957  0.00  0.00    +0.000 A 
ATOM      5  C   UNL     1       2.836   5.263  18.695  0.00  0.00    +0.000 A 
ATOM      6  C   UNL     1       0.830   3.784  19.640  0.00  0.00    +0.000 C 
ATOM      7  C   UNL     1       0.618   2.295  19.980  0.00  0.00    +0.000 C 
ATOM      8  N   UNL     1       0.997   1.392  18.879  0.00  0.00    +0.000 NA
ATOM      9  C   UNL     1       2.442   1.502  18.602  0.00  0.00    +0.000 C 
ATOM     10  H   UNL     1       0.503   1.685  18.035  0.00  0.00    +0.000 HD
ENDROOT
BRANCH   5  11
ATOM     11  C   UNL     1       2.379   6.672  19.046  0.00  0.00    +0.000 A 
ATOM     12  N   UNL     1       2.343   7.645  18.152  0.00  0.00    +0.000 NA
ATOM     13  C   UNL     1       1.861   8.814  18.727  0.00  0.00    +0.000 A 
ATOM     14  C   UNL     1       1.657  10.052  18.085  0.00  0.00    +0.000 A 
ATOM     15  C   UNL     1       1.194  11.155  18.824  0.00  0.00    +0.000 A 
ATOM     16  C   UNL     1       0.930  11.046  20.193  0.00  0.00    +0.000 A 
ATOM     17  C   UNL     1       1.101   9.814  20.833  0.00  0.00    +0.000 A 
ATOM     18  C   UNL     1       1.560   8.723  20.082  0.00  0.00    +0.000 A 
ATOM     19  S   UNL     1       1.841   7.125  20.611  0.00  0.00    +0.000 S 
BRANCH  16  20
ATOM     20  C   UNL     1       0.502  12.188  20.982  0.00  0.00    +0.000 A 
ATOM     21  C   UNL     1       0.986  13.518  21.011  0.00  0.00    +0.000 A 
ATOM     22  N   UNL     1       0.352  14.280  21.901  0.00  0.00    +0.000 NA
ATOM     23  N   UNL     1      -0.538  13.439  22.456  0.00  0.00    +0.000 N 
ATOM     24  C   UNL     1      -1.418  13.902  23.503  0.00  0.00    +0.000 C 
ATOM     25  C   UNL     1      -0.493  12.177  21.936  0.00  0.00    +0.000 A 
ENDBRANCH  16  20
ENDBRANCH   5  11
BRANCH   1  28
ATOM     26  C   UNL     1       6.210   5.940  18.379  0.00  0.00    +0.000 C 
ATOM     27  O   UNL     1       6.482   5.271  19.376  0.00  0.00    +0.000 OA
ATOM     28  N   UNL     1       5.015   5.911  17.689  0.00  0.00    +0.000 N 
ATOM     29  H   UNL     1       5.064   6.199  16.712  0.00  0.00    +0.000 HD
BRANCH  26  30
ATOM     30  C   UNL     1       7.235   6.925  17.830  0.00  0.00    +0.000 C 
BRANCH  30  31
ATOM     31  C   UNL     1       7.535   6.834  16.331  0.00  0.00    +0.000 C 
BRANCH  31  32
ATOM     32  N   UNL     1       7.577   5.467  15.790  0.00  0.00    +0.000 NA
ATOM     33  H   UNL     1       8.550   5.183  15.655  0.00  0.00    +0.000 HD
BRANCH  32  35
ATOM     34  C   UNL     1       7.770   5.251  13.318  0.00  0.00    +0.000 C 
ATOM     35  C   UNL     1       6.838   5.284  14.528  0.00  0.00    +0.000 C 
ATOM     36  C   UNL     1       6.032   3.987  14.609  0.00  0.00    +0.000 C 
ENDBRANCH  32  35
ENDBRANCH  31  32
ENDBRANCH  30  31
ENDBRANCH  26  30
ENDBRANCH   1  28
TORSDOF 7
ENDMDL
