MODEL 1
REMARK VINA RESULT:      -8.3      0.000      0.000
REMARK  Name = 
REMARK  8 active torsions:
REMARK  status: ('A' for Active; 'I' for Inactive)
REMARK    1  A    between atoms: N_3  and  C_4
REMARK    2  A    between atoms: C_9  and  O_10
REMARK    3  A    between atoms: O_10  and  C_11
REMARK    4  A    between atoms: N_15  and  C_16
REMARK    5  A    between atoms: C_21  and  S_22
REMARK    6  A    between atoms: S_22  and  C_25
REMARK    7  A    between atoms: C_25  and  C_26
REMARK    8  A    between atoms: C_31  and  O_32
REMARK                            x       y       z     vdW  Elec       q    Type
REMARK                         _______ _______ _______ _____ _____    ______ ____
ROOT
ATOM      1  C   UNL     1       0.846   9.311  21.562  0.00  0.00    +0.000 A 
ATOM      2  C   UNL     1      -0.039   9.180  22.628  0.00  0.00    +0.000 A 
ATOM      3  C   UNL     1      -0.929  10.196  22.947  0.00  0.00    +0.000 A 
ATOM      4  C   UNL     1      -0.995  11.364  22.183  0.00  0.00    +0.000 A 
ATOM      5 CL   UNL     1      -2.153  12.513  22.742  0.00  0.00    +0.000 Cl
ATOM      6  C   UNL     1      -0.155  11.523  21.072  0.00  0.00    +0.000 A 
ATOM      7  C   UNL     1       0.784  10.495  20.786  0.00  0.00    +0.000 A 
ENDROOT
BRANCH   1  11
ATOM      8  O   UNL     1       1.383   7.945  19.013  0.00  0.00    +0.000 OA
ATOM      9  C   UNL     1       1.968   7.653  20.054  0.00  0.00    +0.000 C 
ATOM     10  N   UNL     1       2.875   6.608  20.145  0.00  0.00    +0.000 N 
ATOM     11  N   UNL     1       1.807   8.309  21.284  0.00  0.00    +0.000 N 
ATOM     12  H   UNL     1       2.917   6.164  21.051  0.00  0.00    +0.000 HD
ATOM     13  H   UNL     1       2.486   8.108  22.012  0.00  0.00    +0.000 HD
BRANCH  10  14
ATOM     14  C   UNL     1       3.201   5.816  19.019  0.00  0.00    +0.000 A 
ATOM     15  C   UNL     1       4.341   6.195  18.285  0.00  0.00    +0.000 A 
ATOM     16  C   UNL     1       4.769   5.468  17.175  0.00  0.00    +0.000 A 
ATOM     17  C   UNL     1       4.042   4.364  16.759  0.00  0.00    +0.000 A 
ATOM     18  C   UNL     1       2.898   3.987  17.464  0.00  0.00    +0.000 A 
ATOM     19  C   UNL     1       2.478   4.680  18.618  0.00  0.00    +0.000 A 
BRANCH  19  20
ATOM     20  O   UNL     1       1.277   4.223  19.074  0.00  0.00    +0.000 OA
BRANCH  20  21
ATOM     21  C   UNL     1       1.101   2.949  19.659  0.00  0.00    +0.000 C 
ATOM     22  F   UNL     1       2.237   2.234  19.800  0.00  0.00    +0.000 F 
ATOM     23  F   UNL     1       0.554   3.105  20.884  0.00  0.00    +0.000 F 
ATOM     24  F   UNL     1       0.249   2.223  18.905  0.00  0.00    +0.000 F 
ENDBRANCH  20  21
ENDBRANCH  19  20
ENDBRANCH  10  14
ENDBRANCH   1  11
BRANCH   6  25
ATOM     25  S   UNL     1      -0.481  12.862  19.914  0.00  0.00    +0.000 S 
ATOM     26  O   UNL     1      -1.625  13.602  20.426  0.00  0.00    +0.000 OA
ATOM     27  O   UNL     1       0.777  13.558  19.742  0.00  0.00    +0.000 OA
BRANCH  25  28
ATOM     28  C   UNL     1      -0.963  12.167  18.329  0.00  0.00    +0.000 C 
BRANCH  28  29
ATOM     29  C   UNL     1      -1.953  10.981  18.421  0.00  0.00    +0.000 C 
ATOM     30  C   UNL     1      -1.836   9.926  17.329  0.00  0.00    +0.000 C 
ATOM     31  C   UNL     1      -2.659  10.497  16.196  0.00  0.00    +0.000 C 
ATOM     32  N   UNL     1      -3.821  11.098  16.859  0.00  0.00    +0.000 NA
ATOM     33  C   UNL     1      -3.405  11.451  18.228  0.00  0.00    +0.000 C 
ATOM     34  H   UNL     1      -4.562  10.398  16.912  0.00  0.00    +0.000 HD
ENDBRANCH  28  29
ENDBRANCH  25  28
ENDBRANCH   6  25
BRANCH   7  35
ATOM     35  O   UNL     1       1.680  10.585  19.751  0.00  0.00    +0.000 OA
ATOM     36  H   UNL     1       1.537  11.443  19.311  0.00  0.00    +0.000 HD
ENDBRANCH   7  35
TORSDOF 8
ENDMDL
MODEL 2
REMARK VINA RESULT:      -8.2      3.174      4.225
REMARK  Name = 
REMARK  8 active torsions:
REMARK  status: ('A' for Active; 'I' for Inactive)
REMARK    1  A    between atoms: N_3  and  C_4
REMARK    2  A    between atoms: C_9  and  O_10
REMARK    3  A    between atoms: O_10  and  C_11
REMARK    4  A    between atoms: N_15  and  C_16
REMARK    5  A    between atoms: C_21  and  S_22
REMARK    6  A    between atoms: S_22  and  C_25
REMARK    7  A    between atoms: C_25  and  C_26
REMARK    8  A    between atoms: C_31  and  O_32
REMARK                            x       y       z     vdW  Elec       q    Type
REMARK                         _______ _______ _______ _____ _____    ______ ____
ROOT
ATOM      1  C   UNL     1       1.522   8.665  20.186  0.00  0.00    +0.000 A 
ATOM      2  C   UNL     1       1.620   9.114  18.873  0.00  0.00    +0.000 A 
ATOM      3  C   UNL     1       0.996  10.287  18.471  0.00  0.00    +0.000 A 
ATOM      4  C   UNL     1       0.287  11.077  19.379  0.00  0.00    +0.000 A 
ATOM      5 CL   UNL     1      -0.425  12.487  18.689  0.00  0.00    +0.000 Cl
ATOM      6  C   UNL     1       0.199  10.689  20.724  0.00  0.00    +0.000 A 
ATOM      7  C   UNL     1       0.802   9.462  21.111  0.00  0.00    +0.000 A 
ENDROOT
BRANCH   1  11
ATOM      8  O   UNL     1       2.124   6.313  18.525  0.00  0.00    +0.000 OA
ATOM      9  C   UNL     1       2.295   6.323  19.742  0.00  0.00    +0.000 C 
ATOM     10  N   UNL     1       2.711   5.209  20.457  0.00  0.00    +0.000 N 
ATOM     11  N   UNL     1       2.091   7.430  20.580  0.00  0.00    +0.000 N 
ATOM     12  H   UNL     1       2.369   5.166  21.406  0.00  0.00    +0.000 HD
ATOM     13  H   UNL     1       2.455   7.372  21.526  0.00  0.00    +0.000 HD
BRANCH  10  14
ATOM     14  C   UNL     1       2.989   3.982  19.810  0.00  0.00    +0.000 A 
ATOM     15  C   UNL     1       1.894   3.134  19.561  0.00  0.00    +0.000 A 
ATOM     16  C   UNL     1       2.050   1.914  18.904  0.00  0.00    +0.000 A 
ATOM     17  C   UNL     1       3.316   1.505  18.513  0.00  0.00    +0.000 A 
ATOM     18  C   UNL     1       4.415   2.326  18.771  0.00  0.00    +0.000 A 
ATOM     19  C   UNL     1       4.270   3.585  19.389  0.00  0.00    +0.000 A 
BRANCH  19  20
ATOM     20  O   UNL     1       5.477   4.161  19.655  0.00  0.00    +0.000 OA
BRANCH  20  21
ATOM     21  C   UNL     1       6.094   5.101  18.801  0.00  0.00    +0.000 C 
ATOM     22  F   UNL     1       5.241   5.944  18.182  0.00  0.00    +0.000 F 
ATOM     23  F   UNL     1       6.959   5.844  19.526  0.00  0.00    +0.000 F 
ATOM     24  F   UNL     1       6.793   4.451  17.847  0.00  0.00    +0.000 F 
ENDBRANCH  20  21
ENDBRANCH  19  20
ENDBRANCH  10  14
ENDBRANCH   1  11
BRANCH   6  25
ATOM     25  S   UNL     1      -0.419  11.868  21.935  0.00  0.00    +0.000 S 
ATOM     26  O   UNL     1      -0.520  11.165  23.205  0.00  0.00    +0.000 OA
ATOM     27  O   UNL     1       0.448  13.025  21.847  0.00  0.00    +0.000 OA
BRANCH  25  28
ATOM     28  C   UNL     1      -2.080  12.373  21.472  0.00  0.00    +0.000 C 
BRANCH  28  29
ATOM     29  C   UNL     1      -3.035  12.614  22.666  0.00  0.00    +0.000 C 
ATOM     30  C   UNL     1      -4.493  12.873  22.314  0.00  0.00    +0.000 C 
ATOM     31  C   UNL     1      -4.527  14.355  22.015  0.00  0.00    +0.000 C 
ATOM     32  N   UNL     1      -3.642  14.948  23.021  0.00  0.00    +0.000 NA
ATOM     33  C   UNL     1      -2.674  13.909  23.415  0.00  0.00    +0.000 C 
ATOM     34  H   UNL     1      -4.200  15.201  23.837  0.00  0.00    +0.000 HD
ENDBRANCH  28  29
ENDBRANCH  25  28
ENDBRANCH   6  25
BRANCH   7  35
ATOM     35  O   UNL     1       0.723   8.976  22.392  0.00  0.00    +0.000 OA
ATOM     36  H   UNL     1       0.958   9.703  22.998  0.00  0.00    +0.000 HD
ENDBRANCH   7  35
TORSDOF 8
ENDMDL
MODEL 3
REMARK VINA RESULT:      -8.2      2.559      3.526
REMARK  Name = 
REMARK  8 active torsions:
REMARK  status: ('A' for Active; 'I' for Inactive)
REMARK    1  A    between atoms: N_3  and  C_4
REMARK    2  A    between atoms: C_9  and  O_10
REMARK    3  A    between atoms: O_10  and  C_11
REMARK    4  A    between atoms: N_15  and  C_16
REMARK    5  A    between atoms: C_21  and  S_22
REMARK    6  A    between atoms: S_22  and  C_25
REMARK    7  A    between atoms: C_25  and  C_26
REMARK    8  A    between atoms: C_31  and  O_32
REMARK                            x       y       z     vdW  Elec       q    Type
REMARK                         _______ _______ _______ _____ _____    ______ ____
ROOT
ATOM      1  C   UNL     1       0.766   9.487  19.859  0.00  0.00    +0.000 A 
ATOM      2  C   UNL     1       0.265   9.901  18.629  0.00  0.00    +0.000 A 
ATOM      3  C   UNL     1      -0.715  10.881  18.549  0.00  0.00    +0.000 A 
ATOM      4  C   UNL     1      -1.198  11.513  19.697  0.00  0.00    +0.000 A 
ATOM      5 CL   UNL     1      -2.420  12.692  19.397  0.00  0.00    +0.000 Cl
ATOM      6  C   UNL     1      -0.691  11.162  20.957  0.00  0.00    +0.000 A 
ATOM      7  C   UNL     1       0.277  10.124  21.027  0.00  0.00    +0.000 A 
ENDROOT
BRANCH   1  11
ATOM      8  O   UNL     1       1.876   7.836  17.691  0.00  0.00    +0.000 OA
ATOM      9  C   UNL     1       2.149   7.643  18.874  0.00  0.00    +0.000 C 
ATOM     10  N   UNL     1       2.941   6.589  19.305  0.00  0.00    +0.000 N 
ATOM     11  N   UNL     1       1.709   8.433  19.946  0.00  0.00    +0.000 N 
ATOM     12  H   UNL     1       2.718   6.245  20.228  0.00  0.00    +0.000 HD
ATOM     13  H   UNL     1       2.161   8.294  20.845  0.00  0.00    +0.000 HD
BRANCH  10  14
ATOM     14  C   UNL     1       3.506   5.670  18.389  0.00  0.00    +0.000 A 
ATOM     15  C   UNL     1       4.799   5.960  17.917  0.00  0.00    +0.000 A 
ATOM     16  C   UNL     1       5.462   5.107  17.034  0.00  0.00    +0.000 A 
ATOM     17  C   UNL     1       4.824   3.962  16.582  0.00  0.00    +0.000 A 
ATOM     18  C   UNL     1       3.533   3.671  17.026  0.00  0.00    +0.000 A 
ATOM     19  C   UNL     1       2.867   4.495  17.957  0.00  0.00    +0.000 A 
BRANCH  19  20
ATOM     20  O   UNL     1       1.579   4.096  18.156  0.00  0.00    +0.000 OA
BRANCH  20  21
ATOM     21  C   UNL     1       1.171   3.307  19.254  0.00  0.00    +0.000 C 
ATOM     22  F   UNL     1       2.178   2.698  19.915  0.00  0.00    +0.000 F 
ATOM     23  F   UNL     1       0.514   4.095  20.134  0.00  0.00    +0.000 F 
ATOM     24  F   UNL     1       0.321   2.349  18.829  0.00  0.00    +0.000 F 
ENDBRANCH  20  21
ENDBRANCH  19  20
ENDBRANCH  10  14
ENDBRANCH   1  11
BRANCH   6  25
ATOM     25  S   UNL     1      -1.071  12.204  22.374  0.00  0.00    +0.000 S 
ATOM     26  O   UNL     1      -0.621  11.493  23.562  0.00  0.00    +0.000 OA
ATOM     27  O   UNL     1      -0.499  13.502  22.082  0.00  0.00    +0.000 OA
BRANCH  25  28
ATOM     28  C   UNL     1      -2.852  12.390  22.508  0.00  0.00    +0.000 C 
BRANCH  28  29
ATOM     29  C   UNL     1      -3.330  13.096  23.800  0.00  0.00    +0.000 C 
ATOM     30  C   UNL     1      -4.468  12.417  24.551  0.00  0.00    +0.000 C 
ATOM     31  C   UNL     1      -5.707  12.920  23.844  0.00  0.00    +0.000 C 
ATOM     32  N   UNL     1      -5.419  14.330  23.567  0.00  0.00    +0.000 NA
ATOM     33  C   UNL     1      -3.954  14.467  23.488  0.00  0.00    +0.000 C 
ATOM     34  H   UNL     1      -5.759  14.891  24.349  0.00  0.00    +0.000 HD
ENDBRANCH  28  29
ENDBRANCH  25  28
ENDBRANCH   6  25
BRANCH   7  35
ATOM     35  O   UNL     1       0.792   9.678  22.218  0.00  0.00    +0.000 OA
ATOM     36  H   UNL     1       0.166   9.928  22.922  0.00  0.00    +0.000 HD
ENDBRANCH   7  35
TORSDOF 8
ENDMDL
MODEL 4
REMARK VINA RESULT:      -8.2      1.790      2.229
REMARK  Name = 
REMARK  8 active torsions:
REMARK  status: ('A' for Active; 'I' for Inactive)
REMARK    1  A    between atoms: N_3  and  C_4
REMARK    2  A    between atoms: C_9  and  O_10
REMARK    3  A    between atoms: O_10  and  C_11
REMARK    4  A    between atoms: N_15  and  C_16
REMARK    5  A    between atoms: C_21  and  S_22
REMARK    6  A    between atoms: S_22  and  C_25
REMARK    7  A    between atoms: C_25  and  C_26
REMARK    8  A    between atoms: C_31  and  O_32
REMARK                            x       y       z     vdW  Elec       q    Type
REMARK                         _______ _______ _______ _____ _____    ______ ____
ROOT
ATOM      1  C   UNL     1       1.364   8.932  19.306  0.00  0.00    +0.000 A 
ATOM      2  C   UNL     1       1.236   8.261  20.518  0.00  0.00    +0.000 A 
ATOM      3  C   UNL     1       0.520   8.816  21.570  0.00  0.00    +0.000 A 
ATOM      4  C   UNL     1      -0.131  10.045  21.431  0.00  0.00    +0.000 A 
ATOM      5 CL   UNL     1      -0.957  10.575  22.849  0.00  0.00    +0.000 Cl
ATOM      6  C   UNL     1      -0.068  10.738  20.213  0.00  0.00    +0.000 A 
ATOM      7  C   UNL     1       0.708  10.180  19.162  0.00  0.00    +0.000 A 
ENDROOT
BRANCH   1  11
ATOM      8  O   UNL     1       3.333   6.750  19.423  0.00  0.00    +0.000 OA
ATOM      9  C   UNL     1       3.128   7.399  18.400  0.00  0.00    +0.000 C 
ATOM     10  N   UNL     1       3.853   7.219  17.231  0.00  0.00    +0.000 N 
ATOM     11  N   UNL     1       2.159   8.403  18.259  0.00  0.00    +0.000 N 
ATOM     12  H   UNL     1       3.954   8.049  16.666  0.00  0.00    +0.000 HD
ATOM     13  H   UNL     1       1.952   8.723  17.318  0.00  0.00    +0.000 HD
BRANCH  10  14
ATOM     14  C   UNL     1       4.876   6.245  17.142  0.00  0.00    +0.000 A 
ATOM     15  C   UNL     1       6.199   6.700  17.290  0.00  0.00    +0.000 A 
ATOM     16  C   UNL     1       7.282   5.822  17.249  0.00  0.00    +0.000 A 
ATOM     17  C   UNL     1       7.059   4.472  17.025  0.00  0.00    +0.000 A 
ATOM     18  C   UNL     1       5.753   4.008  16.856  0.00  0.00    +0.000 A 
ATOM     19  C   UNL     1       4.643   4.873  16.945  0.00  0.00    +0.000 A 
BRANCH  19  20
ATOM     20  O   UNL     1       3.479   4.237  16.628  0.00  0.00    +0.000 OA
BRANCH  20  21
ATOM     21  C   UNL     1       2.652   3.607  17.584  0.00  0.00    +0.000 C 
ATOM     22  F   UNL     1       3.090   3.703  18.857  0.00  0.00    +0.000 F 
ATOM     23  F   UNL     1       1.421   4.160  17.526  0.00  0.00    +0.000 F 
ATOM     24  F   UNL     1       2.541   2.295  17.287  0.00  0.00    +0.000 F 
ENDBRANCH  20  21
ENDBRANCH  19  20
ENDBRANCH  10  14
ENDBRANCH   1  11
BRANCH   6  25
ATOM     25  S   UNL     1      -1.173  12.132  19.943  0.00  0.00    +0.000 S 
ATOM     26  O   UNL     1      -2.281  11.988  20.877  0.00  0.00    +0.000 OA
ATOM     27  O   UNL     1      -0.348  13.319  20.022  0.00  0.00    +0.000 OA
BRANCH  25  28
ATOM     28  C   UNL     1      -1.857  12.030  18.286  0.00  0.00    +0.000 C 
BRANCH  28  29
ATOM     29  C   UNL     1      -2.707  10.764  18.018  0.00  0.00    +0.000 C 
ATOM     30  C   UNL     1      -2.364   9.983  16.757  0.00  0.00    +0.000 C 
ATOM     31  C   UNL     1      -3.134  10.704  15.673  0.00  0.00    +0.000 C 
ATOM     32  N   UNL     1      -4.416  11.038  16.301  0.00  0.00    +0.000 NA
ATOM     33  C   UNL     1      -4.179  11.128  17.752  0.00  0.00    +0.000 C 
ATOM     34  H   UNL     1      -5.073  10.277  16.123  0.00  0.00    +0.000 HD
ENDBRANCH  28  29
ENDBRANCH  25  28
ENDBRANCH   6  25
BRANCH   7  35
ATOM     35  O   UNL     1       0.869  10.810  17.953  0.00  0.00    +0.000 OA
ATOM     36  H   UNL     1       0.982  10.120  17.274  0.00  0.00    +0.000 HD
ENDBRANCH   7  35
TORSDOF 8
ENDMDL
MODEL 5
REMARK VINA RESULT:      -8.2      0.811      1.132
REMARK  Name = 
REMARK  8 active torsions:
REMARK  status: ('A' for Active; 'I' for Inactive)
REMARK    1  A    between atoms: N_3  and  C_4
REMARK    2  A    between atoms: C_9  and  O_10
REMARK    3  A    between atoms: O_10  and  C_11
REMARK    4  A    between atoms: N_15  and  C_16
REMARK    5  A    between atoms: C_21  and  S_22
REMARK    6  A    between atoms: S_22  and  C_25
REMARK    7  A    between atoms: C_25  and  C_26
REMARK    8  A    between atoms: C_31  and  O_32
REMARK                            x       y       z     vdW  Elec       q    Type
REMARK                         _______ _______ _______ _____ _____    ______ ____
ROOT
ATOM      1  C   UNL     1       0.923   9.233  21.610  0.00  0.00    +0.000 A 
ATOM      2  C   UNL     1       0.145   9.100  22.756  0.00  0.00    +0.000 A 
ATOM      3  C   UNL     1      -0.770  10.079  23.117  0.00  0.00    +0.000 A 
ATOM      4  C   UNL     1      -0.972  11.208  22.320  0.00  0.00    +0.000 A 
ATOM      5 CL   UNL     1      -2.140  12.315  22.939  0.00  0.00    +0.000 Cl
ATOM      6  C   UNL     1      -0.245  11.365  21.131  0.00  0.00    +0.000 A 
ATOM      7  C   UNL     1       0.723  10.379  20.799  0.00  0.00    +0.000 A 
ENDROOT
BRANCH   1  11
ATOM      8  O   UNL     1       1.314   7.798  19.072  0.00  0.00    +0.000 OA
ATOM      9  C   UNL     1       2.002   7.580  20.067  0.00  0.00    +0.000 C 
ATOM     10  N   UNL     1       2.972   6.590  20.114  0.00  0.00    +0.000 N 
ATOM     11  N   UNL     1       1.912   8.274  21.283  0.00  0.00    +0.000 N 
ATOM     12  H   UNL     1       3.118   6.184  21.027  0.00  0.00    +0.000 HD
ATOM     13  H   UNL     1       2.661   8.139  21.954  0.00  0.00    +0.000 HD
BRANCH  10  14
ATOM     14  C   UNL     1       3.244   5.772  18.991  0.00  0.00    +0.000 A 
ATOM     15  C   UNL     1       4.207   6.246  18.080  0.00  0.00    +0.000 A 
ATOM     16  C   UNL     1       4.572   5.508  16.955  0.00  0.00    +0.000 A 
ATOM     17  C   UNL     1       3.954   4.292  16.704  0.00  0.00    +0.000 A 
ATOM     18  C   UNL     1       2.983   3.818  17.588  0.00  0.00    +0.000 A 
ATOM     19  C   UNL     1       2.637   4.527  18.757  0.00  0.00    +0.000 A 
BRANCH  19  20
ATOM     20  O   UNL     1       1.586   3.950  19.407  0.00  0.00    +0.000 OA
BRANCH  20  21
ATOM     21  C   UNL     1       1.721   2.836  20.264  0.00  0.00    +0.000 C 
ATOM     22  F   UNL     1       1.596   1.638  19.655  0.00  0.00    +0.000 F 
ATOM     23  F   UNL     1       2.939   2.880  20.847  0.00  0.00    +0.000 F 
ATOM     24  F   UNL     1       0.785   2.901  21.235  0.00  0.00    +0.000 F 
ENDBRANCH  20  21
ENDBRANCH  19  20
ENDBRANCH  10  14
ENDBRANCH   1  11
BRANCH   6  25
ATOM     25  S   UNL     1      -0.749  12.634  19.959  0.00  0.00    +0.000 S 
ATOM     26  O   UNL     1      -0.858  13.883  20.700  0.00  0.00    +0.000 OA
ATOM     27  O   UNL     1       0.188  12.558  18.858  0.00  0.00    +0.000 OA
BRANCH  25  28
ATOM     28  C   UNL     1      -2.387  12.242  19.334  0.00  0.00    +0.000 C 
BRANCH  28  29
ATOM     29  C   UNL     1      -2.404  11.633  17.912  0.00  0.00    +0.000 C 
ATOM     30  C   UNL     1      -3.752  11.622  17.205  0.00  0.00    +0.000 C 
ATOM     31  C   UNL     1      -4.415  10.366  17.728  0.00  0.00    +0.000 C 
ATOM     32  N   UNL     1      -3.331   9.382  17.786  0.00  0.00    +0.000 NA
ATOM     33  C   UNL     1      -2.072  10.131  17.945  0.00  0.00    +0.000 C 
ATOM     34  H   UNL     1      -3.301   8.878  16.898  0.00  0.00    +0.000 HD
ENDBRANCH  28  29
ENDBRANCH  25  28
ENDBRANCH   6  25
BRANCH   7  35
ATOM     35  O   UNL     1       1.517  10.473  19.684  0.00  0.00    +0.000 OA
ATOM     36  H   UNL     1       2.435  10.296  19.960  0.00  0.00    +0.000 HD
ENDBRANCH   7  35
TORSDOF 8
ENDMDL
MODEL 6
REMARK VINA RESULT:      -8.1      2.694      3.705
REMARK  Name = 
REMARK  8 active torsions:
REMARK  status: ('A' for Active; 'I' for Inactive)
REMARK    1  A    between atoms: N_3  and  C_4
REMARK    2  A    between atoms: C_9  and  O_10
REMARK    3  A    between atoms: O_10  and  C_11
REMARK    4  A    between atoms: N_15  and  C_16
REMARK    5  A    between atoms: C_21  and  S_22
REMARK    6  A    between atoms: S_22  and  C_25
REMARK    7  A    between atoms: C_25  and  C_26
REMARK    8  A    between atoms: C_31  and  O_32
REMARK                            x       y       z     vdW  Elec       q    Type
REMARK                         _______ _______ _______ _____ _____    ______ ____
ROOT
ATOM      1  C   UNL     1       0.989   9.311  19.606  0.00  0.00    +0.000 A 
ATOM      2  C   UNL     1       0.487   9.868  18.434  0.00  0.00    +0.000 A 
ATOM      3  C   UNL     1      -0.484  10.858  18.472  0.00  0.00    +0.000 A 
ATOM      4  C   UNL     1      -0.958  11.358  19.688  0.00  0.00    +0.000 A 
ATOM      5 CL   UNL     1      -2.171  12.574  19.531  0.00  0.00    +0.000 Cl
ATOM      6  C   UNL     1      -0.450  10.860  20.896  0.00  0.00    +0.000 A 
ATOM      7  C   UNL     1       0.509   9.813  20.842  0.00  0.00    +0.000 A 
ENDROOT
BRANCH   1  11
ATOM      8  O   UNL     1       2.435   8.225  17.286  0.00  0.00    +0.000 OA
ATOM      9  C   UNL     1       2.530   7.738  18.410  0.00  0.00    +0.000 C 
ATOM     10  N   UNL     1       3.263   6.590  18.678  0.00  0.00    +0.000 N 
ATOM     11  N   UNL     1       1.923   8.246  19.567  0.00  0.00    +0.000 N 
ATOM     12  H   UNL     1       2.909   6.033  19.442  0.00  0.00    +0.000 HD
ATOM     13  H   UNL     1       2.236   7.877  20.460  0.00  0.00    +0.000 HD
BRANCH  10  14
ATOM     14  C   UNL     1       3.972   5.915  17.656  0.00  0.00    +0.000 A 
ATOM     15  C   UNL     1       4.617   6.716  16.696  0.00  0.00    +0.000 A 
ATOM     16  C   UNL     1       5.368   6.155  15.663  0.00  0.00    +0.000 A 
ATOM     17  C   UNL     1       5.459   4.776  15.555  0.00  0.00    +0.000 A 
ATOM     18  C   UNL     1       4.808   3.967  16.489  0.00  0.00    +0.000 A 
ATOM     19  C   UNL     1       4.086   4.517  17.569  0.00  0.00    +0.000 A 
BRANCH  19  20
ATOM     20  O   UNL     1       3.433   3.556  18.282  0.00  0.00    +0.000 OA
BRANCH  20  21
ATOM     21  C   UNL     1       2.129   3.110  17.972  0.00  0.00    +0.000 C 
ATOM     22  F   UNL     1       1.348   2.866  19.045  0.00  0.00    +0.000 F 
ATOM     23  F   UNL     1       1.517   4.049  17.218  0.00  0.00    +0.000 F 
ATOM     24  F   UNL     1       2.203   1.972  17.250  0.00  0.00    +0.000 F 
ENDBRANCH  20  21
ENDBRANCH  19  20
ENDBRANCH  10  14
ENDBRANCH   1  11
BRANCH   6  25
ATOM     25  S   UNL     1      -0.816  11.735  22.425  0.00  0.00    +0.000 S 
ATOM     26  O   UNL     1      -0.491  10.835  23.523  0.00  0.00    +0.000 OA
ATOM     27  O   UNL     1      -0.123  13.003  22.337  0.00  0.00    +0.000 OA
BRANCH  25  28
ATOM     28  C   UNL     1      -2.580  12.061  22.510  0.00  0.00    +0.000 C 
BRANCH  28  29
ATOM     29  C   UNL     1      -3.003  13.024  23.646  0.00  0.00    +0.000 C 
ATOM     30  C   UNL     1      -4.144  12.549  24.535  0.00  0.00    +0.000 C 
ATOM     31  C   UNL     1      -5.382  12.950  23.764  0.00  0.00    +0.000 C 
ATOM     32  N   UNL     1      -5.054  14.266  23.210  0.00  0.00    +0.000 NA
ATOM     33  C   UNL     1      -3.588  14.330  23.081  0.00  0.00    +0.000 C 
ATOM     34  H   UNL     1      -5.356  14.982  23.872  0.00  0.00    +0.000 HD
ENDBRANCH  28  29
ENDBRANCH  25  28
ENDBRANCH   6  25
BRANCH   7  35
ATOM     35  O   UNL     1       1.024   9.228  21.971  0.00  0.00    +0.000 OA
ATOM     36  H   UNL     1       1.763   8.655  21.695  0.00  0.00    +0.000 HD
ENDBRANCH   7  35
TORSDOF 8
ENDMDL
MODEL 7
REMARK VINA RESULT:      -8.1      1.030      1.244
REMARK  Name = 
REMARK  8 active torsions:
REMARK  status: ('A' for Active; 'I' for Inactive)
REMARK    1  A    between atoms: N_3  and  C_4
REMARK    2  A    between atoms: C_9  and  O_10
REMARK    3  A    between atoms: O_10  and  C_11
REMARK    4  A    between atoms: N_15  and  C_16
REMARK    5  A    between atoms: C_21  and  S_22
REMARK    6  A    between atoms: S_22  and  C_25
REMARK    7  A    between atoms: C_25  and  C_26
REMARK    8  A    between atoms: C_31  and  O_32
REMARK                            x       y       z     vdW  Elec       q    Type
REMARK                         _______ _______ _______ _____ _____    ______ ____
ROOT
ATOM      1  C   UNL     1       1.098   8.861  21.269  0.00  0.00    +0.000 A 
ATOM      2  C   UNL     1       0.221   8.663  22.331  0.00  0.00    +0.000 A 
ATOM      3  C   UNL     1      -0.721   9.624  22.669  0.00  0.00    +0.000 A 
ATOM      4  C   UNL     1      -0.849  10.803  21.929  0.00  0.00    +0.000 A 
ATOM      5 CL   UNL     1      -2.065  11.878  22.509  0.00  0.00    +0.000 Cl
ATOM      6  C   UNL     1      -0.017  11.028  20.822  0.00  0.00    +0.000 A 
ATOM      7  C   UNL     1       0.974  10.056  20.517  0.00  0.00    +0.000 A 
ENDROOT
BRANCH   1  11
ATOM      8  O   UNL     1       1.760   7.639  18.676  0.00  0.00    +0.000 OA
ATOM      9  C   UNL     1       2.331   7.326  19.718  0.00  0.00    +0.000 C 
ATOM     10  N   UNL     1       3.283   6.319  19.787  0.00  0.00    +0.000 N 
ATOM     11  N   UNL     1       2.110   7.917  20.972  0.00  0.00    +0.000 N 
ATOM     12  H   UNL     1       3.322   5.836  20.673  0.00  0.00    +0.000 HD
ATOM     13  H   UNL     1       2.779   7.713  21.708  0.00  0.00    +0.000 HD
BRANCH  10  14
ATOM     14  C   UNL     1       3.672   5.596  18.635  0.00  0.00    +0.000 A 
ATOM     15  C   UNL     1       4.445   6.286  17.683  0.00  0.00    +0.000 A 
ATOM     16  C   UNL     1       4.907   5.661  16.526  0.00  0.00    +0.000 A 
ATOM     17  C   UNL     1       4.575   4.337  16.284  0.00  0.00    +0.000 A 
ATOM     18  C   UNL     1       3.792   3.644  17.210  0.00  0.00    +0.000 A 
ATOM     19  C   UNL     1       3.358   4.245  18.410  0.00  0.00    +0.000 A 
BRANCH  19  20
ATOM     20  O   UNL     1       2.509   3.434  19.103  0.00  0.00    +0.000 OA
BRANCH  20  21
ATOM     21  C   UNL     1       1.105   3.472  18.956  0.00  0.00    +0.000 C 
ATOM     22  F   UNL     1       0.516   2.262  18.861  0.00  0.00    +0.000 F 
ATOM     23  F   UNL     1       0.573   4.110  20.022  0.00  0.00    +0.000 F 
ATOM     24  F   UNL     1       0.788   4.171  17.845  0.00  0.00    +0.000 F 
ENDBRANCH  20  21
ENDBRANCH  19  20
ENDBRANCH  10  14
ENDBRANCH   1  11
BRANCH   6  25
ATOM     25  S   UNL     1      -0.411  12.371  19.692  0.00  0.00    +0.000 S 
ATOM     26  O   UNL     1      -0.339  13.609  20.455  0.00  0.00    +0.000 OA
ATOM     27  O   UNL     1       0.464  12.205  18.550  0.00  0.00    +0.000 OA
BRANCH  25  28
ATOM     28  C   UNL     1      -2.108  12.191  19.131  0.00  0.00    +0.000 C 
BRANCH  28  29
ATOM     29  C   UNL     1      -2.260  11.528  17.741  0.00  0.00    +0.000 C 
ATOM     30  C   UNL     1      -3.645  11.600  17.113  0.00  0.00    +0.000 C 
ATOM     31  C   UNL     1      -4.373  10.425  17.728  0.00  0.00    +0.000 C 
ATOM     32  N   UNL     1      -3.369   9.358  17.769  0.00  0.00    +0.000 NA
ATOM     33  C   UNL     1      -2.047  10.007  17.822  0.00  0.00    +0.000 C 
ATOM     34  H   UNL     1      -3.434   8.818  16.905  0.00  0.00    +0.000 HD
ENDBRANCH  28  29
ENDBRANCH  25  28
ENDBRANCH   6  25
BRANCH   7  35
ATOM     35  O   UNL     1       1.866  10.214  19.486  0.00  0.00    +0.000 OA
ATOM     36  H   UNL     1       2.483  10.926  19.736  0.00  0.00    +0.000 HD
ENDBRANCH   7  35
TORSDOF 8
ENDMDL
MODEL 8
REMARK VINA RESULT:      -8.0      2.430      3.021
REMARK  Name = 
REMARK  8 active torsions:
REMARK  status: ('A' for Active; 'I' for Inactive)
REMARK    1  A    between atoms: N_3  and  C_4
REMARK    2  A    between atoms: C_9  and  O_10
REMARK    3  A    between atoms: O_10  and  C_11
REMARK    4  A    between atoms: N_15  and  C_16
REMARK    5  A    between atoms: C_21  and  S_22
REMARK    6  A    between atoms: S_22  and  C_25
REMARK    7  A    between atoms: C_25  and  C_26
REMARK    8  A    between atoms: C_31  and  O_32
REMARK                            x       y       z     vdW  Elec       q    Type
REMARK                         _______ _______ _______ _____ _____    ______ ____
ROOT
ATOM      1  C   UNL     1       1.286   8.887  20.220  0.00  0.00    +0.000 A 
ATOM      2  C   UNL     1       1.106   8.607  21.571  0.00  0.00    +0.000 A 
ATOM      3  C   UNL     1       0.416   9.483  22.397  0.00  0.00    +0.000 A 
ATOM      4  C   UNL     1      -0.158  10.652  21.892  0.00  0.00    +0.000 A 
ATOM      5 CL   UNL     1      -0.962  11.617  23.073  0.00  0.00    +0.000 Cl
ATOM      6  C   UNL     1      -0.042  10.956  20.527  0.00  0.00    +0.000 A 
ATOM      7  C   UNL     1       0.707  10.074  19.703  0.00  0.00    +0.000 A 
ENDROOT
BRANCH   1  11
ATOM      8  O   UNL     1       1.434   5.950  20.253  0.00  0.00    +0.000 OA
ATOM      9  C   UNL     1       2.126   6.637  19.506  0.00  0.00    +0.000 C 
ATOM     10  N   UNL     1       3.093   6.104  18.665  0.00  0.00    +0.000 N 
ATOM     11  N   UNL     1       2.056   8.034  19.393  0.00  0.00    +0.000 N 
ATOM     12  H   UNL     1       3.877   6.714  18.485  0.00  0.00    +0.000 HD
ATOM     13  H   UNL     1       2.531   8.463  18.605  0.00  0.00    +0.000 HD
BRANCH  10  14
ATOM     14  C   UNL     1       3.327   4.710  18.605  0.00  0.00    +0.000 A 
ATOM     15  C   UNL     1       2.255   3.904  18.178  0.00  0.00    +0.000 A 
ATOM     16  C   UNL     1       2.385   2.521  18.054  0.00  0.00    +0.000 A 
ATOM     17  C   UNL     1       3.587   1.915  18.389  0.00  0.00    +0.000 A 
ATOM     18  C   UNL     1       4.653   2.698  18.833  0.00  0.00    +0.000 A 
ATOM     19  C   UNL     1       4.556   4.103  18.916  0.00  0.00    +0.000 A 
BRANCH  19  20
ATOM     20  O   UNL     1       5.664   4.654  19.488  0.00  0.00    +0.000 OA
BRANCH  20  21
ATOM     21  C   UNL     1       6.696   5.271  18.746  0.00  0.00    +0.000 C 
ATOM     22  F   UNL     1       7.569   4.414  18.177  0.00  0.00    +0.000 F 
ATOM     23  F   UNL     1       6.140   6.011  17.762  0.00  0.00    +0.000 F 
ATOM     24  F   UNL     1       7.396   6.097  19.551  0.00  0.00    +0.000 F 
ENDBRANCH  20  21
ENDBRANCH  19  20
ENDBRANCH  10  14
ENDBRANCH   1  11
BRANCH   6  25
ATOM     25  S   UNL     1      -1.058  12.270  19.836  0.00  0.00    +0.000 S 
ATOM     26  O   UNL     1      -2.338  12.234  20.530  0.00  0.00    +0.000 OA
ATOM     27  O   UNL     1      -0.260  13.476  19.911  0.00  0.00    +0.000 OA
BRANCH  25  28
ATOM     28  C   UNL     1      -1.383  11.916  18.105  0.00  0.00    +0.000 C 
BRANCH  28  29
ATOM     29  C   UNL     1      -2.517  10.892  17.859  0.00  0.00    +0.000 C 
ATOM     30  C   UNL     1      -2.300   9.916  16.710  0.00  0.00    +0.000 C 
ATOM     31  C   UNL     1      -2.765  10.691  15.497  0.00  0.00    +0.000 C 
ATOM     32  N   UNL     1      -3.955  11.410  15.960  0.00  0.00    +0.000 NA
ATOM     33  C   UNL     1      -3.813  11.592  17.416  0.00  0.00    +0.000 C 
ATOM     34  H   UNL     1      -4.776  10.830  15.781  0.00  0.00    +0.000 HD
ENDBRANCH  28  29
ENDBRANCH  25  28
ENDBRANCH   6  25
BRANCH   7  35
ATOM     35  O   UNL     1       0.917  10.315  18.369  0.00  0.00    +0.000 OA
ATOM     36  H   UNL     1       0.086  10.664  17.998  0.00  0.00    +0.000 HD
ENDBRANCH   7  35
TORSDOF 8
ENDMDL
MODEL 9
REMARK VINA RESULT:      -8.0      3.099      4.261
REMARK  Name = 
REMARK  8 active torsions:
REMARK  status: ('A' for Active; 'I' for Inactive)
REMARK    1  A    between atoms: N_3  and  C_4
REMARK    2  A    between atoms: C_9  and  O_10
REMARK    3  A    between atoms: O_10  and  C_11
REMARK    4  A    between atoms: N_15  and  C_16
REMARK    5  A    between atoms: C_21  and  S_22
REMARK    6  A    between atoms: S_22  and  C_25
REMARK    7  A    between atoms: C_25  and  C_26
REMARK    8  A    between atoms: C_31  and  O_32
REMARK                            x       y       z     vdW  Elec       q    Type
REMARK                         _______ _______ _______ _____ _____    ______ ____
ROOT
ATOM      1  C   UNL     1       1.578   8.626  20.103  0.00  0.00    +0.000 A 
ATOM      2  C   UNL     1       1.598   9.078  18.787  0.00  0.00    +0.000 A 
ATOM      3  C   UNL     1       0.906  10.221  18.413  0.00  0.00    +0.000 A 
ATOM      4  C   UNL     1       0.203  10.979  19.353  0.00  0.00    +0.000 A 
ATOM      5 CL   UNL     1      -0.602  12.356  18.697  0.00  0.00    +0.000 Cl
ATOM      6  C   UNL     1       0.191  10.589  20.700  0.00  0.00    +0.000 A 
ATOM      7  C   UNL     1       0.865   9.391  21.059  0.00  0.00    +0.000 A 
ENDROOT
BRANCH   1  11
ATOM      8  O   UNL     1       1.991   6.205  18.483  0.00  0.00    +0.000 OA
ATOM      9  C   UNL     1       2.326   6.274  19.663  0.00  0.00    +0.000 C 
ATOM     10  N   UNL     1       2.857   5.201  20.363  0.00  0.00    +0.000 N 
ATOM     11  N   UNL     1       2.219   7.417  20.469  0.00  0.00    +0.000 N 
ATOM     12  H   UNL     1       2.650   5.199  21.351  0.00  0.00    +0.000 HD
ATOM     13  H   UNL     1       2.710   7.408  21.358  0.00  0.00    +0.000 HD
BRANCH  10  14
ATOM     14  C   UNL     1       3.067   3.948  19.740  0.00  0.00    +0.000 A 
ATOM     15  C   UNL     1       1.945   3.107  19.614  0.00  0.00    +0.000 A 
ATOM     16  C   UNL     1       2.032   1.863  18.991  0.00  0.00    +0.000 A 
ATOM     17  C   UNL     1       3.256   1.422  18.511  0.00  0.00    +0.000 A 
ATOM     18  C   UNL     1       4.382   2.236  18.647  0.00  0.00    +0.000 A 
ATOM     19  C   UNL     1       4.303   3.519  19.229  0.00  0.00    +0.000 A 
BRANCH  19  20
ATOM     20  O   UNL     1       5.534   4.086  19.372  0.00  0.00    +0.000 OA
BRANCH  20  21
ATOM     21  C   UNL     1       6.162   4.847  18.362  0.00  0.00    +0.000 C 
ATOM     22  F   UNL     1       7.451   4.520  18.130  0.00  0.00    +0.000 F 
ATOM     23  F   UNL     1       5.479   4.684  17.208  0.00  0.00    +0.000 F 
ATOM     24  F   UNL     1       6.123   6.155  18.694  0.00  0.00    +0.000 F 
ENDBRANCH  20  21
ENDBRANCH  19  20
ENDBRANCH  10  14
ENDBRANCH   1  11
BRANCH   6  25
ATOM     25  S   UNL     1      -0.425  11.741  21.938  0.00  0.00    +0.000 S 
ATOM     26  O   UNL     1      -0.448  11.031  23.209  0.00  0.00    +0.000 OA
ATOM     27  O   UNL     1       0.391  12.931  21.821  0.00  0.00    +0.000 OA
BRANCH  25  28
ATOM     28  C   UNL     1      -2.121  12.179  21.543  0.00  0.00    +0.000 C 
BRANCH  28  29
ATOM     29  C   UNL     1      -2.618  13.488  22.203  0.00  0.00    +0.000 C 
ATOM     30  C   UNL     1      -2.754  13.462  23.720  0.00  0.00    +0.000 C 
ATOM     31  C   UNL     1      -4.122  12.856  23.942  0.00  0.00    +0.000 C 
ATOM     32  N   UNL     1      -4.956  13.449  22.893  0.00  0.00    +0.000 NA
ATOM     33  C   UNL     1      -4.062  13.812  21.780  0.00  0.00    +0.000 C 
ATOM     34  H   UNL     1      -5.383  14.301  23.260  0.00  0.00    +0.000 HD
ENDBRANCH  28  29
ENDBRANCH  25  28
ENDBRANCH   6  25
BRANCH   7  35
ATOM     35  O   UNL     1       0.864   8.903  22.342  0.00  0.00    +0.000 OA
ATOM     36  H   UNL     1       0.205   8.186  22.385  0.00  0.00    +0.000 HD
ENDBRANCH   7  35
TORSDOF 8
ENDMDL
