MODEL 1
REMARK VINA RESULT:      -7.3      0.000      0.000
REMARK  Name = 
REMARK  5 active torsions:
REMARK  status: ('A' for Active; 'I' for Inactive)
REMARK    1  A    between atoms: C_1  and  O_2
REMARK    2  A    between atoms: O_2  and  C_3
REMARK    3  A    between atoms: C_6  and  N_7
REMARK    4  A    between atoms: C_8  and  C_10
REMARK    5  A    between atoms: C_16  and  O_17
REMARK                            x       y       z     vdW  Elec       q    Type
REMARK                         _______ _______ _______ _____ _____    ______ ____
ROOT
ATOM      1  N   UNL     1       4.383   3.661  16.450  0.00  0.00    +0.000 N 
ATOM      2  C   UNL     1       5.017   4.762  15.903  0.00  0.00    +0.000 C 
ATOM      3  O   UNL     1       4.995   5.902  16.366  0.00  0.00    +0.000 OA
ATOM      4  H   UNL     1       4.528   2.777  15.966  0.00  0.00    +0.000 HD
ENDROOT
BRANCH   2   5
ATOM      5  C   UNL     1       5.800   4.558  14.643  0.00  0.00    +0.000 A 
ATOM      6  C   UNL     1       5.194   3.756  13.657  0.00  0.00    +0.000 A 
ATOM      7  C   UNL     1       5.846   3.485  12.458  0.00  0.00    +0.000 A 
ATOM      8 CL   UNL     1       5.089   2.489  11.279  0.00  0.00    +0.000 Cl
ATOM      9  C   UNL     1       7.110   4.014  12.215  0.00  0.00    +0.000 A 
ATOM     10  C   UNL     1       7.725   4.817  13.178  0.00  0.00    +0.000 A 
ATOM     11  C   UNL     1       7.076   5.086  14.389  0.00  0.00    +0.000 A 
BRANCH  11  12
ATOM     12  O   UNL     1       7.713   5.868  15.317  0.00  0.00    +0.000 OA
ATOM     13  H   UNL     1       7.914   6.732  14.915  0.00  0.00    +0.000 HD
ENDBRANCH  11  12
ENDBRANCH   2   5
BRANCH   1  17
ATOM     14  C   UNL     1       1.906   3.608  19.883  0.00  0.00    +0.000 A 
ATOM     15  C   UNL     1       3.243   3.242  19.990  0.00  0.00    +0.000 A 
ATOM     16  C   UNL     1       4.080   3.267  18.872  0.00  0.00    +0.000 A 
ATOM     17  C   UNL     1       3.590   3.640  17.618  0.00  0.00    +0.000 A 
ATOM     18  C   UNL     1       2.245   4.008  17.514  0.00  0.00    +0.000 A 
ATOM     19  C   UNL     1       1.404   3.992  18.640  0.00  0.00    +0.000 A 
BRANCH  14  21
ATOM     20  C   UNL     1       1.658   2.550  21.983  0.00  0.00    +0.000 C 
ATOM     21  O   UNL     1       1.193   3.510  21.044  0.00  0.00    +0.000 OA
ENDBRANCH  14  21
ENDBRANCH   1  17
TORSDOF 4
ENDMDL
MODEL 2
REMARK VINA RESULT:      -7.2      0.829      1.055
REMARK  Name = 
REMARK  5 active torsions:
REMARK  status: ('A' for Active; 'I' for Inactive)
REMARK    1  A    between atoms: C_1  and  O_2
REMARK    2  A    between atoms: O_2  and  C_3
REMARK    3  A    between atoms: C_6  and  N_7
REMARK    4  A    between atoms: C_8  and  C_10
REMARK    5  A    between atoms: C_16  and  O_17
REMARK                            x       y       z     vdW  Elec       q    Type
REMARK                         _______ _______ _______ _____ _____    ______ ____
ROOT
ATOM      1  N   UNL     1       4.042   3.697  16.183  0.00  0.00    +0.000 N 
ATOM      2  C   UNL     1       5.333   4.190  16.137  0.00  0.00    +0.000 C 
ATOM      3  O   UNL     1       5.985   4.580  17.105  0.00  0.00    +0.000 OA
ATOM      4  H   UNL     1       3.653   3.379  15.298  0.00  0.00    +0.000 HD
ENDROOT
BRANCH   2   5
ATOM      5  C   UNL     1       6.003   4.256  14.799  0.00  0.00    +0.000 A 
ATOM      6  C   UNL     1       5.459   3.438  13.789  0.00  0.00    +0.000 A 
ATOM      7  C   UNL     1       6.021   3.408  12.517  0.00  0.00    +0.000 A 
ATOM      8 CL   UNL     1       5.346   2.387  11.309  0.00  0.00    +0.000 Cl
ATOM      9  C   UNL     1       7.129   4.196  12.223  0.00  0.00    +0.000 A 
ATOM     10  C   UNL     1       7.678   5.019  13.208  0.00  0.00    +0.000 A 
ATOM     11  C   UNL     1       7.122   5.047  14.492  0.00  0.00    +0.000 A 
BRANCH  11  12
ATOM     12  O   UNL     1       7.693   5.856  15.440  0.00  0.00    +0.000 OA
ATOM     13  H   UNL     1       6.999   6.410  15.840  0.00  0.00    +0.000 HD
ENDBRANCH  11  12
ENDBRANCH   2   5
BRANCH   1  17
ATOM     14  C   UNL     1       1.645   3.178  19.635  0.00  0.00    +0.000 A 
ATOM     15  C   UNL     1       1.974   4.459  19.208  0.00  0.00    +0.000 A 
ATOM     16  C   UNL     1       2.751   4.652  18.064  0.00  0.00    +0.000 A 
ATOM     17  C   UNL     1       3.233   3.563  17.333  0.00  0.00    +0.000 A 
ATOM     18  C   UNL     1       2.901   2.275  17.765  0.00  0.00    +0.000 A 
ATOM     19  C   UNL     1       2.111   2.080  18.911  0.00  0.00    +0.000 A 
BRANCH  14  21
ATOM     20  C   UNL     1       1.599   2.715  21.953  0.00  0.00    +0.000 C 
ATOM     21  O   UNL     1       0.907   3.129  20.783  0.00  0.00    +0.000 OA
ENDBRANCH  14  21
ENDBRANCH   1  17
TORSDOF 4
ENDMDL
MODEL 3
REMARK VINA RESULT:      -6.5      5.201      7.994
REMARK  Name = 
REMARK  5 active torsions:
REMARK  status: ('A' for Active; 'I' for Inactive)
REMARK    1  A    between atoms: C_1  and  O_2
REMARK    2  A    between atoms: O_2  and  C_3
REMARK    3  A    between atoms: C_6  and  N_7
REMARK    4  A    between atoms: C_8  and  C_10
REMARK    5  A    between atoms: C_16  and  O_17
REMARK                            x       y       z     vdW  Elec       q    Type
REMARK                         _______ _______ _______ _____ _____    ______ ____
ROOT
ATOM      1  N   UNL     1       2.523   7.010  18.617  0.00  0.00    +0.000 N 
ATOM      2  C   UNL     1       2.151   8.288  18.242  0.00  0.00    +0.000 C 
ATOM      3  O   UNL     1       2.511   8.865  17.216  0.00  0.00    +0.000 OA
ATOM      4  H   UNL     1       2.110   6.660  19.480  0.00  0.00    +0.000 HD
ENDROOT
BRANCH   2   5
ATOM      5  C   UNL     1       1.233   9.041  19.155  0.00  0.00    +0.000 A 
ATOM      6  C   UNL     1       0.412  10.012  18.551  0.00  0.00    +0.000 A 
ATOM      7  C   UNL     1      -0.461  10.782  19.312  0.00  0.00    +0.000 A 
ATOM      8 CL   UNL     1      -1.439  11.973  18.550  0.00  0.00    +0.000 Cl
ATOM      9  C   UNL     1      -0.540  10.594  20.689  0.00  0.00    +0.000 A 
ATOM     10  C   UNL     1       0.261   9.631  21.306  0.00  0.00    +0.000 A 
ATOM     11  C   UNL     1       1.147   8.859  20.545  0.00  0.00    +0.000 A 
BRANCH  11  12
ATOM     12  O   UNL     1       1.928   7.931  21.184  0.00  0.00    +0.000 OA
ATOM     13  H   UNL     1       2.070   7.175  20.586  0.00  0.00    +0.000 HD
ENDBRANCH  11  12
ENDBRANCH   2   5
BRANCH   1  17
ATOM     14  C   UNL     1       5.013   4.327  16.491  0.00  0.00    +0.000 A 
ATOM     15  C   UNL     1       5.407   5.650  16.658  0.00  0.00    +0.000 A 
ATOM     16  C   UNL     1       4.606   6.547  17.369  0.00  0.00    +0.000 A 
ATOM     17  C   UNL     1       3.384   6.142  17.910  0.00  0.00    +0.000 A 
ATOM     18  C   UNL     1       2.991   4.811  17.741  0.00  0.00    +0.000 A 
ATOM     19  C   UNL     1       3.800   3.905  17.034  0.00  0.00    +0.000 A 
BRANCH  14  21
ATOM     20  C   UNL     1       6.321   4.137  14.531  0.00  0.00    +0.000 C 
ATOM     21  O   UNL     1       5.872   3.565  15.751  0.00  0.00    +0.000 OA
ENDBRANCH  14  21
ENDBRANCH   1  17
TORSDOF 4
ENDMDL
MODEL 4
REMARK VINA RESULT:      -6.5      7.045      8.168
REMARK  Name = 
REMARK  5 active torsions:
REMARK  status: ('A' for Active; 'I' for Inactive)
REMARK    1  A    between atoms: C_1  and  O_2
REMARK    2  A    between atoms: O_2  and  C_3
REMARK    3  A    between atoms: C_6  and  N_7
REMARK    4  A    between atoms: C_8  and  C_10
REMARK    5  A    between atoms: C_16  and  O_17
REMARK                            x       y       z     vdW  Elec       q    Type
REMARK                         _______ _______ _______ _____ _____    ______ ____
ROOT
ATOM      1  N   UNL     1       8.801   8.448  18.767  0.00  0.00    +0.000 N 
ATOM      2  C   UNL     1       8.650   9.765  18.372  0.00  0.00    +0.000 C 
ATOM      3  O   UNL     1       7.753  10.197  17.648  0.00  0.00    +0.000 OA
ATOM      4  H   UNL     1       9.577   8.258  19.398  0.00  0.00    +0.000 HD
ENDROOT
BRANCH   2   5
ATOM      5  C   UNL     1       9.659  10.757  18.864  0.00  0.00    +0.000 A 
ATOM      6  C   UNL     1      10.397  11.437  17.875  0.00  0.00    +0.000 A 
ATOM      7  C   UNL     1      11.375  12.362  18.226  0.00  0.00    +0.000 A 
ATOM      8 CL   UNL     1      12.273  13.164  16.999  0.00  0.00    +0.000 Cl
ATOM      9  C   UNL     1      11.631  12.635  19.566  0.00  0.00    +0.000 A 
ATOM     10  C   UNL     1      10.904  11.977  20.561  0.00  0.00    +0.000 A 
ATOM     11  C   UNL     1       9.925  11.039  20.213  0.00  0.00    +0.000 A 
BRANCH  11  12
ATOM     12  O   UNL     1       9.239  10.402  21.214  0.00  0.00    +0.000 OA
ATOM     13  H   UNL     1       9.846   9.794  21.673  0.00  0.00    +0.000 HD
ENDBRANCH  11  12
ENDBRANCH   2   5
BRANCH   1  17
ATOM     14  C   UNL     1       6.298   5.246  17.584  0.00  0.00    +0.000 A 
ATOM     15  C   UNL     1       7.125   5.103  18.691  0.00  0.00    +0.000 A 
ATOM     16  C   UNL     1       7.948   6.153  19.107  0.00  0.00    +0.000 A 
ATOM     17  C   UNL     1       7.973   7.362  18.408  0.00  0.00    +0.000 A 
ATOM     18  C   UNL     1       7.140   7.502  17.293  0.00  0.00    +0.000 A 
ATOM     19  C   UNL     1       6.306   6.450  16.880  0.00  0.00    +0.000 A 
BRANCH  14  21
ATOM     20  C   UNL     1       4.571   3.755  18.205  0.00  0.00    +0.000 C 
ATOM     21  O   UNL     1       5.570   4.134  17.268  0.00  0.00    +0.000 OA
ENDBRANCH  14  21
ENDBRANCH   1  17
TORSDOF 4
ENDMDL
MODEL 5
REMARK VINA RESULT:      -6.4      5.856      8.487
REMARK  Name = 
REMARK  5 active torsions:
REMARK  status: ('A' for Active; 'I' for Inactive)
REMARK    1  A    between atoms: C_1  and  O_2
REMARK    2  A    between atoms: O_2  and  C_3
REMARK    3  A    between atoms: C_6  and  N_7
REMARK    4  A    between atoms: C_8  and  C_10
REMARK    5  A    between atoms: C_16  and  O_17
REMARK                            x       y       z     vdW  Elec       q    Type
REMARK                         _______ _______ _______ _____ _____    ______ ____
ROOT
ATOM      1  N   UNL     1       2.176   7.564  18.964  0.00  0.00    +0.000 N 
ATOM      2  C   UNL     1       1.699   8.787  18.529  0.00  0.00    +0.000 C 
ATOM      3  O   UNL     1       1.914   9.287  17.425  0.00  0.00    +0.000 OA
ATOM      4  H   UNL     1       1.878   7.274  19.893  0.00  0.00    +0.000 HD
ENDROOT
BRANCH   2   5
ATOM      5  C   UNL     1       0.847   9.577  19.474  0.00  0.00    +0.000 A 
ATOM      6  C   UNL     1       0.929   9.218  20.833  0.00  0.00    +0.000 A 
ATOM      7  C   UNL     1       0.162   9.873  21.791  0.00  0.00    +0.000 A 
ATOM      8 CL   UNL     1       0.269   9.403  23.441  0.00  0.00    +0.000 Cl
ATOM      9  C   UNL     1      -0.695  10.903  21.415  0.00  0.00    +0.000 A 
ATOM     10  C   UNL     1      -0.785  11.279  20.073  0.00  0.00    +0.000 A 
ATOM     11  C   UNL     1      -0.021  10.617  19.105  0.00  0.00    +0.000 A 
BRANCH  11  12
ATOM     12  O   UNL     1      -0.142  11.001  17.795  0.00  0.00    +0.000 OA
ATOM     13  H   UNL     1      -1.023  10.740  17.471  0.00  0.00    +0.000 HD
ENDBRANCH  11  12
ENDBRANCH   2   5
BRANCH   1  17
ATOM     14  C   UNL     1       4.556   4.816  16.794  0.00  0.00    +0.000 A 
ATOM     15  C   UNL     1       4.929   6.154  16.857  0.00  0.00    +0.000 A 
ATOM     16  C   UNL     1       4.165   7.073  17.579  0.00  0.00    +0.000 A 
ATOM     17  C   UNL     1       3.000   6.675  18.239  0.00  0.00    +0.000 A 
ATOM     18  C   UNL     1       2.627   5.329  18.174  0.00  0.00    +0.000 A 
ATOM     19  C   UNL     1       3.400   4.401  17.455  0.00  0.00    +0.000 A 
BRANCH  14  21
ATOM     20  C   UNL     1       6.719   4.466  15.905  0.00  0.00    +0.000 C 
ATOM     21  O   UNL     1       5.372   4.031  16.030  0.00  0.00    +0.000 OA
ENDBRANCH  14  21
ENDBRANCH   1  17
TORSDOF 4
ENDMDL
MODEL 6
REMARK VINA RESULT:      -6.4      5.271      8.093
REMARK  Name = 
REMARK  5 active torsions:
REMARK  status: ('A' for Active; 'I' for Inactive)
REMARK    1  A    between atoms: C_1  and  O_2
REMARK    2  A    between atoms: O_2  and  C_3
REMARK    3  A    between atoms: C_6  and  N_7
REMARK    4  A    between atoms: C_8  and  C_10
REMARK    5  A    between atoms: C_16  and  O_17
REMARK                            x       y       z     vdW  Elec       q    Type
REMARK                         _______ _______ _______ _____ _____    ______ ____
ROOT
ATOM      1  N   UNL     1       2.484   7.064  18.675  0.00  0.00    +0.000 N 
ATOM      2  C   UNL     1       2.070   8.330  18.302  0.00  0.00    +0.000 C 
ATOM      3  O   UNL     1       2.361   8.896  17.250  0.00  0.00    +0.000 OA
ATOM      4  H   UNL     1       2.127   6.721  19.564  0.00  0.00    +0.000 HD
ENDROOT
BRANCH   2   5
ATOM      5  C   UNL     1       1.192   9.081  19.255  0.00  0.00    +0.000 A 
ATOM      6  C   UNL     1       0.378  10.083  18.693  0.00  0.00    +0.000 A 
ATOM      7  C   UNL     1      -0.458  10.854  19.494  0.00  0.00    +0.000 A 
ATOM      8 CL   UNL     1      -1.429  12.082  18.783  0.00  0.00    +0.000 Cl
ATOM      9  C   UNL     1      -0.506  10.637  20.868  0.00  0.00    +0.000 A 
ATOM     10  C   UNL     1       0.289   9.644  21.443  0.00  0.00    +0.000 A 
ATOM     11  C   UNL     1       1.138   8.870  20.643  0.00  0.00    +0.000 A 
BRANCH  11  12
ATOM     12  O   UNL     1       1.914   7.911  21.241  0.00  0.00    +0.000 OA
ATOM     13  H   UNL     1       1.392   7.093  21.325  0.00  0.00    +0.000 HD
ENDBRANCH  11  12
ENDBRANCH   2   5
BRANCH   1  17
ATOM     14  C   UNL     1       5.074   4.556  16.455  0.00  0.00    +0.000 A 
ATOM     15  C   UNL     1       3.907   4.033  17.001  0.00  0.00    +0.000 A 
ATOM     16  C   UNL     1       3.032   4.848  17.724  0.00  0.00    +0.000 A 
ATOM     17  C   UNL     1       3.319   6.199  17.932  0.00  0.00    +0.000 A 
ATOM     18  C   UNL     1       4.494   6.721  17.383  0.00  0.00    +0.000 A 
ATOM     19  C   UNL     1       5.370   5.905  16.647  0.00  0.00    +0.000 A 
BRANCH  14  21
ATOM     20  C   UNL     1       6.338   4.043  14.524  0.00  0.00    +0.000 C 
ATOM     21  O   UNL     1       5.855   3.646  15.800  0.00  0.00    +0.000 OA
ENDBRANCH  14  21
ENDBRANCH   1  17
TORSDOF 4
ENDMDL
MODEL 7
REMARK VINA RESULT:      -6.4      2.454      2.575
REMARK  Name = 
REMARK  5 active torsions:
REMARK  status: ('A' for Active; 'I' for Inactive)
REMARK    1  A    between atoms: C_1  and  O_2
REMARK    2  A    between atoms: O_2  and  C_3
REMARK    3  A    between atoms: C_6  and  N_7
REMARK    4  A    between atoms: C_8  and  C_10
REMARK    5  A    between atoms: C_16  and  O_17
REMARK                            x       y       z     vdW  Elec       q    Type
REMARK                         _______ _______ _______ _____ _____    ______ ____
ROOT
ATOM      1  N   UNL     1       4.572   5.983  16.583  0.00  0.00    +0.000 N 
ATOM      2  C   UNL     1       4.876   4.707  16.145  0.00  0.00    +0.000 C 
ATOM      3  O   UNL     1       4.500   3.661  16.672  0.00  0.00    +0.000 OA
ATOM      4  H   UNL     1       4.931   6.748  16.015  0.00  0.00    +0.000 HD
ENDROOT
BRANCH   2   5
ATOM      5  C   UNL     1       5.735   4.579  14.924  0.00  0.00    +0.000 A 
ATOM      6  C   UNL     1       5.240   3.748  13.900  0.00  0.00    +0.000 A 
ATOM      7  C   UNL     1       5.970   3.543  12.734  0.00  0.00    +0.000 A 
ATOM      8 CL   UNL     1       5.350   2.511  11.507  0.00  0.00    +0.000 Cl
ATOM      9  C   UNL     1       7.202   4.167  12.561  0.00  0.00    +0.000 A 
ATOM     10  C   UNL     1       7.706   5.000  13.562  0.00  0.00    +0.000 A 
ATOM     11  C   UNL     1       6.979   5.203  14.741  0.00  0.00    +0.000 A 
BRANCH  11  12
ATOM     12  O   UNL     1       7.508   6.017  15.709  0.00  0.00    +0.000 OA
ATOM     13  H   UNL     1       7.578   5.513  16.539  0.00  0.00    +0.000 HD
ENDBRANCH  11  12
ENDBRANCH   2   5
BRANCH   1  17
ATOM     14  C   UNL     1       2.188   7.088  19.903  0.00  0.00    +0.000 A 
ATOM     15  C   UNL     1       2.871   5.878  19.915  0.00  0.00    +0.000 A 
ATOM     16  C   UNL     1       3.675   5.502  18.836  0.00  0.00    +0.000 A 
ATOM     17  C   UNL     1       3.794   6.322  17.712  0.00  0.00    +0.000 A 
ATOM     18  C   UNL     1       3.106   7.539  17.702  0.00  0.00    +0.000 A 
ATOM     19  C   UNL     1       2.305   7.923  18.791  0.00  0.00    +0.000 A 
BRANCH  14  21
ATOM     20  C   UNL     1       1.178   8.683  21.327  0.00  0.00    +0.000 C 
ATOM     21  O   UNL     1       1.415   7.319  21.005  0.00  0.00    +0.000 OA
ENDBRANCH  14  21
ENDBRANCH   1  17
TORSDOF 4
ENDMDL
MODEL 8
REMARK VINA RESULT:      -6.3      5.342      8.176
REMARK  Name = 
REMARK  5 active torsions:
REMARK  status: ('A' for Active; 'I' for Inactive)
REMARK    1  A    between atoms: C_1  and  O_2
REMARK    2  A    between atoms: O_2  and  C_3
REMARK    3  A    between atoms: C_6  and  N_7
REMARK    4  A    between atoms: C_8  and  C_10
REMARK    5  A    between atoms: C_16  and  O_17
REMARK                            x       y       z     vdW  Elec       q    Type
REMARK                         _______ _______ _______ _____ _____    ______ ____
ROOT
ATOM      1  N   UNL     1       2.918   7.495  18.166  0.00  0.00    +0.000 N 
ATOM      2  C   UNL     1       2.295   7.388  19.396  0.00  0.00    +0.000 C 
ATOM      3  O   UNL     1       2.361   6.417  20.149  0.00  0.00    +0.000 OA
ATOM      4  H   UNL     1       2.796   8.381  17.679  0.00  0.00    +0.000 HD
ENDROOT
BRANCH   2   5
ATOM      5  C   UNL     1       1.471   8.549  19.860  0.00  0.00    +0.000 A 
ATOM      6  C   UNL     1       1.100   8.547  21.219  0.00  0.00    +0.000 A 
ATOM      7  C   UNL     1       0.315   9.567  21.745  0.00  0.00    +0.000 A 
ATOM      8 CL   UNL     1      -0.137   9.530  23.404  0.00  0.00    +0.000 Cl
ATOM      9  C   UNL     1      -0.108  10.615  20.932  0.00  0.00    +0.000 A 
ATOM     10  C   UNL     1       0.255  10.639  19.584  0.00  0.00    +0.000 A 
ATOM     11  C   UNL     1       1.038   9.610  19.047  0.00  0.00    +0.000 A 
BRANCH  11  12
ATOM     12  O   UNL     1       1.366   9.657  17.717  0.00  0.00    +0.000 OA
ATOM     13  H   UNL     1       0.617  10.037  17.223  0.00  0.00    +0.000 HD
ENDBRANCH  11  12
ENDBRANCH   2   5
BRANCH   1  17
ATOM     14  C   UNL     1       5.245   4.484  16.310  0.00  0.00    +0.000 A 
ATOM     15  C   UNL     1       5.659   5.810  16.254  0.00  0.00    +0.000 A 
ATOM     16  C   UNL     1       4.913   6.816  16.873  0.00  0.00    +0.000 A 
ATOM     17  C   UNL     1       3.725   6.517  17.543  0.00  0.00    +0.000 A 
ATOM     18  C   UNL     1       3.310   5.183  17.597  0.00  0.00    +0.000 A 
ATOM     19  C   UNL     1       4.065   4.168  16.983  0.00  0.00    +0.000 A 
BRANCH  14  21
ATOM     20  C   UNL     1       6.263   3.884  14.262  0.00  0.00    +0.000 C 
ATOM     21  O   UNL     1       6.048   3.606  15.639  0.00  0.00    +0.000 OA
ENDBRANCH  14  21
ENDBRANCH   1  17
TORSDOF 4
ENDMDL
MODEL 9
REMARK VINA RESULT:      -6.3      5.877      8.522
REMARK  Name = 
REMARK  5 active torsions:
REMARK  status: ('A' for Active; 'I' for Inactive)
REMARK    1  A    between atoms: C_1  and  O_2
REMARK    2  A    between atoms: O_2  and  C_3
REMARK    3  A    between atoms: C_6  and  N_7
REMARK    4  A    between atoms: C_8  and  C_10
REMARK    5  A    between atoms: C_16  and  O_17
REMARK                            x       y       z     vdW  Elec       q    Type
REMARK                         _______ _______ _______ _____ _____    ______ ____
ROOT
ATOM      1  N   UNL     1       2.139   7.585  18.932  0.00  0.00    +0.000 N 
ATOM      2  C   UNL     1       1.686   8.825  18.518  0.00  0.00    +0.000 C 
ATOM      3  O   UNL     1       1.921   9.344  17.427  0.00  0.00    +0.000 OA
ATOM      4  H   UNL     1       1.827   7.280  19.851  0.00  0.00    +0.000 HD
ENDROOT
BRANCH   2   5
ATOM      5  C   UNL     1       0.837   9.607  19.472  0.00  0.00    +0.000 A 
ATOM      6  C   UNL     1       0.916   9.233  20.827  0.00  0.00    +0.000 A 
ATOM      7  C   UNL     1       0.151   9.881  21.791  0.00  0.00    +0.000 A 
ATOM      8 CL   UNL     1       0.256   9.393  23.436  0.00  0.00    +0.000 Cl
ATOM      9  C   UNL     1      -0.702  10.919  21.426  0.00  0.00    +0.000 A 
ATOM     10  C   UNL     1      -0.790  11.309  20.088  0.00  0.00    +0.000 A 
ATOM     11  C   UNL     1      -0.027  10.654  19.113  0.00  0.00    +0.000 A 
BRANCH  11  12
ATOM     12  O   UNL     1      -0.147  11.054  17.807  0.00  0.00    +0.000 OA
ATOM     13  H   UNL     1       0.742  11.108  17.413  0.00  0.00    +0.000 HD
ENDBRANCH  11  12
ENDBRANCH   2   5
BRANCH   1  17
ATOM     14  C   UNL     1       4.674   5.016  16.718  0.00  0.00    +0.000 A 
ATOM     15  C   UNL     1       3.572   4.492  17.386  0.00  0.00    +0.000 A 
ATOM     16  C   UNL     1       2.715   5.326  18.109  0.00  0.00    +0.000 A 
ATOM     17  C   UNL     1       2.956   6.699  18.196  0.00  0.00    +0.000 A 
ATOM     18  C   UNL     1       4.065   7.222  17.524  0.00  0.00    +0.000 A 
ATOM     19  C   UNL     1       4.922   6.386  16.788  0.00  0.00    +0.000 A 
BRANCH  14  21
ATOM     20  C   UNL     1       6.830   4.391  15.977  0.00  0.00    +0.000 C 
ATOM     21  O   UNL     1       5.445   4.090  16.076  0.00  0.00    +0.000 OA
ENDBRANCH  14  21
ENDBRANCH   1  17
TORSDOF 4
ENDMDL
