MODEL 1
REMARK VINA RESULT:      -7.3      0.000      0.000
REMARK  Name = 
REMARK  5 active torsions:
REMARK  status: ('A' for Active; 'I' for Inactive)
REMARK    1  A    between atoms: C_2  and  C_3
REMARK    2  A    between atoms: C_2  and  C_14
REMARK    3  A    between atoms: C_3  and  C_4
REMARK    4  A    between atoms: C_4  and  C_5
REMARK    5  A    between atoms: C_10  and  S_11
REMARK                            x       y       z     vdW  Elec       q    Type
REMARK                         _______ _______ _______ _____ _____    ______ ____
ROOT
ATOM      1  O   UNL     1       7.718   4.636  18.214  0.00  0.00    +0.000 OA
ATOM      2  C   UNL     1       7.144   5.336  17.378  0.00  0.00    +0.000 C 
ENDROOT
BRANCH   2   3
ATOM      3  C   UNL     1       7.021   4.937  15.992  0.00  0.00    +0.000 A 
ATOM      4  N   UNL     1       7.759   5.415  15.009  0.00  0.00    +0.000 NA
ATOM      5  C   UNL     1       7.287   4.812  13.871  0.00  0.00    +0.000 A 
ATOM      6  C   UNL     1       7.679   4.996  12.538  0.00  0.00    +0.000 A 
ATOM      7  C   UNL     1       7.023   4.265  11.541  0.00  0.00    +0.000 A 
ATOM      8  C   UNL     1       6.019   3.351  11.868  0.00  0.00    +0.000 A 
ATOM      9  C   UNL     1       5.621   3.147  13.196  0.00  0.00    +0.000 A 
ATOM     10  C   UNL     1       6.267   3.916  14.166  0.00  0.00    +0.000 A 
ATOM     11  N   UNL     1       6.105   4.027  15.524  0.00  0.00    +0.000 N 
ATOM     12  H   UNL     1       5.430   3.540  16.097  0.00  0.00    +0.000 HD
ENDBRANCH   2   3
BRANCH   2  13
ATOM     13  C   UNL     1       6.499   6.666  17.741  0.00  0.00    +0.000 C 
BRANCH  13  14
ATOM     14  C   UNL     1       5.251   6.944  16.907  0.00  0.00    +0.000 C 
BRANCH  14  15
ATOM     15  C   UNL     1       4.003   6.702  17.681  0.00  0.00    +0.000 A 
ATOM     16  N   UNL     1       3.181   7.610  18.194  0.00  0.00    +0.000 NA
ATOM     17  N   UNL     1       2.186   6.954  18.910  0.00  0.00    +0.000 NA
ATOM     18  C   UNL     1       2.450   5.687  18.789  0.00  0.00    +0.000 A 
ATOM     19  S   UNL     1       1.780   4.209  19.317  0.00  0.00    +0.000 S 
ATOM     20  C   UNL     1       3.099   3.443  18.414  0.00  0.00    +0.000 A 
ATOM     21  N   UNL     1       3.957   4.193  17.784  0.00  0.00    +0.000 NA
ATOM     22  N   UNL     1       3.549   5.463  18.032  0.00  0.00    +0.000 N 
BRANCH  20  23
ATOM     23  S   UNL     1       3.177   1.715  18.407  0.00  0.00    +0.000 S 
ATOM     24  H   UNL     1       4.304   1.622  19.127  0.00  0.00    +0.000 HD
ENDBRANCH  20  23
ENDBRANCH  14  15
ENDBRANCH  13  14
ENDBRANCH   2  13
TORSDOF 5
ENDMDL
MODEL 2
REMARK VINA RESULT:      -7.0      0.905      1.534
REMARK  Name = 
REMARK  5 active torsions:
REMARK  status: ('A' for Active; 'I' for Inactive)
REMARK    1  A    between atoms: C_2  and  C_3
REMARK    2  A    between atoms: C_2  and  C_14
REMARK    3  A    between atoms: C_3  and  C_4
REMARK    4  A    between atoms: C_4  and  C_5
REMARK    5  A    between atoms: C_10  and  S_11
REMARK                            x       y       z     vdW  Elec       q    Type
REMARK                         _______ _______ _______ _____ _____    ______ ____
ROOT
ATOM      1  O   UNL     1       7.886   4.430  18.143  0.00  0.00    +0.000 OA
ATOM      2  C   UNL     1       7.179   5.127  17.415  0.00  0.00    +0.000 C 
ENDROOT
BRANCH   2   3
ATOM      3  C   UNL     1       6.993   4.836  16.009  0.00  0.00    +0.000 A 
ATOM      4  N   UNL     1       6.125   3.964  15.536  0.00  0.00    +0.000 NA
ATOM      5  C   UNL     1       6.310   3.966  14.177  0.00  0.00    +0.000 A 
ATOM      6  C   UNL     1       5.685   3.188  13.192  0.00  0.00    +0.000 A 
ATOM      7  C   UNL     1       6.066   3.367  11.857  0.00  0.00    +0.000 A 
ATOM      8  C   UNL     1       7.027   4.319  11.509  0.00  0.00    +0.000 A 
ATOM      9  C   UNL     1       7.655   5.112  12.478  0.00  0.00    +0.000 A 
ATOM     10  C   UNL     1       7.283   4.887  13.805  0.00  0.00    +0.000 A 
ATOM     11  N   UNL     1       7.715   5.417  14.994  0.00  0.00    +0.000 N 
ATOM     12  H   UNL     1       8.441   6.107  15.123  0.00  0.00    +0.000 HD
ENDBRANCH   2   3
BRANCH   2  13
ATOM     13  C   UNL     1       6.424   6.340  17.942  0.00  0.00    +0.000 C 
BRANCH  13  14
ATOM     14  C   UNL     1       5.221   6.689  17.069  0.00  0.00    +0.000 C 
BRANCH  14  15
ATOM     15  C   UNL     1       3.983   6.862  17.877  0.00  0.00    +0.000 A 
ATOM     16  N   UNL     1       3.191   7.926  17.926  0.00  0.00    +0.000 NA
ATOM     17  N   UNL     1       2.195   7.696  18.869  0.00  0.00    +0.000 NA
ATOM     18  C   UNL     1       2.428   6.506  19.336  0.00  0.00    +0.000 A 
ATOM     19  S   UNL     1       1.736   5.449  20.483  0.00  0.00    +0.000 S 
ATOM     20  C   UNL     1       3.020   4.318  20.017  0.00  0.00    +0.000 A 
ATOM     21  N   UNL     1       3.882   4.676  19.110  0.00  0.00    +0.000 NA
ATOM     22  N   UNL     1       3.507   5.931  18.756  0.00  0.00    +0.000 N 
BRANCH  20  23
ATOM     23  S   UNL     1       3.059   2.775  20.797  0.00  0.00    +0.000 S 
ATOM     24  H   UNL     1       1.736   2.680  20.988  0.00  0.00    +0.000 HD
ENDBRANCH  20  23
ENDBRANCH  14  15
ENDBRANCH  13  14
ENDBRANCH   2  13
TORSDOF 5
ENDMDL
MODEL 3
REMARK VINA RESULT:      -7.0      2.801      6.463
REMARK  Name = 
REMARK  5 active torsions:
REMARK  status: ('A' for Active; 'I' for Inactive)
REMARK    1  A    between atoms: C_2  and  C_3
REMARK    2  A    between atoms: C_2  and  C_14
REMARK    3  A    between atoms: C_3  and  C_4
REMARK    4  A    between atoms: C_4  and  C_5
REMARK    5  A    between atoms: C_10  and  S_11
REMARK                            x       y       z     vdW  Elec       q    Type
REMARK                         _______ _______ _______ _____ _____    ______ ____
ROOT
ATOM      1  O   UNL     1       7.160   5.499  19.385  0.00  0.00    +0.000 OA
ATOM      2  C   UNL     1       6.085   5.609  18.794  0.00  0.00    +0.000 C 
ENDROOT
BRANCH   2   3
ATOM      3  C   UNL     1       4.887   4.930  19.238  0.00  0.00    +0.000 A 
ATOM      4  N   UNL     1       4.669   3.637  19.106  0.00  0.00    +0.000 NA
ATOM      5  C   UNL     1       3.411   3.425  19.609  0.00  0.00    +0.000 A 
ATOM      6  C   UNL     1       2.663   2.240  19.669  0.00  0.00    +0.000 A 
ATOM      7  C   UNL     1       1.378   2.288  20.221  0.00  0.00    +0.000 A 
ATOM      8  C   UNL     1       0.862   3.481  20.730  0.00  0.00    +0.000 A 
ATOM      9  C   UNL     1       1.598   4.673  20.687  0.00  0.00    +0.000 A 
ATOM     10  C   UNL     1       2.862   4.605  20.097  0.00  0.00    +0.000 A 
ATOM     11  N   UNL     1       3.816   5.554  19.834  0.00  0.00    +0.000 N 
ATOM     12  H   UNL     1       3.759   6.543  20.027  0.00  0.00    +0.000 HD
ENDBRANCH   2   3
BRANCH   2  13
ATOM     13  C   UNL     1       5.927   6.487  17.560  0.00  0.00    +0.000 C 
BRANCH  13  14
ATOM     14  C   UNL     1       5.316   5.723  16.388  0.00  0.00    +0.000 C 
BRANCH  14  15
ATOM     15  C   UNL     1       6.331   5.408  15.345  0.00  0.00    +0.000 A 
ATOM     16  N   UNL     1       7.614   5.751  15.335  0.00  0.00    +0.000 NA
ATOM     17  N   UNL     1       8.178   5.326  14.137  0.00  0.00    +0.000 NA
ATOM     18  C   UNL     1       7.215   4.743  13.488  0.00  0.00    +0.000 A 
ATOM     19  S   UNL     1       7.009   3.955  11.989  0.00  0.00    +0.000 S 
ATOM     20  C   UNL     1       5.330   3.706  12.503  0.00  0.00    +0.000 A 
ATOM     21  N   UNL     1       4.947   4.160  13.661  0.00  0.00    +0.000 NA
ATOM     22  N   UNL     1       6.054   4.747  14.182  0.00  0.00    +0.000 N 
BRANCH  20  23
ATOM     23  S   UNL     1       4.274   2.857  11.428  0.00  0.00    +0.000 S 
ATOM     24  H   UNL     1       4.112   1.781  12.211  0.00  0.00    +0.000 HD
ENDBRANCH  20  23
ENDBRANCH  14  15
ENDBRANCH  13  14
ENDBRANCH   2  13
TORSDOF 5
ENDMDL
MODEL 4
REMARK VINA RESULT:      -6.9      2.803      6.395
REMARK  Name = 
REMARK  5 active torsions:
REMARK  status: ('A' for Active; 'I' for Inactive)
REMARK    1  A    between atoms: C_2  and  C_3
REMARK    2  A    between atoms: C_2  and  C_14
REMARK    3  A    between atoms: C_3  and  C_4
REMARK    4  A    between atoms: C_4  and  C_5
REMARK    5  A    between atoms: C_10  and  S_11
REMARK                            x       y       z     vdW  Elec       q    Type
REMARK                         _______ _______ _______ _____ _____    ______ ____
ROOT
ATOM      1  O   UNL     1       7.225   5.295  19.980  0.00  0.00    +0.000 OA
ATOM      2  C   UNL     1       6.394   5.284  19.071  0.00  0.00    +0.000 C 
ENDROOT
BRANCH   2   3
ATOM      3  C   UNL     1       5.066   4.737  19.245  0.00  0.00    +0.000 A 
ATOM      4  N   UNL     1       4.019   5.432  19.646  0.00  0.00    +0.000 NA
ATOM      5  C   UNL     1       2.988   4.530  19.719  0.00  0.00    +0.000 A 
ATOM      6  C   UNL     1       1.665   4.722  20.139  0.00  0.00    +0.000 A 
ATOM      7  C   UNL     1       0.797   3.624  20.140  0.00  0.00    +0.000 A 
ATOM      8  C   UNL     1       1.230   2.370  19.703  0.00  0.00    +0.000 A 
ATOM      9  C   UNL     1       2.546   2.161  19.271  0.00  0.00    +0.000 A 
ATOM     10  C   UNL     1       3.400   3.265  19.316  0.00  0.00    +0.000 A 
ATOM     11  N   UNL     1       4.734   3.421  19.034  0.00  0.00    +0.000 N 
ATOM     12  H   UNL     1       5.379   2.704  18.733  0.00  0.00    +0.000 HD
ENDBRANCH   2   3
BRANCH   2  13
ATOM     13  C   UNL     1       6.693   5.866  17.696  0.00  0.00    +0.000 C 
BRANCH  13  14
ATOM     14  C   UNL     1       6.049   5.049  16.577  0.00  0.00    +0.000 C 
BRANCH  14  15
ATOM     15  C   UNL     1       6.843   5.113  15.319  0.00  0.00    +0.000 A 
ATOM     16  N   UNL     1       8.005   5.725  15.127  0.00  0.00    +0.000 NA
ATOM     17  N   UNL     1       8.355   5.606  13.786  0.00  0.00    +0.000 NA
ATOM     18  C   UNL     1       7.395   4.923  13.238  0.00  0.00    +0.000 A 
ATOM     19  S   UNL     1       7.005   4.325  11.688  0.00  0.00    +0.000 S 
ATOM     20  C   UNL     1       5.561   3.647  12.459  0.00  0.00    +0.000 A 
ATOM     21  N   UNL     1       5.371   3.839  13.733  0.00  0.00    +0.000 NA
ATOM     22  N   UNL     1       6.439   4.575  14.131  0.00  0.00    +0.000 N 
BRANCH  20  23
ATOM     23  S   UNL     1       4.465   2.745  11.470  0.00  0.00    +0.000 S 
ATOM     24  H   UNL     1       3.768   3.803  11.032  0.00  0.00    +0.000 HD
ENDBRANCH  20  23
ENDBRANCH  14  15
ENDBRANCH  13  14
ENDBRANCH   2  13
TORSDOF 5
ENDMDL
MODEL 5
REMARK VINA RESULT:      -6.9      3.281      4.751
REMARK  Name = 
REMARK  5 active torsions:
REMARK  status: ('A' for Active; 'I' for Inactive)
REMARK    1  A    between atoms: C_2  and  C_3
REMARK    2  A    between atoms: C_2  and  C_14
REMARK    3  A    between atoms: C_3  and  C_4
REMARK    4  A    between atoms: C_4  and  C_5
REMARK    5  A    between atoms: C_10  and  S_11
REMARK                            x       y       z     vdW  Elec       q    Type
REMARK                         _______ _______ _______ _____ _____    ______ ____
ROOT
ATOM      1  O   UNL     1       4.057   1.366  19.191  0.00  0.00    +0.000 OA
ATOM      2  C   UNL     1       3.856   2.289  18.402  0.00  0.00    +0.000 C 
ENDROOT
BRANCH   2   3
ATOM      3  C   UNL     1       4.778   3.395  18.255  0.00  0.00    +0.000 A 
ATOM      4  N   UNL     1       5.673   3.746  19.158  0.00  0.00    +0.000 NA
ATOM      5  C   UNL     1       6.295   4.855  18.644  0.00  0.00    +0.000 A 
ATOM      6  C   UNL     1       7.290   5.662  19.213  0.00  0.00    +0.000 A 
ATOM      7  C   UNL     1       7.756   6.763  18.485  0.00  0.00    +0.000 A 
ATOM      8  C   UNL     1       7.262   7.036  17.208  0.00  0.00    +0.000 A 
ATOM      9  C   UNL     1       6.273   6.236  16.619  0.00  0.00    +0.000 A 
ATOM     10  C   UNL     1       5.801   5.166  17.383  0.00  0.00    +0.000 A 
ATOM     11  N   UNL     1       4.823   4.229  17.164  0.00  0.00    +0.000 N 
ATOM     12  H   UNL     1       4.223   4.155  16.355  0.00  0.00    +0.000 HD
ENDBRANCH   2   3
BRANCH   2  13
ATOM     13  C   UNL     1       2.629   2.330  17.501  0.00  0.00    +0.000 C 
BRANCH  13  14
ATOM     14  C   UNL     1       1.346   2.578  18.291  0.00  0.00    +0.000 C 
BRANCH  14  15
ATOM     15  C   UNL     1       1.561   3.538  19.407  0.00  0.00    +0.000 A 
ATOM     16  N   UNL     1       1.452   3.302  20.709  0.00  0.00    +0.000 NA
ATOM     17  N   UNL     1       1.657   4.493  21.396  0.00  0.00    +0.000 NA
ATOM     18  C   UNL     1       1.887   5.386  20.480  0.00  0.00    +0.000 A 
ATOM     19  S   UNL     1       2.232   7.056  20.412  0.00  0.00    +0.000 S 
ATOM     20  C   UNL     1       2.308   6.832  18.655  0.00  0.00    +0.000 A 
ATOM     21  N   UNL     1       2.098   5.649  18.156  0.00  0.00    +0.000 NA
ATOM     22  N   UNL     1       1.857   4.860  19.234  0.00  0.00    +0.000 N 
BRANCH  20  23
ATOM     23  S   UNL     1       2.671   8.214  17.680  0.00  0.00    +0.000 S 
ATOM     24  H   UNL     1       2.421   9.126  18.630  0.00  0.00    +0.000 HD
ENDBRANCH  20  23
ENDBRANCH  14  15
ENDBRANCH  13  14
ENDBRANCH   2  13
TORSDOF 5
ENDMDL
MODEL 6
REMARK VINA RESULT:      -6.8      3.476      4.947
REMARK  Name = 
REMARK  5 active torsions:
REMARK  status: ('A' for Active; 'I' for Inactive)
REMARK    1  A    between atoms: C_2  and  C_3
REMARK    2  A    between atoms: C_2  and  C_14
REMARK    3  A    between atoms: C_3  and  C_4
REMARK    4  A    between atoms: C_4  and  C_5
REMARK    5  A    between atoms: C_10  and  S_11
REMARK                            x       y       z     vdW  Elec       q    Type
REMARK                         _______ _______ _______ _____ _____    ______ ____
ROOT
ATOM      1  O   UNL     1       2.654   2.449  20.274  0.00  0.00    +0.000 OA
ATOM      2  C   UNL     1       2.734   3.524  19.677  0.00  0.00    +0.000 C 
ENDROOT
BRANCH   2   3
ATOM      3  C   UNL     1       3.771   3.790  18.703  0.00  0.00    +0.000 A 
ATOM      4  N   UNL     1       5.048   3.944  18.995  0.00  0.00    +0.000 NA
ATOM      5  C   UNL     1       5.664   4.223  17.802  0.00  0.00    +0.000 A 
ATOM      6  C   UNL     1       7.009   4.523  17.543  0.00  0.00    +0.000 A 
ATOM      7  C   UNL     1       7.392   4.792  16.224  0.00  0.00    +0.000 A 
ATOM      8  C   UNL     1       6.463   4.734  15.184  0.00  0.00    +0.000 A 
ATOM      9  C   UNL     1       5.117   4.427  15.422  0.00  0.00    +0.000 A 
ATOM     10  C   UNL     1       4.755   4.200  16.751  0.00  0.00    +0.000 A 
ATOM     11  N   UNL     1       3.551   3.938  17.355  0.00  0.00    +0.000 N 
ATOM     12  H   UNL     1       2.648   3.870  16.907  0.00  0.00    +0.000 HD
ENDBRANCH   2   3
BRANCH   2  13
ATOM     13  C   UNL     1       1.735   4.650  19.901  0.00  0.00    +0.000 C 
BRANCH  13  14
ATOM     14  C   UNL     1       2.410   5.922  20.410  0.00  0.00    +0.000 C 
BRANCH  14  15
ATOM     15  C   UNL     1       2.286   7.041  19.437  0.00  0.00    +0.000 A 
ATOM     16  N   UNL     1       2.797   7.108  18.213  0.00  0.00    +0.000 NA
ATOM     17  N   UNL     1       2.512   8.361  17.681  0.00  0.00    +0.000 NA
ATOM     18  C   UNL     1       1.838   8.984  18.602  0.00  0.00    +0.000 A 
ATOM     19  S   UNL     1       1.106  10.511  18.805  0.00  0.00    +0.000 S 
ATOM     20  C   UNL     1       0.610   9.912  20.398  0.00  0.00    +0.000 A 
ATOM     21  N   UNL     1       0.949   8.707  20.757  0.00  0.00    +0.000 NA
ATOM     22  N   UNL     1       1.652   8.221  19.704  0.00  0.00    +0.000 N 
BRANCH  20  23
ATOM     23  S   UNL     1      -0.318  10.968  21.406  0.00  0.00    +0.000 S 
ATOM     24  H   UNL     1       0.730  11.582  21.971  0.00  0.00    +0.000 HD
ENDBRANCH  20  23
ENDBRANCH  14  15
ENDBRANCH  13  14
ENDBRANCH   2  13
TORSDOF 5
ENDMDL
MODEL 7
REMARK VINA RESULT:      -6.8      3.316      4.747
REMARK  Name = 
REMARK  5 active torsions:
REMARK  status: ('A' for Active; 'I' for Inactive)
REMARK    1  A    between atoms: C_2  and  C_3
REMARK    2  A    between atoms: C_2  and  C_14
REMARK    3  A    between atoms: C_3  and  C_4
REMARK    4  A    between atoms: C_4  and  C_5
REMARK    5  A    between atoms: C_10  and  S_11
REMARK                            x       y       z     vdW  Elec       q    Type
REMARK                         _______ _______ _______ _____ _____    ______ ____
ROOT
ATOM      1  O   UNL     1       4.063   1.267  18.262  0.00  0.00    +0.000 OA
ATOM      2  C   UNL     1       3.760   2.392  17.862  0.00  0.00    +0.000 C 
ENDROOT
BRANCH   2   3
ATOM      3  C   UNL     1       4.688   3.502  17.901  0.00  0.00    +0.000 A 
ATOM      4  N   UNL     1       4.833   4.389  16.936  0.00  0.00    +0.000 NA
ATOM      5  C   UNL     1       5.834   5.226  17.357  0.00  0.00    +0.000 A 
ATOM      6  C   UNL     1       6.424   6.312  16.696  0.00  0.00    +0.000 A 
ATOM      7  C   UNL     1       7.456   7.006  17.338  0.00  0.00    +0.000 A 
ATOM      8  C   UNL     1       7.870   6.645  18.622  0.00  0.00    +0.000 A 
ATOM      9  C   UNL     1       7.286   5.568  19.302  0.00  0.00    +0.000 A 
ATOM     10  C   UNL     1       6.285   4.870  18.623  0.00  0.00    +0.000 A 
ATOM     11  N   UNL     1       5.549   3.758  18.941  0.00  0.00    +0.000 N 
ATOM     12  H   UNL     1       5.619   3.203  19.783  0.00  0.00    +0.000 HD
ENDBRANCH   2   3
BRANCH   2  13
ATOM     13  C   UNL     1       2.390   2.699  17.273  0.00  0.00    +0.000 C 
BRANCH  13  14
ATOM     14  C   UNL     1       1.291   2.670  18.333  0.00  0.00    +0.000 C 
BRANCH  14  15
ATOM     15  C   UNL     1       1.581   3.605  19.455  0.00  0.00    +0.000 A 
ATOM     16  N   UNL     1       1.605   3.328  20.753  0.00  0.00    +0.000 NA
ATOM     17  N   UNL     1       1.835   4.506  21.455  0.00  0.00    +0.000 NA
ATOM     18  C   UNL     1       1.946   5.432  20.550  0.00  0.00    +0.000 A 
ATOM     19  S   UNL     1       2.228   7.114  20.504  0.00  0.00    +0.000 S 
ATOM     20  C   UNL     1       2.142   6.944  18.741  0.00  0.00    +0.000 A 
ATOM     21  N   UNL     1       1.924   5.769  18.227  0.00  0.00    +0.000 NA
ATOM     22  N   UNL     1       1.814   4.942  19.296  0.00  0.00    +0.000 N 
BRANCH  20  23
ATOM     23  S   UNL     1       2.363   8.366  17.781  0.00  0.00    +0.000 S 
ATOM     24  H   UNL     1       1.703   7.914  16.706  0.00  0.00    +0.000 HD
ENDBRANCH  20  23
ENDBRANCH  14  15
ENDBRANCH  13  14
ENDBRANCH   2  13
TORSDOF 5
ENDMDL
MODEL 8
REMARK VINA RESULT:      -6.8      4.110      5.645
REMARK  Name = 
REMARK  5 active torsions:
REMARK  status: ('A' for Active; 'I' for Inactive)
REMARK    1  A    between atoms: C_2  and  C_3
REMARK    2  A    between atoms: C_2  and  C_14
REMARK    3  A    between atoms: C_3  and  C_4
REMARK    4  A    between atoms: C_4  and  C_5
REMARK    5  A    between atoms: C_10  and  S_11
REMARK                            x       y       z     vdW  Elec       q    Type
REMARK                         _______ _______ _______ _____ _____    ______ ____
ROOT
ATOM      1  O   UNL     1       2.578   2.612  19.044  0.00  0.00    +0.000 OA
ATOM      2  C   UNL     1       2.723   3.821  19.228  0.00  0.00    +0.000 C 
ENDROOT
BRANCH   2   3
ATOM      3  C   UNL     1       3.960   4.506  18.922  0.00  0.00    +0.000 A 
ATOM      4  N   UNL     1       5.044   4.460  19.671  0.00  0.00    +0.000 NA
ATOM      5  C   UNL     1       5.953   5.277  19.049  0.00  0.00    +0.000 A 
ATOM      6  C   UNL     1       7.251   5.629  19.444  0.00  0.00    +0.000 A 
ATOM      7  C   UNL     1       7.982   6.505  18.634  0.00  0.00    +0.000 A 
ATOM      8  C   UNL     1       7.444   6.996  17.443  0.00  0.00    +0.000 A 
ATOM      9  C   UNL     1       6.152   6.648  17.027  0.00  0.00    +0.000 A 
ATOM     10  C   UNL     1       5.431   5.802  17.872  0.00  0.00    +0.000 A 
ATOM     11  N   UNL     1       4.152   5.308  17.823  0.00  0.00    +0.000 N 
ATOM     12  H   UNL     1       3.455   5.496  17.116  0.00  0.00    +0.000 HD
ENDBRANCH   2   3
BRANCH   2  13
ATOM     13  C   UNL     1       1.601   4.695  19.772  0.00  0.00    +0.000 C 
BRANCH  13  14
ATOM     14  C   UNL     1       2.136   5.866  20.593  0.00  0.00    +0.000 C 
BRANCH  14  15
ATOM     15  C   UNL     1       1.879   7.172  19.926  0.00  0.00    +0.000 A 
ATOM     16  N   UNL     1       2.279   7.556  18.720  0.00  0.00    +0.000 NA
ATOM     17  N   UNL     1       1.894   8.878  18.523  0.00  0.00    +0.000 NA
ATOM     18  C   UNL     1       1.275   9.224  19.613  0.00  0.00    +0.000 A 
ATOM     19  S   UNL     1       0.495  10.611  20.226  0.00  0.00    +0.000 S 
ATOM     20  C   UNL     1       0.165   9.626  21.663  0.00  0.00    +0.000 A 
ATOM     21  N   UNL     1       0.587   8.395  21.699  0.00  0.00    +0.000 NA
ATOM     22  N   UNL     1       1.218   8.214  20.512  0.00  0.00    +0.000 N 
BRANCH  20  23
ATOM     23  S   UNL     1      -0.720  10.356  22.958  0.00  0.00    +0.000 S 
ATOM     24  H   UNL     1      -1.431  11.191  22.189  0.00  0.00    +0.000 HD
ENDBRANCH  20  23
ENDBRANCH  14  15
ENDBRANCH  13  14
ENDBRANCH   2  13
TORSDOF 5
ENDMDL
MODEL 9
REMARK VINA RESULT:      -6.7      1.079      1.200
REMARK  Name = 
REMARK  5 active torsions:
REMARK  status: ('A' for Active; 'I' for Inactive)
REMARK    1  A    between atoms: C_2  and  C_3
REMARK    2  A    between atoms: C_2  and  C_14
REMARK    3  A    between atoms: C_3  and  C_4
REMARK    4  A    between atoms: C_4  and  C_5
REMARK    5  A    between atoms: C_10  and  S_11
REMARK                            x       y       z     vdW  Elec       q    Type
REMARK                         _______ _______ _______ _____ _____    ______ ____
ROOT
ATOM      1  O   UNL     1       5.970   4.966  18.502  0.00  0.00    +0.000 OA
ATOM      2  C   UNL     1       5.776   5.676  17.515  0.00  0.00    +0.000 C 
ENDROOT
BRANCH   2   3
ATOM      3  C   UNL     1       6.075   5.228  16.171  0.00  0.00    +0.000 A 
ATOM      4  N   UNL     1       7.104   5.641  15.458  0.00  0.00    +0.000 NA
ATOM      5  C   UNL     1       6.985   5.010  14.246  0.00  0.00    +0.000 A 
ATOM      6  C   UNL     1       7.783   5.128  13.099  0.00  0.00    +0.000 A 
ATOM      7  C   UNL     1       7.439   4.382  11.966  0.00  0.00    +0.000 A 
ATOM      8  C   UNL     1       6.344   3.515  11.985  0.00  0.00    +0.000 A 
ATOM      9  C   UNL     1       5.541   3.378  13.125  0.00  0.00    +0.000 A 
ATOM     10  C   UNL     1       5.885   4.162  14.229  0.00  0.00    +0.000 A 
ATOM     11  N   UNL     1       5.311   4.331  15.463  0.00  0.00    +0.000 N 
ATOM     12  H   UNL     1       4.470   3.891  15.808  0.00  0.00    +0.000 HD
ENDBRANCH   2   3
BRANCH   2  13
ATOM     13  C   UNL     1       5.185   7.074  17.627  0.00  0.00    +0.000 C 
BRANCH  13  14
ATOM     14  C   UNL     1       3.688   7.089  17.328  0.00  0.00    +0.000 C 
BRANCH  14  15
ATOM     15  C   UNL     1       2.881   6.751  18.533  0.00  0.00    +0.000 A 
ATOM     16  N   UNL     1       2.480   7.575  19.495  0.00  0.00    +0.000 NA
ATOM     17  N   UNL     1       1.823   6.833  20.470  0.00  0.00    +0.000 NA
ATOM     18  C   UNL     1       1.851   5.603  20.048  0.00  0.00    +0.000 A 
ATOM     19  S   UNL     1       1.302   4.080  20.583  0.00  0.00    +0.000 S 
ATOM     20  C   UNL     1       1.992   3.451  19.076  0.00  0.00    +0.000 A 
ATOM     21  N   UNL     1       2.576   4.274  18.254  0.00  0.00    +0.000 NA
ATOM     22  N   UNL     1       2.475   5.487  18.853  0.00  0.00    +0.000 N 
BRANCH  20  23
ATOM     23  S   UNL     1       1.847   1.756  18.766  0.00  0.00    +0.000 S 
ATOM     24  H   UNL     1       1.429   1.879  17.499  0.00  0.00    +0.000 HD
ENDBRANCH  20  23
ENDBRANCH  14  15
ENDBRANCH  13  14
ENDBRANCH   2  13
TORSDOF 5
ENDMDL
