MODEL 1
REMARK VINA RESULT:      -6.8      0.000      0.000
REMARK  Name = 
REMARK  7 active torsions:
REMARK  status: ('A' for Active; 'I' for Inactive)
REMARK    1  A    between atoms: C_2  and  C_3
REMARK    2  A    between atoms: C_6  and  O_7
REMARK    3  A    between atoms: O_7  and  C_8
REMARK    4  A    between atoms: C_11  and  O_12
REMARK    5  A    between atoms: O_12  and  C_13
REMARK    6  A    between atoms: C_16  and  C_17
REMARK    7  A    between atoms: C_17  and  O_18
REMARK                            x       y       z     vdW  Elec       q    Type
REMARK                         _______ _______ _______ _____ _____    ______ ____
ROOT
ATOM      1  C   UNL     1       7.332   6.334  17.653  0.00  0.00    +0.000 C 
ATOM      2  C   UNL     1       6.069   6.141  18.420  0.00  0.00    +0.000 C 
ATOM      3  C   UNL     1       4.939   5.684  17.859  0.00  0.00    +0.000 C 
ATOM      4  C   UNL     1       4.791   5.346  16.401  0.00  0.00    +0.000 C 
ATOM      5  C   UNL     1       6.070   5.670  15.591  0.00  0.00    +0.000 C 
ATOM      6  O   UNL     1       7.075   6.427  16.246  0.00  0.00    +0.000 OA
ENDROOT
BRANCH   1   8
ATOM      7  C   UNL     1       8.336   8.963  17.892  0.00  0.00    +0.000 C 
ATOM      8  C   UNL     1       7.873   7.749  17.782  0.00  0.00    +0.000 C 
ENDBRANCH   1   8
BRANCH   4   9
ATOM      9  O   UNL     1       4.377   3.975  16.339  0.00  0.00    +0.000 OA
BRANCH   9  10
ATOM     10  C   UNL     1       3.557   3.439  17.297  0.00  0.00    +0.000 A 
ATOM     11  C   UNL     1       3.785   2.315  18.068  0.00  0.00    +0.000 A 
ATOM     12  C   UNL     1       2.869   1.932  19.066  0.00  0.00    +0.000 A 
ATOM     13  C   UNL     1       1.734   2.712  19.325  0.00  0.00    +0.000 A 
ATOM     14  C   UNL     1       1.473   3.807  18.520  0.00  0.00    +0.000 A 
ATOM     15  C   UNL     1       2.369   4.157  17.495  0.00  0.00    +0.000 A 
BRANCH  13  16
ATOM     16  O   UNL     1       0.929   2.288  20.352  0.00  0.00    +0.000 OA
ATOM     17  C   UNL     1       1.323   2.709  21.655  0.00  0.00    +0.000 C 
ENDBRANCH  13  16
ENDBRANCH   9  10
ENDBRANCH   4   9
BRANCH   5  18
ATOM     18  C   UNL     1       6.833   4.578  14.851  0.00  0.00    +0.000 C 
BRANCH  18  19
ATOM     19  O   UNL     1       6.005   3.842  13.962  0.00  0.00    +0.000 OA
ATOM     20  H   UNL     1       5.099   3.898  14.315  0.00  0.00    +0.000 HD
ENDBRANCH  18  19
ENDBRANCH   5  18
TORSDOF 6
ENDMDL
MODEL 2
REMARK VINA RESULT:      -6.7      0.408      1.128
REMARK  Name = 
REMARK  7 active torsions:
REMARK  status: ('A' for Active; 'I' for Inactive)
REMARK    1  A    between atoms: C_2  and  C_3
REMARK    2  A    between atoms: C_6  and  O_7
REMARK    3  A    between atoms: O_7  and  C_8
REMARK    4  A    between atoms: C_11  and  O_12
REMARK    5  A    between atoms: O_12  and  C_13
REMARK    6  A    between atoms: C_16  and  C_17
REMARK    7  A    between atoms: C_17  and  O_18
REMARK                            x       y       z     vdW  Elec       q    Type
REMARK                         _______ _______ _______ _____ _____    ______ ____
ROOT
ATOM      1  C   UNL     1       7.187   6.495  17.774  0.00  0.00    +0.000 C 
ATOM      2  C   UNL     1       5.785   6.516  18.280  0.00  0.00    +0.000 C 
ATOM      3  C   UNL     1       4.748   6.044  17.572  0.00  0.00    +0.000 C 
ATOM      4  C   UNL     1       4.856   5.475  16.183  0.00  0.00    +0.000 C 
ATOM      5  C   UNL     1       6.293   5.575  15.619  0.00  0.00    +0.000 C 
ATOM      6  O   UNL     1       7.220   6.366  16.346  0.00  0.00    +0.000 OA
ENDROOT
BRANCH   1   8
ATOM      7  C   UNL     1       8.375   9.057  17.814  0.00  0.00    +0.000 C 
ATOM      8  C   UNL     1       7.826   7.874  17.796  0.00  0.00    +0.000 C 
ENDBRANCH   1   8
BRANCH   4   9
ATOM      9  O   UNL     1       4.331   4.143  16.246  0.00  0.00    +0.000 OA
BRANCH   9  10
ATOM     10  C   UNL     1       3.516   3.750  17.276  0.00  0.00    +0.000 A 
ATOM     11  C   UNL     1       2.173   4.028  17.440  0.00  0.00    +0.000 A 
ATOM     12  C   UNL     1       1.456   3.489  18.524  0.00  0.00    +0.000 A 
ATOM     13  C   UNL     1       2.083   2.621  19.429  0.00  0.00    +0.000 A 
ATOM     14  C   UNL     1       3.441   2.382  19.300  0.00  0.00    +0.000 A 
ATOM     15  C   UNL     1       4.160   2.962  18.241  0.00  0.00    +0.000 A 
BRANCH  13  16
ATOM     16  O   UNL     1       1.290   2.103  20.421  0.00  0.00    +0.000 OA
ATOM     17  C   UNL     1       1.430   2.715  21.701  0.00  0.00    +0.000 C 
ENDBRANCH  13  16
ENDBRANCH   9  10
ENDBRANCH   4   9
BRANCH   5  18
ATOM     18  C   UNL     1       7.077   4.328  15.229  0.00  0.00    +0.000 C 
BRANCH  18  19
ATOM     19  O   UNL     1       6.384   3.522  14.286  0.00  0.00    +0.000 OA
ATOM     20  H   UNL     1       5.774   2.960  14.795  0.00  0.00    +0.000 HD
ENDBRANCH  18  19
ENDBRANCH   5  18
TORSDOF 6
ENDMDL
MODEL 3
REMARK VINA RESULT:      -6.4      3.645      4.958
REMARK  Name = 
REMARK  7 active torsions:
REMARK  status: ('A' for Active; 'I' for Inactive)
REMARK    1  A    between atoms: C_2  and  C_3
REMARK    2  A    between atoms: C_6  and  O_7
REMARK    3  A    between atoms: O_7  and  C_8
REMARK    4  A    between atoms: C_11  and  O_12
REMARK    5  A    between atoms: O_12  and  C_13
REMARK    6  A    between atoms: C_16  and  C_17
REMARK    7  A    between atoms: C_17  and  O_18
REMARK                            x       y       z     vdW  Elec       q    Type
REMARK                         _______ _______ _______ _____ _____    ______ ____
ROOT
ATOM      1  C   UNL     1       5.989   4.499  15.937  0.00  0.00    +0.000 C 
ATOM      2  C   UNL     1       5.749   5.964  16.066  0.00  0.00    +0.000 C 
ATOM      3  C   UNL     1       4.712   6.476  16.745  0.00  0.00    +0.000 C 
ATOM      4  C   UNL     1       3.652   5.652  17.425  0.00  0.00    +0.000 C 
ATOM      5  C   UNL     1       3.840   4.136  17.178  0.00  0.00    +0.000 C 
ATOM      6  O   UNL     1       4.792   3.754  16.198  0.00  0.00    +0.000 OA
ENDROOT
BRANCH   1   8
ATOM      7  C   UNL     1       6.201   3.683  13.242  0.00  0.00    +0.000 C 
ATOM      8  C   UNL     1       6.103   4.060  14.487  0.00  0.00    +0.000 C 
ENDBRANCH   1   8
BRANCH   4   9
ATOM      9  O   UNL     1       3.658   6.037  18.805  0.00  0.00    +0.000 OA
BRANCH   9  10
ATOM     10  C   UNL     1       2.734   6.921  19.299  0.00  0.00    +0.000 A 
ATOM     11  C   UNL     1       2.135   6.906  20.545  0.00  0.00    +0.000 A 
ATOM     12  C   UNL     1       1.251   7.932  20.928  0.00  0.00    +0.000 A 
ATOM     13  C   UNL     1       1.001   9.010  20.069  0.00  0.00    +0.000 A 
ATOM     14  C   UNL     1       1.554   9.003  18.800  0.00  0.00    +0.000 A 
ATOM     15  C   UNL     1       2.400   7.951  18.408  0.00  0.00    +0.000 A 
BRANCH  13  16
ATOM     16  O   UNL     1       0.168   9.988  20.551  0.00  0.00    +0.000 OA
ATOM     17  C   UNL     1      -0.164   9.886  21.934  0.00  0.00    +0.000 C 
ENDBRANCH  13  16
ENDBRANCH   9  10
ENDBRANCH   4   9
BRANCH   5  18
ATOM     18  C   UNL     1       4.071   3.171  18.335  0.00  0.00    +0.000 C 
BRANCH  18  19
ATOM     19  O   UNL     1       5.250   3.472  19.068  0.00  0.00    +0.000 OA
ATOM     20  H   UNL     1       6.001   3.269  18.484  0.00  0.00    +0.000 HD
ENDBRANCH  18  19
ENDBRANCH   5  18
TORSDOF 6
ENDMDL
MODEL 4
REMARK VINA RESULT:      -6.2      4.114      5.474
REMARK  Name = 
REMARK  7 active torsions:
REMARK  status: ('A' for Active; 'I' for Inactive)
REMARK    1  A    between atoms: C_2  and  C_3
REMARK    2  A    between atoms: C_6  and  O_7
REMARK    3  A    between atoms: O_7  and  C_8
REMARK    4  A    between atoms: C_11  and  O_12
REMARK    5  A    between atoms: O_12  and  C_13
REMARK    6  A    between atoms: C_16  and  C_17
REMARK    7  A    between atoms: C_17  and  O_18
REMARK                            x       y       z     vdW  Elec       q    Type
REMARK                         _______ _______ _______ _____ _____    ______ ____
ROOT
ATOM      1  C   UNL     1       5.637   4.780  16.613  0.00  0.00    +0.000 C 
ATOM      2  C   UNL     1       5.498   6.261  16.708  0.00  0.00    +0.000 C 
ATOM      3  C   UNL     1       4.415   6.860  17.227  0.00  0.00    +0.000 C 
ATOM      4  C   UNL     1       3.205   6.128  17.741  0.00  0.00    +0.000 C 
ATOM      5  C   UNL     1       3.306   4.599  17.520  0.00  0.00    +0.000 C 
ATOM      6  O   UNL     1       4.359   4.134  16.692  0.00  0.00    +0.000 OA
ENDROOT
BRANCH   1   8
ATOM      7  C   UNL     1       6.180   3.925  13.976  0.00  0.00    +0.000 C 
ATOM      8  C   UNL     1       5.929   4.320  15.194  0.00  0.00    +0.000 C 
ENDBRANCH   1   8
BRANCH   4   9
ATOM      9  O   UNL     1       3.037   6.524  19.108  0.00  0.00    +0.000 OA
BRANCH   9  10
ATOM     10  C   UNL     1       2.222   7.572  19.447  0.00  0.00    +0.000 A 
ATOM     11  C   UNL     1       1.849   8.641  18.654  0.00  0.00    +0.000 A 
ATOM     12  C   UNL     1       0.942   9.606  19.131  0.00  0.00    +0.000 A 
ATOM     13  C   UNL     1       0.366   9.472  20.401  0.00  0.00    +0.000 A 
ATOM     14  C   UNL     1       0.777   8.434  21.220  0.00  0.00    +0.000 A 
ATOM     15  C   UNL     1       1.718   7.500  20.754  0.00  0.00    +0.000 A 
BRANCH  13  16
ATOM     16  O   UNL     1      -0.547  10.432  20.757  0.00  0.00    +0.000 OA
ATOM     17  C   UNL     1      -1.097  11.186  19.679  0.00  0.00    +0.000 C 
ENDBRANCH  13  16
ENDBRANCH   9  10
ENDBRANCH   4   9
BRANCH   5  18
ATOM     18  C   UNL     1       3.287   3.630  18.697  0.00  0.00    +0.000 C 
BRANCH  18  19
ATOM     19  O   UNL     1       4.330   3.881  19.627  0.00  0.00    +0.000 OA
ATOM     20  H   UNL     1       4.980   3.164  19.517  0.00  0.00    +0.000 HD
ENDBRANCH  18  19
ENDBRANCH   5  18
TORSDOF 6
ENDMDL
MODEL 5
REMARK VINA RESULT:      -6.1      2.467      5.679
REMARK  Name = 
REMARK  7 active torsions:
REMARK  status: ('A' for Active; 'I' for Inactive)
REMARK    1  A    between atoms: C_2  and  C_3
REMARK    2  A    between atoms: C_6  and  O_7
REMARK    3  A    between atoms: O_7  and  C_8
REMARK    4  A    between atoms: C_11  and  O_12
REMARK    5  A    between atoms: O_12  and  C_13
REMARK    6  A    between atoms: C_16  and  C_17
REMARK    7  A    between atoms: C_17  and  O_18
REMARK                            x       y       z     vdW  Elec       q    Type
REMARK                         _______ _______ _______ _____ _____    ______ ____
ROOT
ATOM      1  C   UNL     1       3.155   6.601  17.899  0.00  0.00    +0.000 C 
ATOM      2  C   UNL     1       4.366   7.112  17.194  0.00  0.00    +0.000 C 
ATOM      3  C   UNL     1       5.600   6.641  17.431  0.00  0.00    +0.000 C 
ATOM      4  C   UNL     1       5.923   5.579  18.446  0.00  0.00    +0.000 C 
ATOM      5  C   UNL     1       4.679   5.148  19.260  0.00  0.00    +0.000 C 
ATOM      6  O   UNL     1       3.509   5.936  19.119  0.00  0.00    +0.000 OA
ENDROOT
BRANCH   1   8
ATOM      7  C   UNL     1       1.701   8.668  19.159  0.00  0.00    +0.000 C 
ATOM      8  C   UNL     1       2.373   7.713  18.577  0.00  0.00    +0.000 C 
ENDBRANCH   1   8
BRANCH   4   9
ATOM      9  O   UNL     1       6.569   4.516  17.735  0.00  0.00    +0.000 OA
BRANCH   9  10
ATOM     10  C   UNL     1       6.543   4.462  16.365  0.00  0.00    +0.000 A 
ATOM     11  C   UNL     1       7.467   4.992  15.484  0.00  0.00    +0.000 A 
ATOM     12  C   UNL     1       7.333   4.789  14.098  0.00  0.00    +0.000 A 
ATOM     13  C   UNL     1       6.286   4.007  13.593  0.00  0.00    +0.000 A 
ATOM     14  C   UNL     1       5.328   3.520  14.465  0.00  0.00    +0.000 A 
ATOM     15  C   UNL     1       5.443   3.766  15.844  0.00  0.00    +0.000 A 
BRANCH  13  16
ATOM     16  O   UNL     1       6.269   3.821  12.233  0.00  0.00    +0.000 OA
ATOM     17  C   UNL     1       5.823   2.540  11.794  0.00  0.00    +0.000 C 
ENDBRANCH  13  16
ENDBRANCH   9  10
ENDBRANCH   4   9
BRANCH   5  18
ATOM     18  C   UNL     1       4.178   3.709  19.231  0.00  0.00    +0.000 C 
BRANCH  18  19
ATOM     19  O   UNL     1       5.230   2.763  19.361  0.00  0.00    +0.000 OA
ATOM     20  H   UNL     1       4.858   1.995  19.830  0.00  0.00    +0.000 HD
ENDBRANCH  18  19
ENDBRANCH   5  18
TORSDOF 6
ENDMDL
MODEL 6
REMARK VINA RESULT:      -6.1      1.828      3.292
REMARK  Name = 
REMARK  7 active torsions:
REMARK  status: ('A' for Active; 'I' for Inactive)
REMARK    1  A    between atoms: C_2  and  C_3
REMARK    2  A    between atoms: C_6  and  O_7
REMARK    3  A    between atoms: O_7  and  C_8
REMARK    4  A    between atoms: C_11  and  O_12
REMARK    5  A    between atoms: O_12  and  C_13
REMARK    6  A    between atoms: C_16  and  C_17
REMARK    7  A    between atoms: C_17  and  O_18
REMARK                            x       y       z     vdW  Elec       q    Type
REMARK                         _______ _______ _______ _____ _____    ______ ____
ROOT
ATOM      1  C   UNL     1       6.027   5.172  14.545  0.00  0.00    +0.000 C 
ATOM      2  C   UNL     1       5.146   4.239  15.303  0.00  0.00    +0.000 C 
ATOM      3  C   UNL     1       5.315   3.975  16.608  0.00  0.00    +0.000 C 
ATOM      4  C   UNL     1       6.418   4.551  17.455  0.00  0.00    +0.000 C 
ATOM      5  C   UNL     1       7.400   5.417  16.629  0.00  0.00    +0.000 C 
ATOM      6  O   UNL     1       7.279   5.363  15.217  0.00  0.00    +0.000 OA
ENDROOT
BRANCH   1   8
ATOM      7  C   UNL     1       7.159   3.956  12.261  0.00  0.00    +0.000 C 
ATOM      8  C   UNL     1       6.636   4.517  13.316  0.00  0.00    +0.000 C 
ENDBRANCH   1   8
BRANCH   4   9
ATOM      9  O   UNL     1       5.783   5.239  18.540  0.00  0.00    +0.000 OA
BRANCH   9  10
ATOM     10  C   UNL     1       4.653   4.738  19.132  0.00  0.00    +0.000 A 
ATOM     11  C   UNL     1       4.429   3.443  19.560  0.00  0.00    +0.000 A 
ATOM     12  C   UNL     1       3.232   3.102  20.217  0.00  0.00    +0.000 A 
ATOM     13  C   UNL     1       2.268   4.081  20.489  0.00  0.00    +0.000 A 
ATOM     14  C   UNL     1       2.462   5.367  20.016  0.00  0.00    +0.000 A 
ATOM     15  C   UNL     1       3.640   5.690  19.319  0.00  0.00    +0.000 A 
BRANCH  13  16
ATOM     16  O   UNL     1       1.159   3.664  21.182  0.00  0.00    +0.000 OA
ATOM     17  C   UNL     1       1.301   2.432  21.884  0.00  0.00    +0.000 C 
ENDBRANCH  13  16
ENDBRANCH   9  10
ENDBRANCH   4   9
BRANCH   5  18
ATOM     18  C   UNL     1       7.601   6.895  16.941  0.00  0.00    +0.000 C 
BRANCH  18  19
ATOM     19  O   UNL     1       6.374   7.603  17.043  0.00  0.00    +0.000 OA
ATOM     20  H   UNL     1       5.664   6.953  16.894  0.00  0.00    +0.000 HD
ENDBRANCH  18  19
ENDBRANCH   5  18
TORSDOF 6
ENDMDL
MODEL 7
REMARK VINA RESULT:      -6.1      1.037      1.124
REMARK  Name = 
REMARK  7 active torsions:
REMARK  status: ('A' for Active; 'I' for Inactive)
REMARK    1  A    between atoms: C_2  and  C_3
REMARK    2  A    between atoms: C_6  and  O_7
REMARK    3  A    between atoms: O_7  and  C_8
REMARK    4  A    between atoms: C_11  and  O_12
REMARK    5  A    between atoms: O_12  and  C_13
REMARK    6  A    between atoms: C_16  and  C_17
REMARK    7  A    between atoms: C_17  and  O_18
REMARK                            x       y       z     vdW  Elec       q    Type
REMARK                         _______ _______ _______ _____ _____    ______ ____
ROOT
ATOM      1  C   UNL     1       6.900   6.648  17.934  0.00  0.00    +0.000 C 
ATOM      2  C   UNL     1       5.436   6.798  18.171  0.00  0.00    +0.000 C 
ATOM      3  C   UNL     1       4.508   6.227  17.387  0.00  0.00    +0.000 C 
ATOM      4  C   UNL     1       4.819   5.403  16.167  0.00  0.00    +0.000 C 
ATOM      5  C   UNL     1       6.334   5.360  15.858  0.00  0.00    +0.000 C 
ATOM      6  O   UNL     1       7.167   6.251  16.582  0.00  0.00    +0.000 OA
ENDROOT
BRANCH   1   8
ATOM      7  C   UNL     1       8.208   9.142  17.718  0.00  0.00    +0.000 C 
ATOM      8  C   UNL     1       7.604   7.990  17.818  0.00  0.00    +0.000 C 
ENDBRANCH   1   8
BRANCH   4   9
ATOM      9  O   UNL     1       4.216   4.120  16.376  0.00  0.00    +0.000 OA
BRANCH   9  10
ATOM     10  C   UNL     1       3.544   3.833  17.536  0.00  0.00    +0.000 A 
ATOM     11  C   UNL     1       4.081   3.415  18.739  0.00  0.00    +0.000 A 
ATOM     12  C   UNL     1       3.259   3.228  19.865  0.00  0.00    +0.000 A 
ATOM     13  C   UNL     1       1.888   3.509  19.797  0.00  0.00    +0.000 A 
ATOM     14  C   UNL     1       1.335   3.876  18.582  0.00  0.00    +0.000 A 
ATOM     15  C   UNL     1       2.156   4.016  17.450  0.00  0.00    +0.000 A 
BRANCH  13  16
ATOM     16  O   UNL     1       1.177   3.349  20.960  0.00  0.00    +0.000 OA
ATOM     17  C   UNL     1       1.770   2.486  21.928  0.00  0.00    +0.000 C 
ENDBRANCH  13  16
ENDBRANCH   9  10
ENDBRANCH   4   9
BRANCH   5  18
ATOM     18  C   UNL     1       7.100   4.042  15.847  0.00  0.00    +0.000 C 
BRANCH  18  19
ATOM     19  O   UNL     1       8.146   4.012  16.808  0.00  0.00    +0.000 OA
ATOM     20  H   UNL     1       8.392   4.938  16.981  0.00  0.00    +0.000 HD
ENDBRANCH  18  19
ENDBRANCH   5  18
TORSDOF 6
ENDMDL
MODEL 8
REMARK VINA RESULT:      -6.0      2.631      6.162
REMARK  Name = 
REMARK  7 active torsions:
REMARK  status: ('A' for Active; 'I' for Inactive)
REMARK    1  A    between atoms: C_2  and  C_3
REMARK    2  A    between atoms: C_6  and  O_7
REMARK    3  A    between atoms: O_7  and  C_8
REMARK    4  A    between atoms: C_11  and  O_12
REMARK    5  A    between atoms: O_12  and  C_13
REMARK    6  A    between atoms: C_16  and  C_17
REMARK    7  A    between atoms: C_17  and  O_18
REMARK                            x       y       z     vdW  Elec       q    Type
REMARK                         _______ _______ _______ _____ _____    ______ ____
ROOT
ATOM      1  C   UNL     1       1.539   6.776  19.890  0.00  0.00    +0.000 C 
ATOM      2  C   UNL     1       2.716   7.129  19.047  0.00  0.00    +0.000 C 
ATOM      3  C   UNL     1       3.758   6.302  18.867  0.00  0.00    +0.000 C 
ATOM      4  C   UNL     1       3.888   4.947  19.510  0.00  0.00    +0.000 C 
ATOM      5  C   UNL     1       2.722   4.645  20.481  0.00  0.00    +0.000 C 
ATOM      6  O   UNL     1       1.857   5.721  20.808  0.00  0.00    +0.000 OA
ENDROOT
BRANCH   1   8
ATOM      7  C   UNL     1       1.044   8.702  21.894  0.00  0.00    +0.000 C 
ATOM      8  C   UNL     1       1.273   7.813  20.969  0.00  0.00    +0.000 C 
ENDBRANCH   1   8
BRANCH   4   9
ATOM      9  O   UNL     1       4.036   4.002  18.443  0.00  0.00    +0.000 OA
BRANCH   9  10
ATOM     10  C   UNL     1       4.911   4.228  17.413  0.00  0.00    +0.000 A 
ATOM     11  C   UNL     1       4.636   4.223  16.058  0.00  0.00    +0.000 A 
ATOM     12  C   UNL     1       5.637   4.545  15.122  0.00  0.00    +0.000 A 
ATOM     13  C   UNL     1       6.917   4.921  15.553  0.00  0.00    +0.000 A 
ATOM     14  C   UNL     1       7.213   4.875  16.904  0.00  0.00    +0.000 A 
ATOM     15  C   UNL     1       6.221   4.507  17.829  0.00  0.00    +0.000 A 
BRANCH  13  16
ATOM     16  O   UNL     1       7.809   5.269  14.570  0.00  0.00    +0.000 OA
ATOM     17  C   UNL     1       7.445   4.885  13.246  0.00  0.00    +0.000 C 
ENDBRANCH  13  16
ENDBRANCH   9  10
ENDBRANCH   4   9
BRANCH   5  18
ATOM     18  C   UNL     1       1.791   3.460  20.253  0.00  0.00    +0.000 C 
BRANCH  18  19
ATOM     19  O   UNL     1       1.275   3.421  18.930  0.00  0.00    +0.000 OA
ATOM     20  H   UNL     1       2.019   3.190  18.347  0.00  0.00    +0.000 HD
ENDBRANCH  18  19
ENDBRANCH   5  18
TORSDOF 6
ENDMDL
MODEL 9
REMARK VINA RESULT:      -6.0      4.421      5.792
REMARK  Name = 
REMARK  7 active torsions:
REMARK  status: ('A' for Active; 'I' for Inactive)
REMARK    1  A    between atoms: C_2  and  C_3
REMARK    2  A    between atoms: C_6  and  O_7
REMARK    3  A    between atoms: O_7  and  C_8
REMARK    4  A    between atoms: C_11  and  O_12
REMARK    5  A    between atoms: O_12  and  C_13
REMARK    6  A    between atoms: C_16  and  C_17
REMARK    7  A    between atoms: C_17  and  O_18
REMARK                            x       y       z     vdW  Elec       q    Type
REMARK                         _______ _______ _______ _____ _____    ______ ____
ROOT
ATOM      1  C   UNL     1       5.288   4.882  17.054  0.00  0.00    +0.000 C 
ATOM      2  C   UNL     1       5.198   6.367  17.143  0.00  0.00    +0.000 C 
ATOM      3  C   UNL     1       4.109   7.005  17.599  0.00  0.00    +0.000 C 
ATOM      4  C   UNL     1       2.845   6.318  18.041  0.00  0.00    +0.000 C 
ATOM      5  C   UNL     1       2.904   4.787  17.825  0.00  0.00    +0.000 C 
ATOM      6  O   UNL     1       3.985   4.283  17.058  0.00  0.00    +0.000 OA
ENDROOT
BRANCH   1   8
ATOM      7  C   UNL     1       5.953   4.006  14.453  0.00  0.00    +0.000 C 
ATOM      8  C   UNL     1       5.646   4.411  15.654  0.00  0.00    +0.000 C 
ENDBRANCH   1   8
BRANCH   4   9
ATOM      9  O   UNL     1       2.613   6.721  19.396  0.00  0.00    +0.000 OA
BRANCH   9  10
ATOM     10  C   UNL     1       1.866   7.833  19.687  0.00  0.00    +0.000 A 
ATOM     11  C   UNL     1       1.476   8.837  18.820  0.00  0.00    +0.000 A 
ATOM     12  C   UNL     1       0.645   9.883  19.262  0.00  0.00    +0.000 A 
ATOM     13  C   UNL     1       0.161   9.897  20.577  0.00  0.00    +0.000 A 
ATOM     14  C   UNL     1       0.591   8.926  21.464  0.00  0.00    +0.000 A 
ATOM     15  C   UNL     1       1.458   7.909  21.027  0.00  0.00    +0.000 A 
BRANCH  13  16
ATOM     16  O   UNL     1      -0.686  10.928  20.900  0.00  0.00    +0.000 OA
ATOM     17  C   UNL     1      -0.834  11.188  22.293  0.00  0.00    +0.000 C 
ENDBRANCH  13  16
ENDBRANCH   9  10
ENDBRANCH   4   9
BRANCH   5  18
ATOM     18  C   UNL     1       2.781   3.820  18.996  0.00  0.00    +0.000 C 
BRANCH  18  19
ATOM     19  O   UNL     1       1.619   4.057  19.778  0.00  0.00    +0.000 OA
ATOM     20  H   UNL     1       1.405   3.217  20.222  0.00  0.00    +0.000 HD
ENDBRANCH  18  19
ENDBRANCH   5  18
TORSDOF 6
ENDMDL
