MODEL 1
REMARK VINA RESULT:      -8.1      0.000      0.000
REMARK  Name = 
REMARK  18 active torsions:
REMARK  status: ('A' for Active; 'I' for Inactive)
REMARK    1  A    between atoms: C_2  and  C_3
REMARK    2  A    between atoms: C_3  and  C_4
REMARK    3  A    between atoms: C_6  and  C_7
REMARK    4  A    between atoms: C_8  and  C_9
REMARK    5  A    between atoms: C_9  and  O_10
REMARK    6  A    between atoms: C_11  and  C_12
REMARK    7  A    between atoms: C_12  and  C_14
REMARK    8  A    between atoms: C_15  and  C_16
REMARK    9  A    between atoms: C_18  and  C_19
REMARK   10  A    between atoms: C_19  and  C_20
REMARK   11  A    between atoms: C_21  and  C_22
REMARK   12  A    between atoms: C_21  and  C_23
REMARK   13  A    between atoms: C_24  and  O_25
REMARK   14  A    between atoms: C_26  and  O_27
REMARK   15  A    between atoms: O_27  and  C_28
REMARK   16  A    between atoms: C_31  and  O_32
REMARK   17  A    between atoms: O_32  and  C_33
REMARK   18  A    between atoms: C_34  and  O_35
REMARK                            x       y       z     vdW  Elec       q    Type
REMARK                         _______ _______ _______ _____ _____    ______ ____
ROOT
ATOM      1  C   UNL     1       1.370   9.743  18.512  0.00  0.00    +0.000 C 
ATOM      2  C   UNL     1       0.456  10.220  19.368  0.00  0.00    +0.000 C 
ENDROOT
BRANCH   1   4
ATOM      3  C   UNL     1       2.398   7.561  17.916  0.00  0.00    +0.000 C 
ATOM      4  C   UNL     1       2.089   8.511  18.809  0.00  0.00    +0.000 C 
BRANCH   3   7
ATOM      5  C   UNL     1       5.212   5.106  18.493  0.00  0.00    +0.000 A 
ATOM      6  C   UNL     1       4.486   6.251  18.124  0.00  0.00    +0.000 A 
ATOM      7  C   UNL     1       3.089   6.303  18.247  0.00  0.00    +0.000 A 
ATOM      8  C   UNL     1       2.407   5.183  18.748  0.00  0.00    +0.000 A 
ATOM      9  C   UNL     1       3.103   4.022  19.089  0.00  0.00    +0.000 A 
ATOM     10  C   UNL     1       4.498   3.997  18.955  0.00  0.00    +0.000 A 
BRANCH   9  11
ATOM     11  O   UNL     1       2.545   2.865  19.575  0.00  0.00    +0.000 OA
ATOM     12  C   UNL     1       1.608   2.207  18.729  0.00  0.00    +0.000 C 
ENDBRANCH   9  11
BRANCH  10  13
ATOM     13  O   UNL     1       5.179   2.857  19.300  0.00  0.00    +0.000 OA
ATOM     14  H   UNL     1       5.703   3.103  20.086  0.00  0.00    +0.000 HD
ENDBRANCH  10  13
BRANCH   5  15
ATOM     15  C   UNL     1       6.719   5.101  18.393  0.00  0.00    +0.000 C 
BRANCH  15  17
ATOM     16  C   UNL     1       6.856   4.920  15.886  0.00  0.00    +0.000 C 
ATOM     17  C   UNL     1       7.228   4.512  17.107  0.00  0.00    +0.000 C 
ENDBRANCH  15  17
ENDBRANCH   5  15
ENDBRANCH   3   7
ENDBRANCH   1   4
BRANCH   1  18
ATOM     18  O   UNL     1       1.705  10.393  17.352  0.00  0.00    +0.000 OA
ATOM     19  H   UNL     1       0.944  10.915  17.047  0.00  0.00    +0.000 HD
ENDBRANCH   1  18
BRANCH   2  20
ATOM     20  C   UNL     1      -0.355  11.457  19.191  0.00  0.00    +0.000 C 
ATOM     21  O   UNL     1      -0.141  12.306  18.334  0.00  0.00    +0.000 OA
BRANCH  20  22
ATOM     22  C   UNL     1      -1.445  11.686  20.184  0.00  0.00    +0.000 C 
ATOM     23  C   UNL     1      -2.341  12.681  20.095  0.00  0.00    +0.000 C 
BRANCH  23  24
ATOM     24  C   UNL     1      -3.433  12.861  21.046  0.00  0.00    +0.000 A 
ATOM     25  C   UNL     1      -4.746  12.650  20.636  0.00  0.00    +0.000 A 
ATOM     26  C   UNL     1      -5.797  12.714  21.562  0.00  0.00    +0.000 A 
ATOM     27  C   UNL     1      -5.508  13.057  22.897  0.00  0.00    +0.000 A 
ATOM     28  C   UNL     1      -4.187  13.237  23.328  0.00  0.00    +0.000 A 
ATOM     29  C   UNL     1      -3.156  13.139  22.386  0.00  0.00    +0.000 A 
BRANCH  27  30
ATOM     30  O   UNL     1      -6.552  13.215  23.766  0.00  0.00    +0.000 OA
ATOM     31  H   UNL     1      -7.292  13.557  23.233  0.00  0.00    +0.000 HD
ENDBRANCH  27  30
BRANCH  28  32
ATOM     32  O   UNL     1      -3.727  13.503  24.589  0.00  0.00    +0.000 OA
ATOM     33  C   UNL     1      -3.304  14.825  24.889  0.00  0.00    +0.000 C 
ENDBRANCH  28  32
BRANCH  26  34
ATOM     34  C   UNL     1      -7.181  12.309  21.109  0.00  0.00    +0.000 C 
BRANCH  34  35
ATOM     35  C   UNL     1      -7.481  10.845  21.249  0.00  0.00    +0.000 C 
ATOM     36  C   UNL     1      -7.362   9.886  20.308  0.00  0.00    +0.000 C 
ATOM     37  C   UNL     1      -6.765  10.074  18.942  0.00  0.00    +0.000 C 
ATOM     38  C   UNL     1      -7.899   8.500  20.561  0.00  0.00    +0.000 C 
ENDBRANCH  34  35
ENDBRANCH  26  34
ENDBRANCH  23  24
ENDBRANCH  20  22
ENDBRANCH   2  20
TORSDOF 14
ENDMDL
MODEL 2
REMARK VINA RESULT:      -8.0      1.211      2.802
REMARK  Name = 
REMARK  18 active torsions:
REMARK  status: ('A' for Active; 'I' for Inactive)
REMARK    1  A    between atoms: C_2  and  C_3
REMARK    2  A    between atoms: C_3  and  C_4
REMARK    3  A    between atoms: C_6  and  C_7
REMARK    4  A    between atoms: C_8  and  C_9
REMARK    5  A    between atoms: C_9  and  O_10
REMARK    6  A    between atoms: C_11  and  C_12
REMARK    7  A    between atoms: C_12  and  C_14
REMARK    8  A    between atoms: C_15  and  C_16
REMARK    9  A    between atoms: C_18  and  C_19
REMARK   10  A    between atoms: C_19  and  C_20
REMARK   11  A    between atoms: C_21  and  C_22
REMARK   12  A    between atoms: C_21  and  C_23
REMARK   13  A    between atoms: C_24  and  O_25
REMARK   14  A    between atoms: C_26  and  O_27
REMARK   15  A    between atoms: O_27  and  C_28
REMARK   16  A    between atoms: C_31  and  O_32
REMARK   17  A    between atoms: O_32  and  C_33
REMARK   18  A    between atoms: C_34  and  O_35
REMARK                            x       y       z     vdW  Elec       q    Type
REMARK                         _______ _______ _______ _____ _____    ______ ____
ROOT
ATOM      1  C   UNL     1       1.490   9.883  18.526  0.00  0.00    +0.000 C 
ATOM      2  C   UNL     1       0.804  10.354  19.575  0.00  0.00    +0.000 C 
ENDROOT
BRANCH   1   4
ATOM      3  C   UNL     1       3.000   8.019  17.877  0.00  0.00    +0.000 C 
ATOM      4  C   UNL     1       1.895   8.484  18.476  0.00  0.00    +0.000 C 
BRANCH   3   7
ATOM      5  C   UNL     1       2.646   4.258  17.917  0.00  0.00    +0.000 A 
ATOM      6  C   UNL     1       2.378   5.631  18.044  0.00  0.00    +0.000 A 
ATOM      7  C   UNL     1       3.369   6.595  17.803  0.00  0.00    +0.000 A 
ATOM      8  C   UNL     1       4.655   6.172  17.429  0.00  0.00    +0.000 A 
ATOM      9  C   UNL     1       4.953   4.812  17.329  0.00  0.00    +0.000 A 
ATOM     10  C   UNL     1       3.945   3.870  17.578  0.00  0.00    +0.000 A 
BRANCH   9  11
ATOM     11  O   UNL     1       6.173   4.281  16.986  0.00  0.00    +0.000 OA
ATOM     12  C   UNL     1       7.322   4.937  17.512  0.00  0.00    +0.000 C 
ENDBRANCH   9  11
BRANCH  10  13
ATOM     13  O   UNL     1       4.241   2.535  17.471  0.00  0.00    +0.000 OA
ATOM     14  H   UNL     1       4.831   2.468  16.696  0.00  0.00    +0.000 HD
ENDBRANCH  10  13
BRANCH   5  15
ATOM     15  C   UNL     1       1.544   3.248  18.138  0.00  0.00    +0.000 C 
BRANCH  15  17
ATOM     16  C   UNL     1       1.180   3.493  20.616  0.00  0.00    +0.000 C 
ATOM     17  C   UNL     1       1.477   2.738  19.549  0.00  0.00    +0.000 C 
ENDBRANCH  15  17
ENDBRANCH   5  15
ENDBRANCH   3   7
ENDBRANCH   1   4
BRANCH   1  18
ATOM     18  O   UNL     1       1.878  10.679  17.478  0.00  0.00    +0.000 OA
ATOM     19  H   UNL     1       1.855  11.609  17.759  0.00  0.00    +0.000 HD
ENDBRANCH   1  18
BRANCH   2  20
ATOM     20  C   UNL     1       0.322  11.753  19.755  0.00  0.00    +0.000 C 
ATOM     21  O   UNL     1       0.841  12.734  19.237  0.00  0.00    +0.000 OA
BRANCH  20  22
ATOM     22  C   UNL     1      -0.823  11.946  20.693  0.00  0.00    +0.000 C 
ATOM     23  C   UNL     1      -1.703  12.955  20.600  0.00  0.00    +0.000 C 
BRANCH  23  24
ATOM     24  C   UNL     1      -2.848  13.101  21.493  0.00  0.00    +0.000 A 
ATOM     25  C   UNL     1      -4.120  12.756  21.046  0.00  0.00    +0.000 A 
ATOM     26  C   UNL     1      -5.213  12.788  21.923  0.00  0.00    +0.000 A 
ATOM     27  C   UNL     1      -5.013  13.237  23.243  0.00  0.00    +0.000 A 
ATOM     28  C   UNL     1      -3.732  13.554  23.713  0.00  0.00    +0.000 A 
ATOM     29  C   UNL     1      -2.655  13.484  22.822  0.00  0.00    +0.000 A 
BRANCH  27  30
ATOM     30  O   UNL     1      -6.105  13.361  24.058  0.00  0.00    +0.000 OA
ATOM     31  H   UNL     1      -6.672  12.594  23.861  0.00  0.00    +0.000 HD
ENDBRANCH  27  30
BRANCH  28  32
ATOM     32  O   UNL     1      -3.352  13.936  24.972  0.00  0.00    +0.000 OA
ATOM     33  C   UNL     1      -2.839  15.247  25.154  0.00  0.00    +0.000 C 
ENDBRANCH  28  32
BRANCH  26  34
ATOM     34  C   UNL     1      -6.538  12.242  21.443  0.00  0.00    +0.000 C 
BRANCH  34  35
ATOM     35  C   UNL     1      -6.937  12.691  20.067  0.00  0.00    +0.000 C 
ATOM     36  C   UNL     1      -6.967  11.957  18.937  0.00  0.00    +0.000 C 
ATOM     37  C   UNL     1      -6.728  10.475  18.853  0.00  0.00    +0.000 C 
ATOM     38  C   UNL     1      -7.201  12.619  17.603  0.00  0.00    +0.000 C 
ENDBRANCH  34  35
ENDBRANCH  26  34
ENDBRANCH  23  24
ENDBRANCH  20  22
ENDBRANCH   2  20
TORSDOF 14
ENDMDL
MODEL 3
REMARK VINA RESULT:      -7.9      1.300     11.817
REMARK  Name = 
REMARK  18 active torsions:
REMARK  status: ('A' for Active; 'I' for Inactive)
REMARK    1  A    between atoms: C_2  and  C_3
REMARK    2  A    between atoms: C_3  and  C_4
REMARK    3  A    between atoms: C_6  and  C_7
REMARK    4  A    between atoms: C_8  and  C_9
REMARK    5  A    between atoms: C_9  and  O_10
REMARK    6  A    between atoms: C_11  and  C_12
REMARK    7  A    between atoms: C_12  and  C_14
REMARK    8  A    between atoms: C_15  and  C_16
REMARK    9  A    between atoms: C_18  and  C_19
REMARK   10  A    between atoms: C_19  and  C_20
REMARK   11  A    between atoms: C_21  and  C_22
REMARK   12  A    between atoms: C_21  and  C_23
REMARK   13  A    between atoms: C_24  and  O_25
REMARK   14  A    between atoms: C_26  and  O_27
REMARK   15  A    between atoms: O_27  and  C_28
REMARK   16  A    between atoms: C_31  and  O_32
REMARK   17  A    between atoms: O_32  and  C_33
REMARK   18  A    between atoms: C_34  and  O_35
REMARK                            x       y       z     vdW  Elec       q    Type
REMARK                         _______ _______ _______ _____ _____    ______ ____
ROOT
ATOM      1  C   UNL     1       0.227  11.307  19.643  0.00  0.00    +0.000 C 
ATOM      2  C   UNL     1       0.503  10.427  18.671  0.00  0.00    +0.000 C 
ENDROOT
BRANCH   1   4
ATOM      3  C   UNL     1      -1.970  12.432  19.931  0.00  0.00    +0.000 C 
ATOM      4  C   UNL     1      -1.125  11.421  20.174  0.00  0.00    +0.000 C 
BRANCH   3   7
ATOM      5  C   UNL     1      -5.738  12.330  20.198  0.00  0.00    +0.000 A 
ATOM      6  C   UNL     1      -4.429  12.309  19.688  0.00  0.00    +0.000 A 
ATOM      7  C   UNL     1      -3.318  12.548  20.513  0.00  0.00    +0.000 A 
ATOM      8  C   UNL     1      -3.526  12.816  21.875  0.00  0.00    +0.000 A 
ATOM      9  C   UNL     1      -4.819  12.876  22.397  0.00  0.00    +0.000 A 
ATOM     10  C   UNL     1      -5.911  12.635  21.550  0.00  0.00    +0.000 A 
BRANCH   9  11
ATOM     11  O   UNL     1      -5.146  13.142  23.705  0.00  0.00    +0.000 OA
ATOM     12  C   UNL     1      -4.098  13.633  24.534  0.00  0.00    +0.000 C 
ENDBRANCH   9  11
BRANCH  10  13
ATOM     13  O   UNL     1      -7.179  12.687  22.070  0.00  0.00    +0.000 OA
ATOM     14  H   UNL     1      -7.131  13.342  22.792  0.00  0.00    +0.000 HD
ENDBRANCH  10  13
BRANCH   5  15
ATOM     15  C   UNL     1      -6.907  12.022  19.293  0.00  0.00    +0.000 C 
BRANCH  15  17
ATOM     16  C   UNL     1      -7.013   9.508  19.370  0.00  0.00    +0.000 C 
ATOM     17  C   UNL     1      -6.845  10.649  18.687  0.00  0.00    +0.000 C 
ENDBRANCH  15  17
ENDBRANCH   5  15
ENDBRANCH   3   7
ENDBRANCH   1   4
BRANCH   1  18
ATOM     18  O   UNL     1       1.169  12.161  20.157  0.00  0.00    +0.000 OA
ATOM     19  H   UNL     1       0.776  13.043  20.262  0.00  0.00    +0.000 HD
ENDBRANCH   1  18
BRANCH   2  20
ATOM     20  C   UNL     1       1.834  10.200  18.042  0.00  0.00    +0.000 C 
ATOM     21  O   UNL     1       2.528  11.085  17.557  0.00  0.00    +0.000 OA
BRANCH  20  22
ATOM     22  C   UNL     1       2.290   8.782  17.943  0.00  0.00    +0.000 C 
ATOM     23  C   UNL     1       2.220   7.903  18.953  0.00  0.00    +0.000 C 
BRANCH  23  24
ATOM     24  C   UNL     1       2.621   6.506  18.825  0.00  0.00    +0.000 A 
ATOM     25  C   UNL     1       3.734   6.175  18.057  0.00  0.00    +0.000 A 
ATOM     26  C   UNL     1       4.196   4.852  18.011  0.00  0.00    +0.000 A 
ATOM     27  C   UNL     1       3.477   3.856  18.701  0.00  0.00    +0.000 A 
ATOM     28  C   UNL     1       2.376   4.183  19.504  0.00  0.00    +0.000 A 
ATOM     29  C   UNL     1       1.956   5.516  19.553  0.00  0.00    +0.000 A 
BRANCH  27  30
ATOM     30  O   UNL     1       3.879   2.555  18.564  0.00  0.00    +0.000 OA
ATOM     31  H   UNL     1       4.602   2.567  17.913  0.00  0.00    +0.000 HD
ENDBRANCH  27  30
BRANCH  28  32
ATOM     32  O   UNL     1       1.614   3.359  20.288  0.00  0.00    +0.000 OA
ATOM     33  C   UNL     1       2.033   3.122  21.623  0.00  0.00    +0.000 C 
ENDBRANCH  28  32
BRANCH  26  34
ATOM     34  C   UNL     1       5.504   4.570  17.308  0.00  0.00    +0.000 C 
BRANCH  34  35
ATOM     35  C   UNL     1       6.345   5.785  17.043  0.00  0.00    +0.000 C 
ATOM     36  C   UNL     1       7.261   6.347  17.858  0.00  0.00    +0.000 C 
ATOM     37  C   UNL     1       7.728   5.777  19.169  0.00  0.00    +0.000 C 
ATOM     38  C   UNL     1       7.870   7.682  17.514  0.00  0.00    +0.000 C 
ENDBRANCH  34  35
ENDBRANCH  26  34
ENDBRANCH  23  24
ENDBRANCH  20  22
ENDBRANCH   2  20
TORSDOF 14
ENDMDL
MODEL 4
REMARK VINA RESULT:      -7.8      1.169     12.415
REMARK  Name = 
REMARK  18 active torsions:
REMARK  status: ('A' for Active; 'I' for Inactive)
REMARK    1  A    between atoms: C_2  and  C_3
REMARK    2  A    between atoms: C_3  and  C_4
REMARK    3  A    between atoms: C_6  and  C_7
REMARK    4  A    between atoms: C_8  and  C_9
REMARK    5  A    between atoms: C_9  and  O_10
REMARK    6  A    between atoms: C_11  and  C_12
REMARK    7  A    between atoms: C_12  and  C_14
REMARK    8  A    between atoms: C_15  and  C_16
REMARK    9  A    between atoms: C_18  and  C_19
REMARK   10  A    between atoms: C_19  and  C_20
REMARK   11  A    between atoms: C_21  and  C_22
REMARK   12  A    between atoms: C_21  and  C_23
REMARK   13  A    between atoms: C_24  and  O_25
REMARK   14  A    between atoms: C_26  and  O_27
REMARK   15  A    between atoms: O_27  and  C_28
REMARK   16  A    between atoms: C_31  and  O_32
REMARK   17  A    between atoms: O_32  and  C_33
REMARK   18  A    between atoms: C_34  and  O_35
REMARK                            x       y       z     vdW  Elec       q    Type
REMARK                         _______ _______ _______ _____ _____    ______ ____
ROOT
ATOM      1  C   UNL     1      -0.279  11.319  19.158  0.00  0.00    +0.000 C 
ATOM      2  C   UNL     1       0.499  10.234  19.279  0.00  0.00    +0.000 C 
ENDROOT
BRANCH   1   4
ATOM      3  C   UNL     1      -2.090  12.693  20.162  0.00  0.00    +0.000 C 
ATOM      4  C   UNL     1      -1.298  11.612  20.157  0.00  0.00    +0.000 C 
BRANCH   3   7
ATOM      5  C   UNL     1      -5.445  13.068  21.858  0.00  0.00    +0.000 A 
ATOM      6  C   UNL     1      -4.447  12.871  20.888  0.00  0.00    +0.000 A 
ATOM      7  C   UNL     1      -3.086  12.990  21.205  0.00  0.00    +0.000 A 
ATOM      8  C   UNL     1      -2.718  13.316  22.521  0.00  0.00    +0.000 A 
ATOM      9  C   UNL     1      -3.692  13.550  23.492  0.00  0.00    +0.000 A 
ATOM     10  C   UNL     1      -5.046  13.426  23.148  0.00  0.00    +0.000 A 
BRANCH   9  11
ATOM     11  O   UNL     1      -3.455  13.887  24.803  0.00  0.00    +0.000 OA
ATOM     12  C   UNL     1      -2.654  15.042  25.027  0.00  0.00    +0.000 C 
ENDBRANCH   9  11
BRANCH  10  13
ATOM     13  O   UNL     1      -5.999  13.648  24.108  0.00  0.00    +0.000 OA
ATOM     14  H   UNL     1      -6.613  12.892  24.036  0.00  0.00    +0.000 HD
ENDBRANCH  10  13
BRANCH   5  15
ATOM     15  C   UNL     1      -6.900  12.886  21.494  0.00  0.00    +0.000 C 
BRANCH  15  17
ATOM     16  C   UNL     1      -7.458  10.949  19.987  0.00  0.00    +0.000 C 
ATOM     17  C   UNL     1      -7.268  11.456  21.213  0.00  0.00    +0.000 C 
ENDBRANCH  15  17
ENDBRANCH   5  15
ENDBRANCH   3   7
ENDBRANCH   1   4
BRANCH   1  18
ATOM     18  O   UNL     1      -0.192  12.176  18.091  0.00  0.00    +0.000 OA
ATOM     19  H   UNL     1       0.455  11.829  17.455  0.00  0.00    +0.000 HD
ENDBRANCH   1  18
BRANCH   2  20
ATOM     20  C   UNL     1       1.580   9.818  18.341  0.00  0.00    +0.000 C 
ATOM     21  O   UNL     1       2.190  10.585  17.607  0.00  0.00    +0.000 OA
BRANCH  20  22
ATOM     22  C   UNL     1       1.862   8.355  18.259  0.00  0.00    +0.000 C 
ATOM     23  C   UNL     1       2.984   7.838  17.736  0.00  0.00    +0.000 C 
BRANCH  23  24
ATOM     24  C   UNL     1       3.269   6.407  17.710  0.00  0.00    +0.000 A 
ATOM     25  C   UNL     1       4.359   5.934  16.985  0.00  0.00    +0.000 A 
ATOM     26  C   UNL     1       4.709   4.577  17.038  0.00  0.00    +0.000 A 
ATOM     27  C   UNL     1       3.903   3.694  17.782  0.00  0.00    +0.000 A 
ATOM     28  C   UNL     1       2.825   4.165  18.542  0.00  0.00    +0.000 A 
ATOM     29  C   UNL     1       2.516   5.529  18.493  0.00  0.00    +0.000 A 
BRANCH  27  30
ATOM     30  O   UNL     1       4.197   2.358  17.742  0.00  0.00    +0.000 OA
ATOM     31  H   UNL     1       3.483   1.915  18.234  0.00  0.00    +0.000 HD
ENDBRANCH  27  30
BRANCH  28  32
ATOM     32  O   UNL     1       1.989   3.464  19.368  0.00  0.00    +0.000 OA
ATOM     33  C   UNL     1       1.236   2.394  18.817  0.00  0.00    +0.000 C 
ENDBRANCH  28  32
BRANCH  26  34
ATOM     34  C   UNL     1       5.997   4.141  16.377  0.00  0.00    +0.000 C 
BRANCH  34  35
ATOM     35  C   UNL     1       5.829   3.564  15.002  0.00  0.00    +0.000 C 
ATOM     36  C   UNL     1       6.405   3.983  13.856  0.00  0.00    +0.000 C 
ATOM     37  C   UNL     1       7.456   5.052  13.749  0.00  0.00    +0.000 C 
ATOM     38  C   UNL     1       5.968   3.413  12.531  0.00  0.00    +0.000 C 
ENDBRANCH  34  35
ENDBRANCH  26  34
ENDBRANCH  23  24
ENDBRANCH  20  22
ENDBRANCH   2  20
TORSDOF 14
ENDMDL
MODEL 5
REMARK VINA RESULT:      -7.8      4.332     11.500
REMARK  Name = 
REMARK  18 active torsions:
REMARK  status: ('A' for Active; 'I' for Inactive)
REMARK    1  A    between atoms: C_2  and  C_3
REMARK    2  A    between atoms: C_3  and  C_4
REMARK    3  A    between atoms: C_6  and  C_7
REMARK    4  A    between atoms: C_8  and  C_9
REMARK    5  A    between atoms: C_9  and  O_10
REMARK    6  A    between atoms: C_11  and  C_12
REMARK    7  A    between atoms: C_12  and  C_14
REMARK    8  A    between atoms: C_15  and  C_16
REMARK    9  A    between atoms: C_18  and  C_19
REMARK   10  A    between atoms: C_19  and  C_20
REMARK   11  A    between atoms: C_21  and  C_22
REMARK   12  A    between atoms: C_21  and  C_23
REMARK   13  A    between atoms: C_24  and  O_25
REMARK   14  A    between atoms: C_26  and  O_27
REMARK   15  A    between atoms: O_27  and  C_28
REMARK   16  A    between atoms: C_31  and  O_32
REMARK   17  A    between atoms: O_32  and  C_33
REMARK   18  A    between atoms: C_34  and  O_35
REMARK                            x       y       z     vdW  Elec       q    Type
REMARK                         _______ _______ _______ _____ _____    ______ ____
ROOT
ATOM      1  C   UNL     1       0.200  11.274  21.342  0.00  0.00    +0.000 C 
ATOM      2  C   UNL     1       0.854  10.111  21.228  0.00  0.00    +0.000 C 
ENDROOT
BRANCH   1   4
ATOM      3  C   UNL     1       1.079  12.660  19.476  0.00  0.00    +0.000 C 
ATOM      4  C   UNL     1       0.753  12.492  20.765  0.00  0.00    +0.000 C 
BRANCH   3   7
ATOM      5  C   UNL     1       1.532  16.314  18.630  0.00  0.00    +0.000 A 
ATOM      6  C   UNL     1       0.984  15.098  19.070  0.00  0.00    +0.000 A 
ATOM      7  C   UNL     1       1.676  13.887  18.922  0.00  0.00    +0.000 A 
ATOM      8  C   UNL     1       2.944  13.896  18.317  0.00  0.00    +0.000 A 
ATOM      9  C   UNL     1       3.494  15.087  17.842  0.00  0.00    +0.000 A 
ATOM     10  C   UNL     1       2.780  16.282  18.002  0.00  0.00    +0.000 A 
BRANCH   9  11
ATOM     11  O   UNL     1       4.715  15.218  17.225  0.00  0.00    +0.000 OA
ATOM     12  C   UNL     1       5.855  14.831  17.985  0.00  0.00    +0.000 C 
ENDBRANCH   9  11
BRANCH  10  13
ATOM     13  O   UNL     1       3.328  17.452  17.540  0.00  0.00    +0.000 OA
ATOM     14  H   UNL     1       2.598  17.912  17.084  0.00  0.00    +0.000 HD
ENDBRANCH  10  13
BRANCH   5  15
ATOM     15  C   UNL     1       0.780  17.606  18.848  0.00  0.00    +0.000 C 
BRANCH  15  17
ATOM     16  C   UNL     1      -1.644  17.986  18.287  0.00  0.00    +0.000 C 
ATOM     17  C   UNL     1      -0.374  17.790  17.905  0.00  0.00    +0.000 C 
ENDBRANCH  15  17
ENDBRANCH   5  15
ENDBRANCH   3   7
ENDBRANCH   1   4
BRANCH   1  18
ATOM     18  O   UNL     1      -0.982  11.394  22.028  0.00  0.00    +0.000 OA
ATOM     19  H   UNL     1      -1.065  10.653  22.651  0.00  0.00    +0.000 HD
ENDBRANCH   1  18
BRANCH   2  20
ATOM     20  C   UNL     1       0.406   8.793  21.760  0.00  0.00    +0.000 C 
ATOM     21  O   UNL     1      -0.377   8.655  22.692  0.00  0.00    +0.000 OA
BRANCH  20  22
ATOM     22  C   UNL     1       1.025   7.582  21.146  0.00  0.00    +0.000 C 
ATOM     23  C   UNL     1       1.856   7.619  20.093  0.00  0.00    +0.000 C 
BRANCH  23  24
ATOM     24  C   UNL     1       2.495   6.432  19.537  0.00  0.00    +0.000 A 
ATOM     25  C   UNL     1       3.229   6.531  18.358  0.00  0.00    +0.000 A 
ATOM     26  C   UNL     1       3.937   5.425  17.868  0.00  0.00    +0.000 A 
ATOM     27  C   UNL     1       3.841   4.197  18.553  0.00  0.00    +0.000 A 
ATOM     28  C   UNL     1       3.133   4.095  19.758  0.00  0.00    +0.000 A 
ATOM     29  C   UNL     1       2.460   5.224  20.237  0.00  0.00    +0.000 A 
BRANCH  27  30
ATOM     30  O   UNL     1       4.453   3.102  18.008  0.00  0.00    +0.000 OA
ATOM     31  H   UNL     1       4.999   3.439  17.276  0.00  0.00    +0.000 HD
ENDBRANCH  27  30
BRANCH  28  32
ATOM     32  O   UNL     1       2.996   3.009  20.580  0.00  0.00    +0.000 OA
ATOM     33  C   UNL     1       1.741   2.347  20.621  0.00  0.00    +0.000 C 
ENDBRANCH  28  32
BRANCH  26  34
ATOM     34  C   UNL     1       4.856   5.625  16.685  0.00  0.00    +0.000 C 
BRANCH  34  35
ATOM     35  C   UNL     1       5.833   6.754  16.837  0.00  0.00    +0.000 C 
ATOM     36  C   UNL     1       7.002   6.747  17.510  0.00  0.00    +0.000 C 
ATOM     37  C   UNL     1       7.636   5.540  18.144  0.00  0.00    +0.000 C 
ATOM     38  C   UNL     1       7.764   8.030  17.728  0.00  0.00    +0.000 C 
ENDBRANCH  34  35
ENDBRANCH  26  34
ENDBRANCH  23  24
ENDBRANCH  20  22
ENDBRANCH   2  20
TORSDOF 14
ENDMDL
MODEL 6
REMARK VINA RESULT:      -7.7      1.663      4.208
REMARK  Name = 
REMARK  18 active torsions:
REMARK  status: ('A' for Active; 'I' for Inactive)
REMARK    1  A    between atoms: C_2  and  C_3
REMARK    2  A    between atoms: C_3  and  C_4
REMARK    3  A    between atoms: C_6  and  C_7
REMARK    4  A    between atoms: C_8  and  C_9
REMARK    5  A    between atoms: C_9  and  O_10
REMARK    6  A    between atoms: C_11  and  C_12
REMARK    7  A    between atoms: C_12  and  C_14
REMARK    8  A    between atoms: C_15  and  C_16
REMARK    9  A    between atoms: C_18  and  C_19
REMARK   10  A    between atoms: C_19  and  C_20
REMARK   11  A    between atoms: C_21  and  C_22
REMARK   12  A    between atoms: C_21  and  C_23
REMARK   13  A    between atoms: C_24  and  O_25
REMARK   14  A    between atoms: C_26  and  O_27
REMARK   15  A    between atoms: O_27  and  C_28
REMARK   16  A    between atoms: C_31  and  O_32
REMARK   17  A    between atoms: O_32  and  C_33
REMARK   18  A    between atoms: C_34  and  O_35
REMARK                            x       y       z     vdW  Elec       q    Type
REMARK                         _______ _______ _______ _____ _____    ______ ____
ROOT
ATOM      1  C   UNL     1       1.364   9.644  18.407  0.00  0.00    +0.000 C 
ATOM      2  C   UNL     1       0.416  10.139  19.214  0.00  0.00    +0.000 C 
ENDROOT
BRANCH   1   4
ATOM      3  C   UNL     1       2.984   7.805  17.995  0.00  0.00    +0.000 C 
ATOM      4  C   UNL     1       1.993   8.364  18.703  0.00  0.00    +0.000 C 
BRANCH   3   7
ATOM      5  C   UNL     1       3.417   4.369  19.503  0.00  0.00    +0.000 A 
ATOM      6  C   UNL     1       2.946   5.664  19.232  0.00  0.00    +0.000 A 
ATOM      7  C   UNL     1       3.576   6.489  18.288  0.00  0.00    +0.000 A 
ATOM      8  C   UNL     1       4.704   6.006  17.606  0.00  0.00    +0.000 A 
ATOM      9  C   UNL     1       5.211   4.736  17.883  0.00  0.00    +0.000 A 
ATOM     10  C   UNL     1       4.562   3.933  18.832  0.00  0.00    +0.000 A 
BRANCH   9  11
ATOM     11  O   UNL     1       6.311   4.163  17.291  0.00  0.00    +0.000 OA
ATOM     12  C   UNL     1       6.241   3.962  15.883  0.00  0.00    +0.000 C 
ENDBRANCH   9  11
BRANCH  10  13
ATOM     13  O   UNL     1       5.059   2.682  19.095  0.00  0.00    +0.000 OA
ATOM     14  H   UNL     1       5.942   2.666  18.679  0.00  0.00    +0.000 HD
ENDBRANCH  10  13
BRANCH   5  15
ATOM     15  C   UNL     1       2.687   3.489  20.490  0.00  0.00    +0.000 C 
BRANCH  15  17
ATOM     16  C   UNL     1       1.038   2.454  18.895  0.00  0.00    +0.000 C 
ATOM     17  C   UNL     1       1.308   3.103  20.036  0.00  0.00    +0.000 C 
ENDBRANCH  15  17
ENDBRANCH   5  15
ENDBRANCH   3   7
ENDBRANCH   1   4
BRANCH   1  18
ATOM     18  O   UNL     1       1.817  10.317  17.301  0.00  0.00    +0.000 OA
ATOM     19  H   UNL     1       2.631   9.893  16.981  0.00  0.00    +0.000 HD
ENDBRANCH   1  18
BRANCH   2  20
ATOM     20  C   UNL     1      -0.314  11.425  19.030  0.00  0.00    +0.000 C 
ATOM     21  O   UNL     1       0.183  12.438  18.553  0.00  0.00    +0.000 OA
BRANCH  20  22
ATOM     22  C   UNL     1      -1.715  11.474  19.540  0.00  0.00    +0.000 C 
ATOM     23  C   UNL     1      -2.316  12.594  19.968  0.00  0.00    +0.000 C 
BRANCH  23  24
ATOM     24  C   UNL     1      -3.705  12.636  20.414  0.00  0.00    +0.000 A 
ATOM     25  C   UNL     1      -3.992  12.877  21.755  0.00  0.00    +0.000 A 
ATOM     26  C   UNL     1      -5.320  13.026  22.180  0.00  0.00    +0.000 A 
ATOM     27  C   UNL     1      -6.357  12.863  21.242  0.00  0.00    +0.000 A 
ATOM     28  C   UNL     1      -6.079  12.654  19.884  0.00  0.00    +0.000 A 
ATOM     29  C   UNL     1      -4.743  12.538  19.485  0.00  0.00    +0.000 A 
BRANCH  27  30
ATOM     30  O   UNL     1      -7.649  12.910  21.689  0.00  0.00    +0.000 OA
ATOM     31  H   UNL     1      -7.834  12.029  22.060  0.00  0.00    +0.000 HD
ENDBRANCH  27  30
BRANCH  28  32
ATOM     32  O   UNL     1      -6.955  12.544  18.838  0.00  0.00    +0.000 OA
ATOM     33  C   UNL     1      -6.434  12.255  17.549  0.00  0.00    +0.000 C 
ENDBRANCH  28  32
BRANCH  26  34
ATOM     34  C   UNL     1      -5.574  13.458  23.606  0.00  0.00    +0.000 C 
BRANCH  34  35
ATOM     35  C   UNL     1      -5.363  14.921  23.863  0.00  0.00    +0.000 C 
ATOM     36  C   UNL     1      -4.305  15.509  24.458  0.00  0.00    +0.000 C 
ATOM     37  C   UNL     1      -3.038  14.813  24.870  0.00  0.00    +0.000 C 
ATOM     38  C   UNL     1      -4.348  16.973  24.815  0.00  0.00    +0.000 C 
ENDBRANCH  34  35
ENDBRANCH  26  34
ENDBRANCH  23  24
ENDBRANCH  20  22
ENDBRANCH   2  20
TORSDOF 14
ENDMDL
MODEL 7
REMARK VINA RESULT:      -7.7      2.373      4.394
REMARK  Name = 
REMARK  18 active torsions:
REMARK  status: ('A' for Active; 'I' for Inactive)
REMARK    1  A    between atoms: C_2  and  C_3
REMARK    2  A    between atoms: C_3  and  C_4
REMARK    3  A    between atoms: C_6  and  C_7
REMARK    4  A    between atoms: C_8  and  C_9
REMARK    5  A    between atoms: C_9  and  O_10
REMARK    6  A    between atoms: C_11  and  C_12
REMARK    7  A    between atoms: C_12  and  C_14
REMARK    8  A    between atoms: C_15  and  C_16
REMARK    9  A    between atoms: C_18  and  C_19
REMARK   10  A    between atoms: C_19  and  C_20
REMARK   11  A    between atoms: C_21  and  C_22
REMARK   12  A    between atoms: C_21  and  C_23
REMARK   13  A    between atoms: C_24  and  O_25
REMARK   14  A    between atoms: C_26  and  O_27
REMARK   15  A    between atoms: O_27  and  C_28
REMARK   16  A    between atoms: C_31  and  O_32
REMARK   17  A    between atoms: O_32  and  C_33
REMARK   18  A    between atoms: C_34  and  O_35
REMARK                            x       y       z     vdW  Elec       q    Type
REMARK                         _______ _______ _______ _____ _____    ______ ____
ROOT
ATOM      1  C   UNL     1       1.941   9.762  18.439  0.00  0.00    +0.000 C 
ATOM      2  C   UNL     1       1.361  10.313  19.514  0.00  0.00    +0.000 C 
ENDROOT
BRANCH   1   4
ATOM      3  C   UNL     1       2.115   7.368  17.795  0.00  0.00    +0.000 C 
ATOM      4  C   UNL     1       2.516   8.425  18.515  0.00  0.00    +0.000 C 
BRANCH   3   7
ATOM      5  C   UNL     1       2.334   3.666  18.518  0.00  0.00    +0.000 A 
ATOM      6  C   UNL     1       1.877   4.993  18.442  0.00  0.00    +0.000 A 
ATOM      7  C   UNL     1       2.683   6.015  17.918  0.00  0.00    +0.000 A 
ATOM      8  C   UNL     1       3.974   5.700  17.464  0.00  0.00    +0.000 A 
ATOM      9  C   UNL     1       4.461   4.396  17.560  0.00  0.00    +0.000 A 
ATOM     10  C   UNL     1       3.635   3.394  18.089  0.00  0.00    +0.000 A 
BRANCH   9  11
ATOM     11  O   UNL     1       5.706   3.972  17.161  0.00  0.00    +0.000 OA
ATOM     12  C   UNL     1       5.900   3.800  15.761  0.00  0.00    +0.000 C 
ENDBRANCH   9  11
BRANCH  10  13
ATOM     13  O   UNL     1       4.116   2.112  18.174  0.00  0.00    +0.000 OA
ATOM     14  H   UNL     1       3.655   1.718  18.939  0.00  0.00    +0.000 HD
ENDBRANCH  10  13
BRANCH   5  15
ATOM     15  C   UNL     1       1.423   2.581  19.043  0.00  0.00    +0.000 C 
BRANCH  15  17
ATOM     16  C   UNL     1       2.006   3.374  21.359  0.00  0.00    +0.000 C 
ATOM     17  C   UNL     1       1.377   2.517  20.543  0.00  0.00    +0.000 C 
ENDBRANCH  15  17
ENDBRANCH   5  15
ENDBRANCH   3   7
ENDBRANCH   1   4
BRANCH   1  18
ATOM     18  O   UNL     1       2.060  10.422  17.243  0.00  0.00    +0.000 OA
ATOM     19  H   UNL     1       2.770  11.082  17.313  0.00  0.00    +0.000 HD
ENDBRANCH   1  18
BRANCH   2  20
ATOM     20  C   UNL     1       0.729  11.662  19.578  0.00  0.00    +0.000 C 
ATOM     21  O   UNL     1       1.189  12.610  20.201  0.00  0.00    +0.000 OA
BRANCH  20  22
ATOM     22  C   UNL     1      -0.588  11.813  18.891  0.00  0.00    +0.000 C 
ATOM     23  C   UNL     1      -1.730  11.271  19.338  0.00  0.00    +0.000 C 
BRANCH  23  24
ATOM     24  C   UNL     1      -3.019  11.472  18.684  0.00  0.00    +0.000 A 
ATOM     25  C   UNL     1      -4.034  12.151  19.353  0.00  0.00    +0.000 A 
ATOM     26  C   UNL     1      -5.240  12.445  18.700  0.00  0.00    +0.000 A 
ATOM     27  C   UNL     1      -5.430  11.987  17.382  0.00  0.00    +0.000 A 
ATOM     28  C   UNL     1      -4.403  11.333  16.688  0.00  0.00    +0.000 A 
ATOM     29  C   UNL     1      -3.200  11.078  17.357  0.00  0.00    +0.000 A 
BRANCH  27  30
ATOM     30  O   UNL     1      -6.648  12.192  16.794  0.00  0.00    +0.000 OA
ATOM     31  H   UNL     1      -7.293  12.223  17.523  0.00  0.00    +0.000 HD
ENDBRANCH  27  30
BRANCH  28  32
ATOM     32  O   UNL     1      -4.393  10.888  15.394  0.00  0.00    +0.000 OA
ATOM     33  C   UNL     1      -3.177  10.383  14.863  0.00  0.00    +0.000 C 
ENDBRANCH  28  32
BRANCH  26  34
ATOM     34  C   UNL     1      -6.241  13.331  19.405  0.00  0.00    +0.000 C 
BRANCH  34  35
ATOM     35  C   UNL     1      -7.153  12.611  20.355  0.00  0.00    +0.000 C 
ATOM     36  C   UNL     1      -6.985  12.430  21.680  0.00  0.00    +0.000 C 
ATOM     37  C   UNL     1      -5.893  13.042  22.513  0.00  0.00    +0.000 C 
ATOM     38  C   UNL     1      -7.901  11.508  22.446  0.00  0.00    +0.000 C 
ENDBRANCH  34  35
ENDBRANCH  26  34
ENDBRANCH  23  24
ENDBRANCH  20  22
ENDBRANCH   2  20
TORSDOF 14
ENDMDL
MODEL 8
REMARK VINA RESULT:      -7.7      2.596      4.138
REMARK  Name = 
REMARK  18 active torsions:
REMARK  status: ('A' for Active; 'I' for Inactive)
REMARK    1  A    between atoms: C_2  and  C_3
REMARK    2  A    between atoms: C_3  and  C_4
REMARK    3  A    between atoms: C_6  and  C_7
REMARK    4  A    between atoms: C_8  and  C_9
REMARK    5  A    between atoms: C_9  and  O_10
REMARK    6  A    between atoms: C_11  and  C_12
REMARK    7  A    between atoms: C_12  and  C_14
REMARK    8  A    between atoms: C_15  and  C_16
REMARK    9  A    between atoms: C_18  and  C_19
REMARK   10  A    between atoms: C_19  and  C_20
REMARK   11  A    between atoms: C_21  and  C_22
REMARK   12  A    between atoms: C_21  and  C_23
REMARK   13  A    between atoms: C_24  and  O_25
REMARK   14  A    between atoms: C_26  and  O_27
REMARK   15  A    between atoms: O_27  and  C_28
REMARK   16  A    between atoms: C_31  and  O_32
REMARK   17  A    between atoms: O_32  and  C_33
REMARK   18  A    between atoms: C_34  and  O_35
REMARK                            x       y       z     vdW  Elec       q    Type
REMARK                         _______ _______ _______ _____ _____    ______ ____
ROOT
ATOM      1  C   UNL     1       1.025   9.005  21.294  0.00  0.00    +0.000 C 
ATOM      2  C   UNL     1       0.944   9.960  20.357  0.00  0.00    +0.000 C 
ENDROOT
BRANCH   1   4
ATOM      3  C   UNL     1       2.199   7.381  19.825  0.00  0.00    +0.000 C 
ATOM      4  C   UNL     1       1.577   7.697  20.969  0.00  0.00    +0.000 C 
BRANCH   3   7
ATOM      5  C   UNL     1       4.335   4.685  18.264  0.00  0.00    +0.000 A 
ATOM      6  C   UNL     1       3.751   5.927  18.563  0.00  0.00    +0.000 A 
ATOM      7  C   UNL     1       2.712   6.040  19.500  0.00  0.00    +0.000 A 
ATOM      8  C   UNL     1       2.249   4.883  20.147  0.00  0.00    +0.000 A 
ATOM      9  C   UNL     1       2.791   3.634  19.841  0.00  0.00    +0.000 A 
ATOM     10  C   UNL     1       3.826   3.549  18.900  0.00  0.00    +0.000 A 
BRANCH   9  11
ATOM     11  O   UNL     1       2.412   2.436  20.397  0.00  0.00    +0.000 OA
ATOM     12  C   UNL     1       1.569   2.506  21.543  0.00  0.00    +0.000 C 
ENDBRANCH   9  11
BRANCH  10  13
ATOM     13  O   UNL     1       4.362   2.320  18.609  0.00  0.00    +0.000 OA
ATOM     14  H   UNL     1       3.639   1.684  18.771  0.00  0.00    +0.000 HD
ENDBRANCH  10  13
BRANCH   5  15
ATOM     15  C   UNL     1       5.484   4.605  17.286  0.00  0.00    +0.000 C 
BRANCH  15  17
ATOM     16  C   UNL     1       5.648   4.837  14.785  0.00  0.00    +0.000 C 
ATOM     17  C   UNL     1       5.192   5.268  15.969  0.00  0.00    +0.000 C 
ENDBRANCH  15  17
ENDBRANCH   5  15
ENDBRANCH   3   7
ENDBRANCH   1   4
BRANCH   1  18
ATOM     18  O   UNL     1       0.567   9.185  22.574  0.00  0.00    +0.000 OA
ATOM     19  H   UNL     1      -0.397   9.062  22.589  0.00  0.00    +0.000 HD
ENDBRANCH   1  18
BRANCH   2  20
ATOM     20  C   UNL     1       0.411  11.339  20.549  0.00  0.00    +0.000 C 
ATOM     21  O   UNL     1       0.896  12.166  21.312  0.00  0.00    +0.000 OA
BRANCH  20  22
ATOM     22  C   UNL     1      -0.839  11.678  19.808  0.00  0.00    +0.000 C 
ATOM     23  C   UNL     1      -1.623  10.769  19.210  0.00  0.00    +0.000 C 
BRANCH  23  24
ATOM     24  C   UNL     1      -2.870  11.111  18.534  0.00  0.00    +0.000 A 
ATOM     25  C   UNL     1      -3.886  11.748  19.241  0.00  0.00    +0.000 A 
ATOM     26  C   UNL     1      -5.046  12.179  18.581  0.00  0.00    +0.000 A 
ATOM     27  C   UNL     1      -5.193  11.899  17.209  0.00  0.00    +0.000 A 
ATOM     28  C   UNL     1      -4.162  11.290  16.480  0.00  0.00    +0.000 A 
ATOM     29  C   UNL     1      -3.004  10.896  17.160  0.00  0.00    +0.000 A 
BRANCH  27  30
ATOM     30  O   UNL     1      -6.372  12.235  16.601  0.00  0.00    +0.000 OA
ATOM     31  H   UNL     1      -6.151  12.937  15.963  0.00  0.00    +0.000 HD
ENDBRANCH  27  30
BRANCH  28  32
ATOM     32  O   UNL     1      -4.110  11.010  15.142  0.00  0.00    +0.000 OA
ATOM     33  C   UNL     1      -3.059  10.184  14.665  0.00  0.00    +0.000 C 
ENDBRANCH  28  32
BRANCH  26  34
ATOM     34  C   UNL     1      -6.042  13.017  19.350  0.00  0.00    +0.000 C 
BRANCH  34  35
ATOM     35  C   UNL     1      -5.558  13.489  20.690  0.00  0.00    +0.000 C 
ATOM     36  C   UNL     1      -6.130  13.279  21.893  0.00  0.00    +0.000 C 
ATOM     37  C   UNL     1      -7.319  12.397  22.152  0.00  0.00    +0.000 C 
ATOM     38  C   UNL     1      -5.617  13.996  23.117  0.00  0.00    +0.000 C 
ENDBRANCH  34  35
ENDBRANCH  26  34
ENDBRANCH  23  24
ENDBRANCH  20  22
ENDBRANCH   2  20
TORSDOF 14
ENDMDL
MODEL 9
REMARK VINA RESULT:      -7.7      1.584     11.578
REMARK  Name = 
REMARK  18 active torsions:
REMARK  status: ('A' for Active; 'I' for Inactive)
REMARK    1  A    between atoms: C_2  and  C_3
REMARK    2  A    between atoms: C_3  and  C_4
REMARK    3  A    between atoms: C_6  and  C_7
REMARK    4  A    between atoms: C_8  and  C_9
REMARK    5  A    between atoms: C_9  and  O_10
REMARK    6  A    between atoms: C_11  and  C_12
REMARK    7  A    between atoms: C_12  and  C_14
REMARK    8  A    between atoms: C_15  and  C_16
REMARK    9  A    between atoms: C_18  and  C_19
REMARK   10  A    between atoms: C_19  and  C_20
REMARK   11  A    between atoms: C_21  and  C_22
REMARK   12  A    between atoms: C_21  and  C_23
REMARK   13  A    between atoms: C_24  and  O_25
REMARK   14  A    between atoms: C_26  and  O_27
REMARK   15  A    between atoms: O_27  and  C_28
REMARK   16  A    between atoms: C_31  and  O_32
REMARK   17  A    between atoms: O_32  and  C_33
REMARK   18  A    between atoms: C_34  and  O_35
REMARK                            x       y       z     vdW  Elec       q    Type
REMARK                         _______ _______ _______ _____ _____    ______ ____
ROOT
ATOM      1  C   UNL     1      -0.567  10.410  18.435  0.00  0.00    +0.000 C 
ATOM      2  C   UNL     1       0.685  10.266  18.891  0.00  0.00    +0.000 C 
ENDROOT
BRANCH   1   4
ATOM      3  C   UNL     1      -2.287  12.014  19.237  0.00  0.00    +0.000 C 
ATOM      4  C   UNL     1      -1.632  10.848  19.326  0.00  0.00    +0.000 C 
BRANCH   3   7
ATOM      5  C   UNL     1      -3.891  13.579  22.279  0.00  0.00    +0.000 A 
ATOM      6  C   UNL     1      -2.943  13.070  21.375  0.00  0.00    +0.000 A 
ATOM      7  C   UNL     1      -3.333  12.455  20.175  0.00  0.00    +0.000 A 
ATOM      8  C   UNL     1      -4.700  12.345  19.878  0.00  0.00    +0.000 A 
ATOM      9  C   UNL     1      -5.661  12.813  20.776  0.00  0.00    +0.000 A 
ATOM     10  C   UNL     1      -5.245  13.422  21.968  0.00  0.00    +0.000 A 
BRANCH   9  11
ATOM     11  O   UNL     1      -7.022  12.751  20.600  0.00  0.00    +0.000 OA
ATOM     12  C   UNL     1      -7.624  11.469  20.753  0.00  0.00    +0.000 C 
ENDBRANCH   9  11
BRANCH  10  13
ATOM     13  O   UNL     1      -6.192  13.888  22.843  0.00  0.00    +0.000 OA
ATOM     14  H   UNL     1      -7.046  13.748  22.391  0.00  0.00    +0.000 HD
ENDBRANCH  10  13
BRANCH   5  15
ATOM     15  C   UNL     1      -3.437  14.278  23.538  0.00  0.00    +0.000 C 
BRANCH  15  17
ATOM     16  C   UNL     1      -1.094  15.029  24.069  0.00  0.00    +0.000 C 
ATOM     17  C   UNL     1      -1.986  14.051  23.855  0.00  0.00    +0.000 C 
ENDBRANCH  15  17
ENDBRANCH   5  15
ENDBRANCH   3   7
ENDBRANCH   1   4
BRANCH   1  18
ATOM     18  O   UNL     1      -0.919  10.123  17.141  0.00  0.00    +0.000 OA
ATOM     19  H   UNL     1      -0.146   9.767  16.671  0.00  0.00    +0.000 HD
ENDBRANCH   1  18
BRANCH   2  20
ATOM     20  C   UNL     1       1.868   9.835  18.095  0.00  0.00    +0.000 C 
ATOM     21  O   UNL     1       2.573  10.593  17.441  0.00  0.00    +0.000 OA
BRANCH  20  22
ATOM     22  C   UNL     1       2.142   8.368  18.050  0.00  0.00    +0.000 C 
ATOM     23  C   UNL     1       3.282   7.835  17.586  0.00  0.00    +0.000 C 
BRANCH  23  24
ATOM     24  C   UNL     1       3.555   6.401  17.597  0.00  0.00    +0.000 A 
ATOM     25  C   UNL     1       2.539   5.507  17.921  0.00  0.00    +0.000 A 
ATOM     26  C   UNL     1       2.756   4.125  17.833  0.00  0.00    +0.000 A 
ATOM     27  C   UNL     1       4.035   3.658  17.474  0.00  0.00    +0.000 A 
ATOM     28  C   UNL     1       5.055   4.549  17.113  0.00  0.00    +0.000 A 
ATOM     29  C   UNL     1       4.800   5.923  17.183  0.00  0.00    +0.000 A 
BRANCH  27  30
ATOM     30  O   UNL     1       4.261   2.309  17.490  0.00  0.00    +0.000 OA
ATOM     31  H   UNL     1       4.993   2.170  18.118  0.00  0.00    +0.000 HD
ENDBRANCH  27  30
BRANCH  28  32
ATOM     32  O   UNL     1       6.322   4.268  16.677  0.00  0.00    +0.000 OA
ATOM     33  C   UNL     1       6.911   5.128  15.713  0.00  0.00    +0.000 C 
ENDBRANCH  28  32
BRANCH  26  34
ATOM     34  C   UNL     1       1.577   3.198  18.025  0.00  0.00    +0.000 C 
BRANCH  34  35
ATOM     35  C   UNL     1       1.471   2.600  19.398  0.00  0.00    +0.000 C 
ATOM     36  C   UNL     1       1.364   3.250  20.574  0.00  0.00    +0.000 C 
ATOM     37  C   UNL     1       1.192   4.735  20.737  0.00  0.00    +0.000 C 
ATOM     38  C   UNL     1       1.470   2.496  21.875  0.00  0.00    +0.000 C 
ENDBRANCH  34  35
ENDBRANCH  26  34
ENDBRANCH  23  24
ENDBRANCH  20  22
ENDBRANCH   2  20
TORSDOF 14
ENDMDL
