MODEL 1
REMARK VINA RESULT:      -7.7      0.000      0.000
REMARK  Name = 
REMARK  8 active torsions:
REMARK  status: ('A' for Active; 'I' for Inactive)
REMARK    1  A    between atoms: C_1  and  O_2
REMARK    2  A    between atoms: O_2  and  C_3
REMARK    3  A    between atoms: C_12  and  C_13
REMARK    4  A    between atoms: C_15  and  O_16
REMARK    5  A    between atoms: N_19  and  C_20
REMARK    6  A    between atoms: C_20  and  C_21
REMARK    7  A    between atoms: C_24  and  O_25
REMARK    8  A    between atoms: O_25  and  C_26
REMARK                            x       y       z     vdW  Elec       q    Type
REMARK                         _______ _______ _______ _____ _____    ______ ____
ROOT
ATOM      1  C   UNL     1       4.961   5.498  17.397  0.00  0.00    +0.000 C 
ATOM      2  C   UNL     1       4.429   4.776  16.154  0.00  0.00    +0.000 C 
ATOM      3  C   UNL     1       5.631   4.058  15.562  0.00  0.00    +0.000 C 
ATOM      4  C   UNL     1       6.802   4.431  16.485  0.00  0.00    +0.000 C 
ATOM      5  O   UNL     1       7.984   4.324  16.195  0.00  0.00    +0.000 OA
ATOM      6  N   UNL     1       6.277   4.939  17.684  0.00  0.00    +0.000 N 
ENDROOT
BRANCH   1  16
ATOM      7  C   UNL     1       3.153   6.710  18.668  0.00  0.00    +0.000 A 
ATOM      8  C   UNL     1       2.190   6.788  19.674  0.00  0.00    +0.000 A 
ATOM      9  C   UNL     1       1.985   5.716  20.538  0.00  0.00    +0.000 A 
ATOM     10  C   UNL     1       2.727   4.535  20.411  0.00  0.00    +0.000 A 
ATOM     11  C   UNL     1       2.489   3.473  21.302  0.00  0.00    +0.000 A 
ATOM     12  C   UNL     1       3.203   2.280  21.213  0.00  0.00    +0.000 A 
ATOM     13  C   UNL     1       4.141   2.125  20.217  0.00  0.00    +0.000 A 
ATOM     14  C   UNL     1       4.370   3.167  19.312  0.00  0.00    +0.000 A 
ATOM     15  C   UNL     1       3.701   4.414  19.392  0.00  0.00    +0.000 A 
ATOM     16  C   UNL     1       3.943   5.544  18.527  0.00  0.00    +0.000 A 
BRANCH   7  18
ATOM     17  C   UNL     1       2.417   8.766  17.664  0.00  0.00    +0.000 C 
ATOM     18  O   UNL     1       3.387   7.729  17.773  0.00  0.00    +0.000 OA
ENDBRANCH   7  18
ENDBRANCH   1  16
BRANCH   3  19
ATOM     19  O   UNL     1       5.728   4.317  14.179  0.00  0.00    +0.000 OA
ATOM     20  H   UNL     1       5.694   5.278  14.044  0.00  0.00    +0.000 HD
ENDBRANCH   3  19
BRANCH   6  21
ATOM     21  C   UNL     1       7.193   5.564  18.657  0.00  0.00    +0.000 C 
BRANCH  21  22
ATOM     22  C   UNL     1       7.571   7.018  18.418  0.00  0.00    +0.000 A 
ATOM     23  C   UNL     1       6.931   7.829  17.483  0.00  0.00    +0.000 A 
ATOM     24  C   UNL     1       7.305   9.157  17.267  0.00  0.00    +0.000 A 
ATOM     25  C   UNL     1       8.281   9.746  18.057  0.00  0.00    +0.000 A 
ATOM     26  C   UNL     1       8.942   8.965  19.002  0.00  0.00    +0.000 A 
ATOM     27  C   UNL     1       8.590   7.615  19.180  0.00  0.00    +0.000 A 
BRANCH  25  28
ATOM     28  O   UNL     1       8.589  11.040  17.772  0.00  0.00    +0.000 OA
BRANCH  28  29
ATOM     29  C   UNL     1       9.902  11.486  18.091  0.00  0.00    +0.000 C 
ATOM     30  F   UNL     1      10.879  10.926  17.347  0.00  0.00    +0.000 F 
ATOM     31  F   UNL     1       9.953  12.825  17.917  0.00  0.00    +0.000 F 
ATOM     32  F   UNL     1      10.158  11.226  19.393  0.00  0.00    +0.000 F 
ENDBRANCH  28  29
ENDBRANCH  25  28
ENDBRANCH  21  22
ENDBRANCH   6  21
TORSDOF 7
ENDMDL
MODEL 2
REMARK VINA RESULT:      -7.7      8.613     11.889
REMARK  Name = 
REMARK  8 active torsions:
REMARK  status: ('A' for Active; 'I' for Inactive)
REMARK    1  A    between atoms: C_1  and  O_2
REMARK    2  A    between atoms: O_2  and  C_3
REMARK    3  A    between atoms: C_12  and  C_13
REMARK    4  A    between atoms: C_15  and  O_16
REMARK    5  A    between atoms: N_19  and  C_20
REMARK    6  A    between atoms: C_20  and  C_21
REMARK    7  A    between atoms: C_24  and  O_25
REMARK    8  A    between atoms: O_25  and  C_26
REMARK                            x       y       z     vdW  Elec       q    Type
REMARK                         _______ _______ _______ _____ _____    ______ ____
ROOT
ATOM      1  C   UNL     1      -2.432  13.235  22.425  0.00  0.00    +0.000 C 
ATOM      2  C   UNL     1      -2.443  12.823  23.902  0.00  0.00    +0.000 C 
ATOM      3  C   UNL     1      -3.877  12.409  24.192  0.00  0.00    +0.000 C 
ATOM      4  C   UNL     1      -4.623  12.634  22.867  0.00  0.00    +0.000 C 
ATOM      5  O   UNL     1      -5.836  12.724  22.753  0.00  0.00    +0.000 OA
ATOM      6  N   UNL     1      -3.676  12.750  21.838  0.00  0.00    +0.000 N 
ENDROOT
BRANCH   1  16
ATOM      7  C   UNL     1      -0.468  13.887  20.986  0.00  0.00    +0.000 A 
ATOM      8  C   UNL     1       0.744  13.614  20.351  0.00  0.00    +0.000 A 
ATOM      9  C   UNL     1       1.324  12.352  20.454  0.00  0.00    +0.000 A 
ATOM     10  C   UNL     1       0.716  11.337  21.203  0.00  0.00    +0.000 A 
ATOM     11  C   UNL     1       1.335  10.077  21.284  0.00  0.00    +0.000 A 
ATOM     12  C   UNL     1       0.766   9.038  22.018  0.00  0.00    +0.000 A 
ATOM     13  C   UNL     1      -0.410   9.256  22.701  0.00  0.00    +0.000 A 
ATOM     14  C   UNL     1      -1.021  10.512  22.644  0.00  0.00    +0.000 A 
ATOM     15  C   UNL     1      -0.504  11.583  21.874  0.00  0.00    +0.000 A 
ATOM     16  C   UNL     1      -1.127  12.878  21.729  0.00  0.00    +0.000 A 
BRANCH   7  18
ATOM     17  C   UNL     1      -0.855  15.937  19.793  0.00  0.00    +0.000 C 
ATOM     18  O   UNL     1      -1.079  15.120  20.937  0.00  0.00    +0.000 OA
ENDBRANCH   7  18
ENDBRANCH   1  16
BRANCH   3  19
ATOM     19  O   UNL     1      -4.343  13.036  25.365  0.00  0.00    +0.000 OA
ATOM     20  H   UNL     1      -5.200  13.450  25.172  0.00  0.00    +0.000 HD
ENDBRANCH   3  19
BRANCH   6  21
ATOM     21  C   UNL     1      -4.123  13.178  20.499  0.00  0.00    +0.000 C 
BRANCH  21  22
ATOM     22  C   UNL     1      -3.881  12.214  19.346  0.00  0.00    +0.000 A 
ATOM     23  C   UNL     1      -4.909  11.667  18.581  0.00  0.00    +0.000 A 
ATOM     24  C   UNL     1      -4.666  10.770  17.538  0.00  0.00    +0.000 A 
ATOM     25  C   UNL     1      -3.365  10.467  17.165  0.00  0.00    +0.000 A 
ATOM     26  C   UNL     1      -2.313  10.997  17.908  0.00  0.00    +0.000 A 
ATOM     27  C   UNL     1      -2.569  11.862  18.987  0.00  0.00    +0.000 A 
BRANCH  25  28
ATOM     28  O   UNL     1      -3.220   9.579  16.146  0.00  0.00    +0.000 OA
BRANCH  28  29
ATOM     29  C   UNL     1      -3.331  10.080  14.819  0.00  0.00    +0.000 C 
ATOM     30  F   UNL     1      -4.486   9.763  14.196  0.00  0.00    +0.000 F 
ATOM     31  F   UNL     1      -3.229  11.427  14.860  0.00  0.00    +0.000 F 
ATOM     32  F   UNL     1      -2.305   9.607  14.076  0.00  0.00    +0.000 F 
ENDBRANCH  28  29
ENDBRANCH  25  28
ENDBRANCH  21  22
ENDBRANCH   6  21
TORSDOF 7
ENDMDL
MODEL 3
REMARK VINA RESULT:      -7.7      8.593     11.936
REMARK  Name = 
REMARK  8 active torsions:
REMARK  status: ('A' for Active; 'I' for Inactive)
REMARK    1  A    between atoms: C_1  and  O_2
REMARK    2  A    between atoms: O_2  and  C_3
REMARK    3  A    between atoms: C_12  and  C_13
REMARK    4  A    between atoms: C_15  and  O_16
REMARK    5  A    between atoms: N_19  and  C_20
REMARK    6  A    between atoms: C_20  and  C_21
REMARK    7  A    between atoms: C_24  and  O_25
REMARK    8  A    between atoms: O_25  and  C_26
REMARK                            x       y       z     vdW  Elec       q    Type
REMARK                         _______ _______ _______ _____ _____    ______ ____
ROOT
ATOM      1  C   UNL     1      -2.420  13.229  22.331  0.00  0.00    +0.000 C 
ATOM      2  C   UNL     1      -2.409  12.821  23.809  0.00  0.00    +0.000 C 
ATOM      3  C   UNL     1      -3.841  12.417  24.124  0.00  0.00    +0.000 C 
ATOM      4  C   UNL     1      -4.608  12.644  22.811  0.00  0.00    +0.000 C 
ATOM      5  O   UNL     1      -5.822  12.742  22.717  0.00  0.00    +0.000 OA
ATOM      6  N   UNL     1      -3.677  12.751  21.766  0.00  0.00    +0.000 N 
ENDROOT
BRANCH   1  16
ATOM      7  C   UNL     1      -0.508  13.847  20.810  0.00  0.00    +0.000 A 
ATOM      8  C   UNL     1       0.690  13.565  20.153  0.00  0.00    +0.000 A 
ATOM      9  C   UNL     1       1.293  12.318  20.294  0.00  0.00    +0.000 A 
ATOM     10  C   UNL     1       0.723  11.328  21.104  0.00  0.00    +0.000 A 
ATOM     11  C   UNL     1       1.365  10.082  21.223  0.00  0.00    +0.000 A 
ATOM     12  C   UNL     1       0.834   9.068  22.017  0.00  0.00    +0.000 A 
ATOM     13  C   UNL     1      -0.325   9.297  22.723  0.00  0.00    +0.000 A 
ATOM     14  C   UNL     1      -0.959  10.540  22.629  0.00  0.00    +0.000 A 
ATOM     15  C   UNL     1      -0.482  11.585  21.799  0.00  0.00    +0.000 A 
ATOM     16  C   UNL     1      -1.130  12.862  21.614  0.00  0.00    +0.000 A 
BRANCH   7  18
ATOM     17  C   UNL     1      -0.404  16.234  21.073  0.00  0.00    +0.000 C 
ATOM     18  O   UNL     1      -1.141  15.067  20.725  0.00  0.00    +0.000 OA
ENDBRANCH   7  18
ENDBRANCH   1  16
BRANCH   3  19
ATOM     19  O   UNL     1      -4.284  13.049  25.304  0.00  0.00    +0.000 OA
ATOM     20  H   UNL     1      -5.251  13.123  25.268  0.00  0.00    +0.000 HD
ENDBRANCH   3  19
BRANCH   6  21
ATOM     21  C   UNL     1      -4.144  13.179  20.434  0.00  0.00    +0.000 C 
BRANCH  21  22
ATOM     22  C   UNL     1      -3.912  12.219  19.276  0.00  0.00    +0.000 A 
ATOM     23  C   UNL     1      -2.647  11.772  18.898  0.00  0.00    +0.000 A 
ATOM     24  C   UNL     1      -2.454  10.905  17.820  0.00  0.00    +0.000 A 
ATOM     25  C   UNL     1      -3.543  10.378  17.143  0.00  0.00    +0.000 A 
ATOM     26  C   UNL     1      -4.822  10.803  17.494  0.00  0.00    +0.000 A 
ATOM     27  C   UNL     1      -5.004  11.714  18.551  0.00  0.00    +0.000 A 
BRANCH  25  28
ATOM     28  O   UNL     1      -3.264   9.549  16.102  0.00  0.00    +0.000 OA
BRANCH  28  29
ATOM     29  C   UNL     1      -3.318  10.100  14.792  0.00  0.00    +0.000 C 
ATOM     30  F   UNL     1      -3.248  11.447  14.748  0.00  0.00    +0.000 F 
ATOM     31  F   UNL     1      -2.289   9.599  14.073  0.00  0.00    +0.000 F 
ATOM     32  F   UNL     1      -4.469   9.716  14.194  0.00  0.00    +0.000 F 
ENDBRANCH  28  29
ENDBRANCH  25  28
ENDBRANCH  21  22
ENDBRANCH   6  21
TORSDOF 7
ENDMDL
MODEL 4
REMARK VINA RESULT:      -7.6      6.632      9.839
REMARK  Name = 
REMARK  8 active torsions:
REMARK  status: ('A' for Active; 'I' for Inactive)
REMARK    1  A    between atoms: C_1  and  O_2
REMARK    2  A    between atoms: O_2  and  C_3
REMARK    3  A    between atoms: C_12  and  C_13
REMARK    4  A    between atoms: C_15  and  O_16
REMARK    5  A    between atoms: N_19  and  C_20
REMARK    6  A    between atoms: C_20  and  C_21
REMARK    7  A    between atoms: C_24  and  O_25
REMARK    8  A    between atoms: O_25  and  C_26
REMARK                            x       y       z     vdW  Elec       q    Type
REMARK                         _______ _______ _______ _____ _____    ______ ____
ROOT
ATOM      1  C   UNL     1       0.833  12.608  20.915  0.00  0.00    +0.000 C 
ATOM      2  C   UNL     1       1.732  13.792  21.291  0.00  0.00    +0.000 C 
ATOM      3  C   UNL     1       2.489  14.140  20.020  0.00  0.00    +0.000 C 
ATOM      4  C   UNL     1       2.003  13.115  18.983  0.00  0.00    +0.000 C 
ATOM      5  O   UNL     1       2.579  12.846  17.940  0.00  0.00    +0.000 OA
ATOM      6  N   UNL     1       0.819  12.530  19.459  0.00  0.00    +0.000 N 
ENDROOT
BRANCH   1  16
ATOM      7  C   UNL     1      -0.779  11.609  22.575  0.00  0.00    +0.000 A 
ATOM      8  C   UNL     1      -1.981  11.607  23.283  0.00  0.00    +0.000 A 
ATOM      9  C   UNL     1      -2.914  12.621  23.090  0.00  0.00    +0.000 A 
ATOM     10  C   UNL     1      -2.665  13.670  22.195  0.00  0.00    +0.000 A 
ATOM     11  C   UNL     1      -3.632  14.679  22.031  0.00  0.00    +0.000 A 
ATOM     12  C   UNL     1      -3.427  15.740  21.152  0.00  0.00    +0.000 A 
ATOM     13  C   UNL     1      -2.244  15.821  20.453  0.00  0.00    +0.000 A 
ATOM     14  C   UNL     1      -1.267  14.836  20.627  0.00  0.00    +0.000 A 
ATOM     15  C   UNL     1      -1.450  13.715  21.473  0.00  0.00    +0.000 A 
ATOM     16  C   UNL     1      -0.504  12.636  21.641  0.00  0.00    +0.000 A 
BRANCH   7  18
ATOM     17  C   UNL     1      -0.140   9.479  23.487  0.00  0.00    +0.000 C 
ATOM     18  O   UNL     1       0.189  10.644  22.738  0.00  0.00    +0.000 OA
ENDBRANCH   7  18
ENDBRANCH   1  16
BRANCH   3  19
ATOM     19  O   UNL     1       3.869  14.258  20.284  0.00  0.00    +0.000 OA
ATOM     20  H   UNL     1       4.010  15.045  20.835  0.00  0.00    +0.000 HD
ENDBRANCH   3  19
BRANCH   6  21
ATOM     21  C   UNL     1       0.262  11.363  18.748  0.00  0.00    +0.000 C 
BRANCH  21  22
ATOM     22  C   UNL     1       0.997  10.040  18.904  0.00  0.00    +0.000 A 
ATOM     23  C   UNL     1       0.932   9.264  20.060  0.00  0.00    +0.000 A 
ATOM     24  C   UNL     1       1.629   8.060  20.190  0.00  0.00    +0.000 A 
ATOM     25  C   UNL     1       2.342   7.546  19.118  0.00  0.00    +0.000 A 
ATOM     26  C   UNL     1       2.428   8.295  17.947  0.00  0.00    +0.000 A 
ATOM     27  C   UNL     1       1.762   9.529  17.842  0.00  0.00    +0.000 A 
BRANCH  25  28
ATOM     28  O   UNL     1       2.997   6.374  19.335  0.00  0.00    +0.000 OA
BRANCH  28  29
ATOM     29  C   UNL     1       2.350   5.176  18.924  0.00  0.00    +0.000 C 
ATOM     30  F   UNL     1       1.740   5.252  17.723  0.00  0.00    +0.000 F 
ATOM     31  F   UNL     1       3.272   4.189  18.869  0.00  0.00    +0.000 F 
ATOM     32  F   UNL     1       1.426   4.829  19.849  0.00  0.00    +0.000 F 
ENDBRANCH  28  29
ENDBRANCH  25  28
ENDBRANCH  21  22
ENDBRANCH   6  21
TORSDOF 7
ENDMDL
MODEL 5
REMARK VINA RESULT:      -7.5      0.117      1.083
REMARK  Name = 
REMARK  8 active torsions:
REMARK  status: ('A' for Active; 'I' for Inactive)
REMARK    1  A    between atoms: C_1  and  O_2
REMARK    2  A    between atoms: O_2  and  C_3
REMARK    3  A    between atoms: C_12  and  C_13
REMARK    4  A    between atoms: C_15  and  O_16
REMARK    5  A    between atoms: N_19  and  C_20
REMARK    6  A    between atoms: C_20  and  C_21
REMARK    7  A    between atoms: C_24  and  O_25
REMARK    8  A    between atoms: O_25  and  C_26
REMARK                            x       y       z     vdW  Elec       q    Type
REMARK                         _______ _______ _______ _____ _____    ______ ____
ROOT
ATOM      1  C   UNL     1       4.973   5.490  17.390  0.00  0.00    +0.000 C 
ATOM      2  C   UNL     1       4.451   4.784  16.134  0.00  0.00    +0.000 C 
ATOM      3  C   UNL     1       5.656   4.063  15.550  0.00  0.00    +0.000 C 
ATOM      4  C   UNL     1       6.817   4.420  16.491  0.00  0.00    +0.000 C 
ATOM      5  O   UNL     1       8.002   4.308  16.215  0.00  0.00    +0.000 OA
ATOM      6  N   UNL     1       6.281   4.919  17.688  0.00  0.00    +0.000 N 
ENDROOT
BRANCH   1  16
ATOM      7  C   UNL     1       3.132   6.687  18.629  0.00  0.00    +0.000 A 
ATOM      8  C   UNL     1       2.156   6.761  19.622  0.00  0.00    +0.000 A 
ATOM      9  C   UNL     1       1.958   5.695  20.495  0.00  0.00    +0.000 A 
ATOM     10  C   UNL     1       2.719   4.524  20.389  0.00  0.00    +0.000 A 
ATOM     11  C   UNL     1       2.486   3.467  21.288  0.00  0.00    +0.000 A 
ATOM     12  C   UNL     1       3.219   2.285  21.219  0.00  0.00    +0.000 A 
ATOM     13  C   UNL     1       4.170   2.134  20.235  0.00  0.00    +0.000 A 
ATOM     14  C   UNL     1       4.394   3.170  19.323  0.00  0.00    +0.000 A 
ATOM     15  C   UNL     1       3.705   4.407  19.382  0.00  0.00    +0.000 A 
ATOM     16  C   UNL     1       3.941   5.532  18.508  0.00  0.00    +0.000 A 
BRANCH   7  18
ATOM     17  C   UNL     1       2.541   8.862  17.795  0.00  0.00    +0.000 C 
ATOM     18  O   UNL     1       3.361   7.701  17.725  0.00  0.00    +0.000 OA
ENDBRANCH   7  18
ENDBRANCH   1  16
BRANCH   3  19
ATOM     19  O   UNL     1       5.772   4.334  14.171  0.00  0.00    +0.000 OA
ATOM     20  H   UNL     1       5.017   4.882  13.902  0.00  0.00    +0.000 HD
ENDBRANCH   3  19
BRANCH   6  21
ATOM     21  C   UNL     1       7.189   5.529  18.678  0.00  0.00    +0.000 C 
BRANCH  21  22
ATOM     22  C   UNL     1       7.565   6.989  18.468  0.00  0.00    +0.000 A 
ATOM     23  C   UNL     1       8.549   7.638  19.212  0.00  0.00    +0.000 A 
ATOM     24  C   UNL     1       8.866   8.984  19.015  0.00  0.00    +0.000 A 
ATOM     25  C   UNL     1       8.267   9.701  17.991  0.00  0.00    +0.000 A 
ATOM     26  C   UNL     1       7.279   9.084  17.228  0.00  0.00    +0.000 A 
ATOM     27  C   UNL     1       6.932   7.741  17.464  0.00  0.00    +0.000 A 
BRANCH  25  28
ATOM     28  O   UNL     1       8.628  11.007  17.877  0.00  0.00    +0.000 OA
BRANCH  28  29
ATOM     29  C   UNL     1       9.973  11.346  18.195  0.00  0.00    +0.000 C 
ATOM     30  F   UNL     1      10.384  10.921  19.408  0.00  0.00    +0.000 F 
ATOM     31  F   UNL     1      10.784  10.804  17.260  0.00  0.00    +0.000 F 
ATOM     32  F   UNL     1      10.118  12.689  18.144  0.00  0.00    +0.000 F 
ENDBRANCH  28  29
ENDBRANCH  25  28
ENDBRANCH  21  22
ENDBRANCH   6  21
TORSDOF 7
ENDMDL
MODEL 6
REMARK VINA RESULT:      -7.5      6.712      9.864
REMARK  Name = 
REMARK  8 active torsions:
REMARK  status: ('A' for Active; 'I' for Inactive)
REMARK    1  A    between atoms: C_1  and  O_2
REMARK    2  A    between atoms: O_2  and  C_3
REMARK    3  A    between atoms: C_12  and  C_13
REMARK    4  A    between atoms: C_15  and  O_16
REMARK    5  A    between atoms: N_19  and  C_20
REMARK    6  A    between atoms: C_20  and  C_21
REMARK    7  A    between atoms: C_24  and  O_25
REMARK    8  A    between atoms: O_25  and  C_26
REMARK                            x       y       z     vdW  Elec       q    Type
REMARK                         _______ _______ _______ _____ _____    ______ ____
ROOT
ATOM      1  C   UNL     1      -1.464  12.851  20.503  0.00  0.00    +0.000 C 
ATOM      2  C   UNL     1      -0.994  14.213  19.980  0.00  0.00    +0.000 C 
ATOM      3  C   UNL     1       0.522  14.116  19.913  0.00  0.00    +0.000 C 
ATOM      4  C   UNL     1       0.846  12.705  20.431  0.00  0.00    +0.000 C 
ATOM      5  O   UNL     1       1.941  12.339  20.830  0.00  0.00    +0.000 OA
ATOM      6  N   UNL     1      -0.330  11.939  20.395  0.00  0.00    +0.000 N 
ENDROOT
BRANCH   1  16
ATOM      7  C   UNL     1      -3.982  12.770  20.568  0.00  0.00    +0.000 A 
ATOM      8  C   UNL     1      -5.221  12.416  20.036  0.00  0.00    +0.000 A 
ATOM      9  C   UNL     1      -5.298  11.725  18.829  0.00  0.00    +0.000 A 
ATOM     10  C   UNL     1      -4.140  11.384  18.118  0.00  0.00    +0.000 A 
ATOM     11  C   UNL     1      -4.260  10.689  16.901  0.00  0.00    +0.000 A 
ATOM     12  C   UNL     1      -3.136  10.329  16.161  0.00  0.00    +0.000 A 
ATOM     13  C   UNL     1      -1.885  10.684  16.613  0.00  0.00    +0.000 A 
ATOM     14  C   UNL     1      -1.757  11.395  17.811  0.00  0.00    +0.000 A 
ATOM     15  C   UNL     1      -2.867  11.742  18.620  0.00  0.00    +0.000 A 
ATOM     16  C   UNL     1      -2.789  12.417  19.894  0.00  0.00    +0.000 A 
BRANCH   7  18
ATOM     17  C   UNL     1      -4.583  13.029  22.881  0.00  0.00    +0.000 C 
ATOM     18  O   UNL     1      -3.844  13.469  21.747  0.00  0.00    +0.000 OA
ENDBRANCH   7  18
ENDBRANCH   1  16
BRANCH   3  19
ATOM     19  O   UNL     1       1.116  15.235  20.533  0.00  0.00    +0.000 OA
ATOM     20  H   UNL     1       0.412  15.788  20.907  0.00  0.00    +0.000 HD
ENDBRANCH   3  19
BRANCH   6  21
ATOM     21  C   UNL     1      -0.337  10.610  21.036  0.00  0.00    +0.000 C 
BRANCH  21  22
ATOM     22  C   UNL     1       0.541   9.535  20.412  0.00  0.00    +0.000 A 
ATOM     23  C   UNL     1       1.011   9.600  19.101  0.00  0.00    +0.000 A 
ATOM     24  C   UNL     1       1.801   8.593  18.541  0.00  0.00    +0.000 A 
ATOM     25  C   UNL     1       2.228   7.527  19.318  0.00  0.00    +0.000 A 
ATOM     26  C   UNL     1       1.777   7.430  20.632  0.00  0.00    +0.000 A 
ATOM     27  C   UNL     1       0.942   8.424  21.173  0.00  0.00    +0.000 A 
BRANCH  25  28
ATOM     28  O   UNL     1       2.986   6.589  18.690  0.00  0.00    +0.000 OA
BRANCH  28  29
ATOM     29  C   UNL     1       2.352   5.368  18.327  0.00  0.00    +0.000 C 
ATOM     30  F   UNL     1       1.905   4.638  19.370  0.00  0.00    +0.000 F 
ATOM     31  F   UNL     1       1.299   5.654  17.529  0.00  0.00    +0.000 F 
ATOM     32  F   UNL     1       3.217   4.609  17.618  0.00  0.00    +0.000 F 
ENDBRANCH  28  29
ENDBRANCH  25  28
ENDBRANCH  21  22
ENDBRANCH   6  21
TORSDOF 7
ENDMDL
MODEL 7
REMARK VINA RESULT:      -7.5      9.380     12.634
REMARK  Name = 
REMARK  8 active torsions:
REMARK  status: ('A' for Active; 'I' for Inactive)
REMARK    1  A    between atoms: C_1  and  O_2
REMARK    2  A    between atoms: O_2  and  C_3
REMARK    3  A    between atoms: C_12  and  C_13
REMARK    4  A    between atoms: C_15  and  O_16
REMARK    5  A    between atoms: N_19  and  C_20
REMARK    6  A    between atoms: C_20  and  C_21
REMARK    7  A    between atoms: C_24  and  O_25
REMARK    8  A    between atoms: O_25  and  C_26
REMARK                            x       y       z     vdW  Elec       q    Type
REMARK                         _______ _______ _______ _____ _____    ______ ____
ROOT
ATOM      1  C   UNL     1      -5.771  12.211  20.824  0.00  0.00    +0.000 C 
ATOM      2  C   UNL     1      -7.078  11.654  21.402  0.00  0.00    +0.000 C 
ATOM      3  C   UNL     1      -7.226  12.312  22.764  0.00  0.00    +0.000 C 
ATOM      4  C   UNL     1      -5.976  13.194  22.909  0.00  0.00    +0.000 C 
ATOM      5  O   UNL     1      -5.552  13.642  23.964  0.00  0.00    +0.000 OA
ATOM      6  N   UNL     1      -5.401  13.361  21.639  0.00  0.00    +0.000 N 
ENDROOT
BRANCH   1  16
ATOM      7  C   UNL     1      -6.734  13.352  18.793  0.00  0.00    +0.000 A 
ATOM      8  C   UNL     1      -6.807  13.574  17.418  0.00  0.00    +0.000 A 
ATOM      9  C   UNL     1      -5.983  12.867  16.547  0.00  0.00    +0.000 A 
ATOM     10  C   UNL     1      -5.057  11.932  17.027  0.00  0.00    +0.000 A 
ATOM     11  C   UNL     1      -4.240  11.241  16.114  0.00  0.00    +0.000 A 
ATOM     12  C   UNL     1      -3.306  10.303  16.547  0.00  0.00    +0.000 A 
ATOM     13  C   UNL     1      -3.158  10.067  17.895  0.00  0.00    +0.000 A 
ATOM     14  C   UNL     1      -3.949  10.766  18.812  0.00  0.00    +0.000 A 
ATOM     15  C   UNL     1      -4.944  11.695  18.416  0.00  0.00    +0.000 A 
ATOM     16  C   UNL     1      -5.832  12.395  19.315  0.00  0.00    +0.000 A 
BRANCH   7  18
ATOM     17  C   UNL     1      -7.708  15.430  19.509  0.00  0.00    +0.000 C 
ATOM     18  O   UNL     1      -7.509  14.034  19.705  0.00  0.00    +0.000 OA
ENDBRANCH   7  18
ENDBRANCH   1  16
BRANCH   3  19
ATOM     19  O   UNL     1      -7.510  11.346  23.750  0.00  0.00    +0.000 OA
ATOM     20  H   UNL     1      -6.997  11.560  24.547  0.00  0.00    +0.000 HD
ENDBRANCH   3  19
BRANCH   6  21
ATOM     21  C   UNL     1      -4.073  13.995  21.534  0.00  0.00    +0.000 C 
BRANCH  21  22
ATOM     22  C   UNL     1      -2.859  13.086  21.661  0.00  0.00    +0.000 A 
ATOM     23  C   UNL     1      -1.911  12.933  20.650  0.00  0.00    +0.000 A 
ATOM     24  C   UNL     1      -0.813  12.079  20.780  0.00  0.00    +0.000 A 
ATOM     25  C   UNL     1      -0.578  11.419  21.976  0.00  0.00    +0.000 A 
ATOM     26  C   UNL     1      -1.505  11.549  23.008  0.00  0.00    +0.000 A 
ATOM     27  C   UNL     1      -2.633  12.374  22.851  0.00  0.00    +0.000 A 
BRANCH  25  28
ATOM     28  O   UNL     1       0.508  10.602  22.012  0.00  0.00    +0.000 OA
BRANCH  28  29
ATOM     29  C   UNL     1       0.376   9.310  21.430  0.00  0.00    +0.000 C 
ATOM     30  F   UNL     1       1.198   8.376  21.950  0.00  0.00    +0.000 F 
ATOM     31  F   UNL     1      -0.899   8.893  21.598  0.00  0.00    +0.000 F 
ATOM     32  F   UNL     1       0.614   9.394  20.101  0.00  0.00    +0.000 F 
ENDBRANCH  28  29
ENDBRANCH  25  28
ENDBRANCH  21  22
ENDBRANCH   6  21
TORSDOF 7
ENDMDL
MODEL 8
REMARK VINA RESULT:      -7.5      6.299      9.476
REMARK  Name = 
REMARK  8 active torsions:
REMARK  status: ('A' for Active; 'I' for Inactive)
REMARK    1  A    between atoms: C_1  and  O_2
REMARK    2  A    between atoms: O_2  and  C_3
REMARK    3  A    between atoms: C_12  and  C_13
REMARK    4  A    between atoms: C_15  and  O_16
REMARK    5  A    between atoms: N_19  and  C_20
REMARK    6  A    between atoms: C_20  and  C_21
REMARK    7  A    between atoms: C_24  and  O_25
REMARK    8  A    between atoms: O_25  and  C_26
REMARK                            x       y       z     vdW  Elec       q    Type
REMARK                         _______ _______ _______ _____ _____    ______ ____
ROOT
ATOM      1  C   UNL     1      -0.928  13.221  20.021  0.00  0.00    +0.000 C 
ATOM      2  C   UNL     1      -0.612  14.487  19.215  0.00  0.00    +0.000 C 
ATOM      3  C   UNL     1       0.844  14.345  18.802  0.00  0.00    +0.000 C 
ATOM      4  C   UNL     1       1.297  13.012  19.420  0.00  0.00    +0.000 C 
ATOM      5  O   UNL     1       2.460  12.679  19.592  0.00  0.00    +0.000 OA
ATOM      6  N   UNL     1       0.156  12.277  19.774  0.00  0.00    +0.000 N 
ENDROOT
BRANCH   1  16
ATOM      7  C   UNL     1      -3.334  13.115  20.766  0.00  0.00    +0.000 A 
ATOM      8  C   UNL     1      -4.661  12.718  20.605  0.00  0.00    +0.000 A 
ATOM      9  C   UNL     1      -5.040  11.960  19.500  0.00  0.00    +0.000 A 
ATOM     10  C   UNL     1      -4.107  11.592  18.523  0.00  0.00    +0.000 A 
ATOM     11  C   UNL     1      -4.530  10.828  17.420  0.00  0.00    +0.000 A 
ATOM     12  C   UNL     1      -3.637  10.440  16.424  0.00  0.00    +0.000 A 
ATOM     13  C   UNL     1      -2.320  10.835  16.504  0.00  0.00    +0.000 A 
ATOM     14  C   UNL     1      -1.894  11.613  17.585  0.00  0.00    +0.000 A 
ATOM     15  C   UNL     1      -2.756  11.992  18.644  0.00  0.00    +0.000 A 
ATOM     16  C   UNL     1      -2.356  12.739  19.814  0.00  0.00    +0.000 A 
BRANCH   7  18
ATOM     17  C   UNL     1      -3.882  14.417  22.710  0.00  0.00    +0.000 C 
ATOM     18  O   UNL     1      -2.903  13.881  21.826  0.00  0.00    +0.000 OA
ENDBRANCH   7  18
ENDBRANCH   1  16
BRANCH   3  19
ATOM     19  O   UNL     1       1.558  15.524  19.098  0.00  0.00    +0.000 OA
ATOM     20  H   UNL     1       2.384  15.278  19.545  0.00  0.00    +0.000 HD
ENDBRANCH   3  19
BRANCH   6  21
ATOM     21  C   UNL     1       0.316  11.050  20.578  0.00  0.00    +0.000 C 
BRANCH  21  22
ATOM     22  C   UNL     1       0.909   9.835  19.878  0.00  0.00    +0.000 A 
ATOM     23  C   UNL     1       1.066   9.753  18.495  0.00  0.00    +0.000 A 
ATOM     24  C   UNL     1       1.595   8.621  17.871  0.00  0.00    +0.000 A 
ATOM     25  C   UNL     1       2.078   7.565  18.630  0.00  0.00    +0.000 A 
ATOM     26  C   UNL     1       1.938   7.614  20.014  0.00  0.00    +0.000 A 
ATOM     27  C   UNL     1       1.360   8.738  20.631  0.00  0.00    +0.000 A 
BRANCH  25  28
ATOM     28  O   UNL     1       2.569   6.501  17.940  0.00  0.00    +0.000 OA
BRANCH  28  29
ATOM     29  C   UNL     1       3.980   6.324  17.925  0.00  0.00    +0.000 C 
ATOM     30  F   UNL     1       4.513   5.975  19.114  0.00  0.00    +0.000 F 
ATOM     31  F   UNL     1       4.281   5.360  17.027  0.00  0.00    +0.000 F 
ATOM     32  F   UNL     1       4.569   7.471  17.516  0.00  0.00    +0.000 F 
ENDBRANCH  28  29
ENDBRANCH  25  28
ENDBRANCH  21  22
ENDBRANCH   6  21
TORSDOF 7
ENDMDL
MODEL 9
REMARK VINA RESULT:      -7.4      6.489      9.668
REMARK  Name = 
REMARK  8 active torsions:
REMARK  status: ('A' for Active; 'I' for Inactive)
REMARK    1  A    between atoms: C_1  and  O_2
REMARK    2  A    between atoms: O_2  and  C_3
REMARK    3  A    between atoms: C_12  and  C_13
REMARK    4  A    between atoms: C_15  and  O_16
REMARK    5  A    between atoms: N_19  and  C_20
REMARK    6  A    between atoms: C_20  and  C_21
REMARK    7  A    between atoms: C_24  and  O_25
REMARK    8  A    between atoms: O_25  and  C_26
REMARK                            x       y       z     vdW  Elec       q    Type
REMARK                         _______ _______ _______ _____ _____    ______ ____
ROOT
ATOM      1  C   UNL     1       0.855  12.531  20.857  0.00  0.00    +0.000 C 
ATOM      2  C   UNL     1       1.756  13.722  21.203  0.00  0.00    +0.000 C 
ATOM      3  C   UNL     1       2.496  14.051  19.916  0.00  0.00    +0.000 C 
ATOM      4  C   UNL     1       2.000  13.007  18.903  0.00  0.00    +0.000 C 
ATOM      5  O   UNL     1       2.564  12.722  17.857  0.00  0.00    +0.000 OA
ATOM      6  N   UNL     1       0.824  12.428  19.403  0.00  0.00    +0.000 N 
ENDROOT
BRANCH   1  16
ATOM      7  C   UNL     1      -0.735  11.554  22.552  0.00  0.00    +0.000 A 
ATOM      8  C   UNL     1      -1.928  11.561  23.274  0.00  0.00    +0.000 A 
ATOM      9  C   UNL     1      -2.865  12.571  23.077  0.00  0.00    +0.000 A 
ATOM     10  C   UNL     1      -2.629  13.607  22.165  0.00  0.00    +0.000 A 
ATOM     11  C   UNL     1      -3.599  14.611  21.996  0.00  0.00    +0.000 A 
ATOM     12  C   UNL     1      -3.406  15.660  21.100  0.00  0.00    +0.000 A 
ATOM     13  C   UNL     1      -2.232  15.732  20.385  0.00  0.00    +0.000 A 
ATOM     14  C   UNL     1      -1.251  14.751  20.562  0.00  0.00    +0.000 A 
ATOM     15  C   UNL     1      -1.422  13.642  21.427  0.00  0.00    +0.000 A 
ATOM     16  C   UNL     1      -0.473  12.567  21.599  0.00  0.00    +0.000 A 
BRANCH   7  18
ATOM     17  C   UNL     1      -0.095   9.420  23.452  0.00  0.00    +0.000 C 
ATOM     18  O   UNL     1       0.237  10.593  22.717  0.00  0.00    +0.000 OA
ENDBRANCH   7  18
ENDBRANCH   1  16
BRANCH   3  19
ATOM     19  O   UNL     1       3.879  14.177  20.161  0.00  0.00    +0.000 OA
ATOM     20  H   UNL     1       4.328  14.327  19.314  0.00  0.00    +0.000 HD
ENDBRANCH   3  19
BRANCH   6  21
ATOM     21  C   UNL     1       0.261  11.248  18.718  0.00  0.00    +0.000 C 
BRANCH  21  22
ATOM     22  C   UNL     1       1.043   9.947  18.823  0.00  0.00    +0.000 A 
ATOM     23  C   UNL     1       1.914   9.499  17.831  0.00  0.00    +0.000 A 
ATOM     24  C   UNL     1       2.609   8.292  17.939  0.00  0.00    +0.000 A 
ATOM     25  C   UNL     1       2.524   7.537  19.099  0.00  0.00    +0.000 A 
ATOM     26  C   UNL     1       1.663   7.955  20.111  0.00  0.00    +0.000 A 
ATOM     27  C   UNL     1       0.930   9.148  19.973  0.00  0.00    +0.000 A 
BRANCH  25  28
ATOM     28  O   UNL     1       3.226   6.373  19.115  0.00  0.00    +0.000 OA
BRANCH  28  29
ATOM     29  C   UNL     1       2.851   5.368  18.179  0.00  0.00    +0.000 C 
ATOM     30  F   UNL     1       3.610   5.331  17.064  0.00  0.00    +0.000 F 
ATOM     31  F   UNL     1       2.933   4.164  18.788  0.00  0.00    +0.000 F 
ATOM     32  F   UNL     1       1.564   5.561  17.811  0.00  0.00    +0.000 F 
ENDBRANCH  28  29
ENDBRANCH  25  28
ENDBRANCH  21  22
ENDBRANCH   6  21
TORSDOF 7
ENDMDL
