MODEL 1
REMARK VINA RESULT:      -8.0      0.000      0.000
REMARK  Name = 
REMARK  11 active torsions:
REMARK  status: ('A' for Active; 'I' for Inactive)
REMARK    1  A    between atoms: C_1  and  C_2
REMARK    2  A    between atoms: C_2  and  N_3
REMARK    3  A    between atoms: N_3  and  C_4
REMARK    4  A    between atoms: N_3  and  C_6
REMARK    5  A    between atoms: C_4  and  C_5
REMARK    6  A    between atoms: C_9  and  C_10
REMARK    7  A    between atoms: N_12  and  N_13
REMARK    8  A    between atoms: C_14  and  C_16
REMARK    9  A    between atoms: C_16  and  C_17
REMARK   10  A    between atoms: C_17  and  C_18
REMARK   11  A    between atoms: C_20  and  O_21
REMARK                            x       y       z     vdW  Elec       q    Type
REMARK                         _______ _______ _______ _____ _____    ______ ____
ROOT
ATOM      1  N   UNL     1       2.822   5.174  20.850  0.00  0.00    +0.000 N 
ATOM      2  C   UNL     1       2.173   4.011  20.503  0.00  0.00    +0.000 C 
ATOM      3  O   UNL     1       0.998   4.007  20.134  0.00  0.00    +0.000 OA
ATOM      4  H   UNL     1       3.826   5.189  21.043  0.00  0.00    +0.000 HD
ENDROOT
BRANCH   1   7
ATOM      5  C   UNL     1       2.335   7.188  19.608  0.00  0.00    +0.000 C 
ATOM      6  O   UNL     1       3.070   6.821  18.689  0.00  0.00    +0.000 OA
ATOM      7  N   UNL     1       2.146   6.405  20.736  0.00  0.00    +0.000 N 
ATOM      8  H   UNL     1       1.583   6.663  21.541  0.00  0.00    +0.000 HD
BRANCH   5  12
ATOM      9  C   UNL     1       0.325  11.119  19.319  0.00  0.00    +0.000 A 
ATOM     10  C   UNL     1       0.972  10.502  18.236  0.00  0.00    +0.000 A 
ATOM     11  C   UNL     1       1.610   9.242  18.344  0.00  0.00    +0.000 A 
ATOM     12  C   UNL     1       1.614   8.522  19.546  0.00  0.00    +0.000 A 
ATOM     13  C   UNL     1       0.950   9.101  20.627  0.00  0.00    +0.000 A 
ATOM     14  C   UNL     1       0.325  10.366  20.507  0.00  0.00    +0.000 A 
BRANCH   9  15
ATOM     15  N   UNL     1      -0.265  12.397  19.237  0.00  0.00    +0.000 N 
BRANCH  15  17
ATOM     16  C   UNL     1       1.385  14.208  18.840  0.00  0.00    +0.000 C 
ATOM     17  C   UNL     1       0.402  13.576  19.818  0.00  0.00    +0.000 C 
ENDBRANCH  15  17
BRANCH  15  18
ATOM     18  C   UNL     1      -1.452  12.575  18.371  0.00  0.00    +0.000 C 
ATOM     19  C   UNL     1      -2.608  11.598  18.556  0.00  0.00    +0.000 C 
ENDBRANCH  15  18
ENDBRANCH   9  15
ENDBRANCH   5  12
ENDBRANCH   1   7
BRANCH   2  20
ATOM     20  C   UNL     1       2.962   2.720  20.689  0.00  0.00    +0.000 C 
BRANCH  20  21
ATOM     21  C   UNL     1       3.692   2.177  19.455  0.00  0.00    +0.000 C 
BRANCH  21  22
ATOM     22  C   UNL     1       4.542   3.159  18.680  0.00  0.00    +0.000 A 
ATOM     23  N   UNL     1       4.288   3.315  17.373  0.00  0.00    +0.000 NA
ATOM     24  C   UNL     1       4.953   4.313  16.776  0.00  0.00    +0.000 A 
ATOM     25  C   UNL     1       5.858   5.161  17.391  0.00  0.00    +0.000 A 
ATOM     26  C   UNL     1       6.478   6.254  16.745  0.00  0.00    +0.000 A 
ATOM     27  C   UNL     1       7.458   6.990  17.395  0.00  0.00    +0.000 A 
ATOM     28  C   UNL     1       7.834   6.620  18.682  0.00  0.00    +0.000 A 
ATOM     29  C   UNL     1       7.177   5.556  19.325  0.00  0.00    +0.000 A 
ATOM     30  C   UNL     1       6.154   4.832  18.712  0.00  0.00    +0.000 A 
ATOM     31  N   UNL     1       5.486   3.846  19.359  0.00  0.00    +0.000 NA
BRANCH  24  32
ATOM     32  O   UNL     1       4.747   4.398  15.430  0.00  0.00    +0.000 OA
ATOM     33  H   UNL     1       4.004   5.035  15.341  0.00  0.00    +0.000 HD
ENDBRANCH  24  32
ENDBRANCH  21  22
ENDBRANCH  20  21
ENDBRANCH   2  20
TORSDOF 9
ENDMDL
MODEL 2
REMARK VINA RESULT:      -7.9      0.935      1.852
REMARK  Name = 
REMARK  11 active torsions:
REMARK  status: ('A' for Active; 'I' for Inactive)
REMARK    1  A    between atoms: C_1  and  C_2
REMARK    2  A    between atoms: C_2  and  N_3
REMARK    3  A    between atoms: N_3  and  C_4
REMARK    4  A    between atoms: N_3  and  C_6
REMARK    5  A    between atoms: C_4  and  C_5
REMARK    6  A    between atoms: C_9  and  C_10
REMARK    7  A    between atoms: N_12  and  N_13
REMARK    8  A    between atoms: C_14  and  C_16
REMARK    9  A    between atoms: C_16  and  C_17
REMARK   10  A    between atoms: C_17  and  C_18
REMARK   11  A    between atoms: C_20  and  O_21
REMARK                            x       y       z     vdW  Elec       q    Type
REMARK                         _______ _______ _______ _____ _____    ______ ____
ROOT
ATOM      1  N   UNL     1       2.810   5.187  20.684  0.00  0.00    +0.000 N 
ATOM      2  C   UNL     1       2.153   3.979  20.643  0.00  0.00    +0.000 C 
ATOM      3  O   UNL     1       0.928   3.901  20.743  0.00  0.00    +0.000 OA
ATOM      4  H   UNL     1       3.811   5.258  20.486  0.00  0.00    +0.000 HD
ENDROOT
BRANCH   1   7
ATOM      5  C   UNL     1       2.178   7.349  19.811  0.00  0.00    +0.000 C 
ATOM      6  O   UNL     1       2.905   7.185  18.828  0.00  0.00    +0.000 OA
ATOM      7  N   UNL     1       2.065   6.378  20.794  0.00  0.00    +0.000 N 
ATOM      8  H   UNL     1       1.514   6.463  21.642  0.00  0.00    +0.000 HD
BRANCH   5  12
ATOM      9  C   UNL     1      -0.209  11.020  20.448  0.00  0.00    +0.000 A 
ATOM     10  C   UNL     1       0.126  10.128  21.479  0.00  0.00    +0.000 A 
ATOM     11  C   UNL     1       0.892   8.958  21.260  0.00  0.00    +0.000 A 
ATOM     12  C   UNL     1       1.384   8.629  19.990  0.00  0.00    +0.000 A 
ATOM     13  C   UNL     1       1.091   9.517  18.955  0.00  0.00    +0.000 A 
ATOM     14  C   UNL     1       0.315  10.678  19.187  0.00  0.00    +0.000 A 
BRANCH   9  15
ATOM     15  N   UNL     1      -1.017  12.158  20.644  0.00  0.00    +0.000 N 
BRANCH  15  17
ATOM     16  C   UNL     1      -3.300  13.131  20.593  0.00  0.00    +0.000 C 
ATOM     17  C   UNL     1      -2.219  12.383  19.822  0.00  0.00    +0.000 C 
ENDBRANCH  15  17
BRANCH  15  18
ATOM     18  C   UNL     1      -0.767  13.008  21.830  0.00  0.00    +0.000 C 
ATOM     19  C   UNL     1       0.333  14.058  21.722  0.00  0.00    +0.000 C 
ENDBRANCH  15  18
ENDBRANCH   9  15
ENDBRANCH   5  12
ENDBRANCH   1   7
BRANCH   2  20
ATOM     20  C   UNL     1       3.033   2.736  20.559  0.00  0.00    +0.000 C 
BRANCH  20  21
ATOM     21  C   UNL     1       3.515   2.329  19.162  0.00  0.00    +0.000 C 
BRANCH  21  22
ATOM     22  C   UNL     1       4.458   3.281  18.464  0.00  0.00    +0.000 A 
ATOM     23  N   UNL     1       4.308   3.458  17.142  0.00  0.00    +0.000 NA
ATOM     24  C   UNL     1       5.056   4.433  16.608  0.00  0.00    +0.000 A 
ATOM     25  C   UNL     1       5.946   5.238  17.297  0.00  0.00    +0.000 A 
ATOM     26  C   UNL     1       6.656   6.310  16.711  0.00  0.00    +0.000 A 
ATOM     27  C   UNL     1       7.613   7.000  17.439  0.00  0.00    +0.000 A 
ATOM     28  C   UNL     1       7.878   6.604  18.747  0.00  0.00    +0.000 A 
ATOM     29  C   UNL     1       7.133   5.564  19.327  0.00  0.00    +0.000 A 
ATOM     30  C   UNL     1       6.130   4.887  18.632  0.00  0.00    +0.000 A 
ATOM     31  N   UNL     1       5.377   3.924  19.218  0.00  0.00    +0.000 NA
BRANCH  24  32
ATOM     32  O   UNL     1       4.954   4.537  15.251  0.00  0.00    +0.000 OA
ATOM     33  H   UNL     1       4.078   4.140  15.045  0.00  0.00    +0.000 HD
ENDBRANCH  24  32
ENDBRANCH  21  22
ENDBRANCH  20  21
ENDBRANCH   2  20
TORSDOF 9
ENDMDL
MODEL 3
REMARK VINA RESULT:      -7.9      1.168      2.456
REMARK  Name = 
REMARK  11 active torsions:
REMARK  status: ('A' for Active; 'I' for Inactive)
REMARK    1  A    between atoms: C_1  and  C_2
REMARK    2  A    between atoms: C_2  and  N_3
REMARK    3  A    between atoms: N_3  and  C_4
REMARK    4  A    between atoms: N_3  and  C_6
REMARK    5  A    between atoms: C_4  and  C_5
REMARK    6  A    between atoms: C_9  and  C_10
REMARK    7  A    between atoms: N_12  and  N_13
REMARK    8  A    between atoms: C_14  and  C_16
REMARK    9  A    between atoms: C_16  and  C_17
REMARK   10  A    between atoms: C_17  and  C_18
REMARK   11  A    between atoms: C_20  and  O_21
REMARK                            x       y       z     vdW  Elec       q    Type
REMARK                         _______ _______ _______ _____ _____    ______ ____
ROOT
ATOM      1  N   UNL     1       2.517   5.161  21.000  0.00  0.00    +0.000 N 
ATOM      2  C   UNL     1       1.786   4.043  20.670  0.00  0.00    +0.000 C 
ATOM      3  O   UNL     1       0.610   4.117  20.313  0.00  0.00    +0.000 OA
ATOM      4  H   UNL     1       3.522   5.108  21.183  0.00  0.00    +0.000 HD
ENDROOT
BRANCH   1   7
ATOM      5  C   UNL     1       2.199   7.216  19.770  0.00  0.00    +0.000 C 
ATOM      6  O   UNL     1       2.935   6.810  18.867  0.00  0.00    +0.000 OA
ATOM      7  N   UNL     1       1.927   6.435  20.883  0.00  0.00    +0.000 N 
ATOM      8  H   UNL     1       1.359   6.720  21.674  0.00  0.00    +0.000 HD
BRANCH   5  12
ATOM      9  C   UNL     1       0.262  11.193  19.682  0.00  0.00    +0.000 A 
ATOM     10  C   UNL     1       0.294  10.375  20.823  0.00  0.00    +0.000 A 
ATOM     11  C   UNL     1       0.919   9.104  20.836  0.00  0.00    +0.000 A 
ATOM     12  C   UNL     1       1.568   8.594  19.704  0.00  0.00    +0.000 A 
ATOM     13  C   UNL     1       1.578   9.403  18.568  0.00  0.00    +0.000 A 
ATOM     14  C   UNL     1       0.939  10.667  18.566  0.00  0.00    +0.000 A 
BRANCH   9  15
ATOM     15  N   UNL     1      -0.404  12.434  19.643  0.00  0.00    +0.000 N 
BRANCH  15  17
ATOM     16  C   UNL     1      -2.413  11.384  18.632  0.00  0.00    +0.000 C 
ATOM     17  C   UNL     1      -1.871  12.500  19.517  0.00  0.00    +0.000 C 
ENDBRANCH  15  17
BRANCH  15  18
ATOM     18  C   UNL     1       0.365  13.661  19.948  0.00  0.00    +0.000 C 
ATOM     19  C   UNL     1       0.442  14.098  21.406  0.00  0.00    +0.000 C 
ENDBRANCH  15  18
ENDBRANCH   9  15
ENDBRANCH   5  12
ENDBRANCH   1   7
BRANCH   2  20
ATOM     20  C   UNL     1       2.486   2.701  20.858  0.00  0.00    +0.000 C 
BRANCH  20  21
ATOM     21  C   UNL     1       3.264   2.157  19.655  0.00  0.00    +0.000 C 
BRANCH  21  22
ATOM     22  C   UNL     1       4.184   3.125  18.946  0.00  0.00    +0.000 A 
ATOM     23  N   UNL     1       5.071   3.806  19.686  0.00  0.00    +0.000 NA
ATOM     24  C   UNL     1       5.968   4.519  18.992  0.00  0.00    +0.000 A 
ATOM     25  C   UNL     1       6.039   4.604  17.612  0.00  0.00    +0.000 A 
ATOM     26  C   UNL     1       7.051   5.301  16.916  0.00  0.00    +0.000 A 
ATOM     27  C   UNL     1       6.992   5.434  15.537  0.00  0.00    +0.000 A 
ATOM     28  C   UNL     1       5.907   4.890  14.856  0.00  0.00    +0.000 A 
ATOM     29  C   UNL     1       4.931   4.163  15.559  0.00  0.00    +0.000 A 
ATOM     30  C   UNL     1       4.995   3.972  16.940  0.00  0.00    +0.000 A 
ATOM     31  N   UNL     1       4.082   3.221  17.602  0.00  0.00    +0.000 NA
BRANCH  24  32
ATOM     32  O   UNL     1       6.803   5.272  19.764  0.00  0.00    +0.000 OA
ATOM     33  H   UNL     1       7.369   4.611  20.222  0.00  0.00    +0.000 HD
ENDBRANCH  24  32
ENDBRANCH  21  22
ENDBRANCH  20  21
ENDBRANCH   2  20
TORSDOF 9
ENDMDL
MODEL 4
REMARK VINA RESULT:      -7.8      4.895      7.339
REMARK  Name = 
REMARK  11 active torsions:
REMARK  status: ('A' for Active; 'I' for Inactive)
REMARK    1  A    between atoms: C_1  and  C_2
REMARK    2  A    between atoms: C_2  and  N_3
REMARK    3  A    between atoms: N_3  and  C_4
REMARK    4  A    between atoms: N_3  and  C_6
REMARK    5  A    between atoms: C_4  and  C_5
REMARK    6  A    between atoms: C_9  and  C_10
REMARK    7  A    between atoms: N_12  and  N_13
REMARK    8  A    between atoms: C_14  and  C_16
REMARK    9  A    between atoms: C_16  and  C_17
REMARK   10  A    between atoms: C_17  and  C_18
REMARK   11  A    between atoms: C_20  and  O_21
REMARK                            x       y       z     vdW  Elec       q    Type
REMARK                         _______ _______ _______ _____ _____    ______ ____
ROOT
ATOM      1  N   UNL     1       6.333   6.572  16.966  0.00  0.00    +0.000 N 
ATOM      2  C   UNL     1       6.922   5.670  16.110  0.00  0.00    +0.000 C 
ATOM      3  O   UNL     1       7.911   5.963  15.437  0.00  0.00    +0.000 OA
ATOM      4  H   UNL     1       5.588   6.292  17.608  0.00  0.00    +0.000 HD
ENDROOT
BRANCH   1   7
ATOM      5  C   UNL     1       7.892   8.055  18.065  0.00  0.00    +0.000 C 
ATOM      6  O   UNL     1       8.307   7.129  18.765  0.00  0.00    +0.000 OA
ATOM      7  N   UNL     1       6.899   7.854  17.119  0.00  0.00    +0.000 N 
ATOM      8  H   UNL     1       6.490   8.577  16.536  0.00  0.00    +0.000 HD
BRANCH   5  12
ATOM      9  C   UNL     1       9.536  12.121  18.654  0.00  0.00    +0.000 A 
ATOM     10  C   UNL     1       9.955  11.004  19.394  0.00  0.00    +0.000 A 
ATOM     11  C   UNL     1       9.421   9.708  19.193  0.00  0.00    +0.000 A 
ATOM     12  C   UNL     1       8.446   9.460  18.218  0.00  0.00    +0.000 A 
ATOM     13  C   UNL     1       8.036  10.548  17.448  0.00  0.00    +0.000 A 
ATOM     14  C   UNL     1       8.572  11.840  17.668  0.00  0.00    +0.000 A 
BRANCH   9  15
ATOM     15  N   UNL     1      10.021  13.424  18.884  0.00  0.00    +0.000 N 
BRANCH  15  17
ATOM     16  C   UNL     1      11.705  13.133  17.083  0.00  0.00    +0.000 C 
ATOM     17  C   UNL     1      11.347  13.835  18.388  0.00  0.00    +0.000 C 
ENDBRANCH  15  17
BRANCH  15  18
ATOM     18  C   UNL     1       9.095  14.437  19.437  0.00  0.00    +0.000 C 
ATOM     19  C   UNL     1       8.309  14.062  20.688  0.00  0.00    +0.000 C 
ENDBRANCH  15  18
ENDBRANCH   9  15
ENDBRANCH   5  12
ENDBRANCH   1   7
BRANCH   2  20
ATOM     20  C   UNL     1       6.229   4.319  15.976  0.00  0.00    +0.000 C 
BRANCH  20  21
ATOM     21  C   UNL     1       4.701   4.314  16.105  0.00  0.00    +0.000 C 
BRANCH  21  22
ATOM     22  C   UNL     1       4.128   3.726  17.375  0.00  0.00    +0.000 A 
ATOM     23  N   UNL     1       4.949   3.023  18.168  0.00  0.00    +0.000 NA
ATOM     24  C   UNL     1       4.435   2.670  19.354  0.00  0.00    +0.000 A 
ATOM     25  C   UNL     1       3.159   2.965  19.801  0.00  0.00    +0.000 A 
ATOM     26  C   UNL     1       2.682   2.646  21.092  0.00  0.00    +0.000 A 
ATOM     27  C   UNL     1       1.356   2.873  21.427  0.00  0.00    +0.000 A 
ATOM     28  C   UNL     1       0.500   3.400  20.464  0.00  0.00    +0.000 A 
ATOM     29  C   UNL     1       1.001   3.751  19.199  0.00  0.00    +0.000 A 
ATOM     30  C   UNL     1       2.342   3.579  18.854  0.00  0.00    +0.000 A 
ATOM     31  N   UNL     1       2.829   3.973  17.652  0.00  0.00    +0.000 NA
BRANCH  24  32
ATOM     32  O   UNL     1       5.255   1.882  20.108  0.00  0.00    +0.000 OA
ATOM     33  H   UNL     1       6.122   2.345  20.084  0.00  0.00    +0.000 HD
ENDBRANCH  24  32
ENDBRANCH  21  22
ENDBRANCH  20  21
ENDBRANCH   2  20
TORSDOF 9
ENDMDL
MODEL 5
REMARK VINA RESULT:      -7.8      1.082      1.846
REMARK  Name = 
REMARK  11 active torsions:
REMARK  status: ('A' for Active; 'I' for Inactive)
REMARK    1  A    between atoms: C_1  and  C_2
REMARK    2  A    between atoms: C_2  and  N_3
REMARK    3  A    between atoms: N_3  and  C_4
REMARK    4  A    between atoms: N_3  and  C_6
REMARK    5  A    between atoms: C_4  and  C_5
REMARK    6  A    between atoms: C_9  and  C_10
REMARK    7  A    between atoms: N_12  and  N_13
REMARK    8  A    between atoms: C_14  and  C_16
REMARK    9  A    between atoms: C_16  and  C_17
REMARK   10  A    between atoms: C_17  and  C_18
REMARK   11  A    between atoms: C_20  and  O_21
REMARK                            x       y       z     vdW  Elec       q    Type
REMARK                         _______ _______ _______ _____ _____    ______ ____
ROOT
ATOM      1  N   UNL     1       2.380   5.093  21.375  0.00  0.00    +0.000 N 
ATOM      2  C   UNL     1       1.712   3.948  21.005  0.00  0.00    +0.000 C 
ATOM      3  O   UNL     1       0.632   3.988  20.414  0.00  0.00    +0.000 OA
ATOM      4  H   UNL     1       3.328   5.058  21.759  0.00  0.00    +0.000 HD
ENDROOT
BRANCH   1   7
ATOM      5  C   UNL     1       2.299   6.997  19.890  0.00  0.00    +0.000 C 
ATOM      6  O   UNL     1       3.150   6.485  19.158  0.00  0.00    +0.000 OA
ATOM      7  N   UNL     1       1.846   6.350  21.029  0.00  0.00    +0.000 N 
ATOM      8  H   UNL     1       1.175   6.728  21.690  0.00  0.00    +0.000 HD
BRANCH   5  12
ATOM      9  C   UNL     1       0.719  11.004  18.879  0.00  0.00    +0.000 A 
ATOM     10  C   UNL     1       1.420  10.198  17.967  0.00  0.00    +0.000 A 
ATOM     11  C   UNL     1       1.918   8.917  18.305  0.00  0.00    +0.000 A 
ATOM     12  C   UNL     1       1.720   8.364  19.577  0.00  0.00    +0.000 A 
ATOM     13  C   UNL     1       0.999   9.133  20.490  0.00  0.00    +0.000 A 
ATOM     14  C   UNL     1       0.516  10.417  20.141  0.00  0.00    +0.000 A 
BRANCH   9  15
ATOM     15  N   UNL     1       0.267  12.303  18.570  0.00  0.00    +0.000 N 
BRANCH  15  17
ATOM     16  C   UNL     1      -1.985  11.703  17.717  0.00  0.00    +0.000 C 
ATOM     17  C   UNL     1      -1.168  12.632  18.607  0.00  0.00    +0.000 C 
ENDBRANCH  15  17
BRANCH  15  18
ATOM     18  C   UNL     1       1.267  13.384  18.421  0.00  0.00    +0.000 C 
ATOM     19  C   UNL     1       1.060  14.651  19.242  0.00  0.00    +0.000 C 
ENDBRANCH  15  18
ENDBRANCH   9  15
ENDBRANCH   5  12
ENDBRANCH   1   7
BRANCH   2  20
ATOM     20  C   UNL     1       2.339   2.630  21.447  0.00  0.00    +0.000 C 
BRANCH  20  21
ATOM     21  C   UNL     1       3.743   2.324  20.914  0.00  0.00    +0.000 C 
BRANCH  21  22
ATOM     22  C   UNL     1       4.081   2.859  19.541  0.00  0.00    +0.000 A 
ATOM     23  N   UNL     1       3.174   2.705  18.566  0.00  0.00    +0.000 NA
ATOM     24  C   UNL     1       3.452   3.343  17.421  0.00  0.00    +0.000 A 
ATOM     25  C   UNL     1       4.573   4.117  17.179  0.00  0.00    +0.000 A 
ATOM     26  C   UNL     1       4.790   4.840  15.985  0.00  0.00    +0.000 A 
ATOM     27  C   UNL     1       5.990   5.503  15.773  0.00  0.00    +0.000 A 
ATOM     28  C   UNL     1       6.982   5.424  16.745  0.00  0.00    +0.000 A 
ATOM     29  C   UNL     1       6.734   4.736  17.945  0.00  0.00    +0.000 A 
ATOM     30  C   UNL     1       5.517   4.103  18.204  0.00  0.00    +0.000 A 
ATOM     31  N   UNL     1       5.265   3.492  19.387  0.00  0.00    +0.000 NA
BRANCH  24  32
ATOM     32  O   UNL     1       2.562   3.101  16.415  0.00  0.00    +0.000 OA
ATOM     33  H   UNL     1       3.127   2.865  15.646  0.00  0.00    +0.000 HD
ENDBRANCH  24  32
ENDBRANCH  21  22
ENDBRANCH  20  21
ENDBRANCH   2  20
TORSDOF 9
ENDMDL
MODEL 6
REMARK VINA RESULT:      -7.7      1.074      1.988
REMARK  Name = 
REMARK  11 active torsions:
REMARK  status: ('A' for Active; 'I' for Inactive)
REMARK    1  A    between atoms: C_1  and  C_2
REMARK    2  A    between atoms: C_2  and  N_3
REMARK    3  A    between atoms: N_3  and  C_4
REMARK    4  A    between atoms: N_3  and  C_6
REMARK    5  A    between atoms: C_4  and  C_5
REMARK    6  A    between atoms: C_9  and  C_10
REMARK    7  A    between atoms: N_12  and  N_13
REMARK    8  A    between atoms: C_14  and  C_16
REMARK    9  A    between atoms: C_16  and  C_17
REMARK   10  A    between atoms: C_17  and  C_18
REMARK   11  A    between atoms: C_20  and  O_21
REMARK                            x       y       z     vdW  Elec       q    Type
REMARK                         _______ _______ _______ _____ _____    ______ ____
ROOT
ATOM      1  N   UNL     1       2.431   5.089  21.288  0.00  0.00    +0.000 N 
ATOM      2  C   UNL     1       1.744   3.932  20.999  0.00  0.00    +0.000 C 
ATOM      3  O   UNL     1       0.625   3.952  20.485  0.00  0.00    +0.000 OA
ATOM      4  H   UNL     1       3.403   5.068  21.605  0.00  0.00    +0.000 HD
ENDROOT
BRANCH   1   7
ATOM      5  C   UNL     1       2.308   6.996  19.809  0.00  0.00    +0.000 C 
ATOM      6  O   UNL     1       3.173   6.508  19.078  0.00  0.00    +0.000 OA
ATOM      7  N   UNL     1       1.867   6.334  20.945  0.00  0.00    +0.000 N 
ATOM      8  H   UNL     1       1.185   6.693  21.606  0.00  0.00    +0.000 HD
BRANCH   5  12
ATOM      9  C   UNL     1       0.421  10.918  19.011  0.00  0.00    +0.000 A 
ATOM     10  C   UNL     1       0.377  10.280  20.261  0.00  0.00    +0.000 A 
ATOM     11  C   UNL     1       0.987   9.025  20.502  0.00  0.00    +0.000 A 
ATOM     12  C   UNL     1       1.696   8.350  19.500  0.00  0.00    +0.000 A 
ATOM     13  C   UNL     1       1.780   8.978  18.258  0.00  0.00    +0.000 A 
ATOM     14  C   UNL     1       1.156  10.228  18.029  0.00  0.00    +0.000 A 
BRANCH   9  15
ATOM     15  N   UNL     1      -0.230  12.140  18.746  0.00  0.00    +0.000 N 
BRANCH  15  17
ATOM     16  C   UNL     1      -2.079  13.060  20.123  0.00  0.00    +0.000 C 
ATOM     17  C   UNL     1      -1.692  12.263  18.882  0.00  0.00    +0.000 C 
ENDBRANCH  15  17
BRANCH  15  18
ATOM     18  C   UNL     1       0.596  13.351  18.542  0.00  0.00    +0.000 C 
ATOM     19  C   UNL     1       1.550  13.748  19.662  0.00  0.00    +0.000 C 
ENDBRANCH  15  18
ENDBRANCH   9  15
ENDBRANCH   5  12
ENDBRANCH   1   7
BRANCH   2  20
ATOM     20  C   UNL     1       2.407   2.630  21.434  0.00  0.00    +0.000 C 
BRANCH  20  21
ATOM     21  C   UNL     1       3.823   2.371  20.908  0.00  0.00    +0.000 C 
BRANCH  21  22
ATOM     22  C   UNL     1       4.141   2.889  19.524  0.00  0.00    +0.000 A 
ATOM     23  N   UNL     1       3.217   2.727  18.565  0.00  0.00    +0.000 NA
ATOM     24  C   UNL     1       3.478   3.350  17.408  0.00  0.00    +0.000 A 
ATOM     25  C   UNL     1       4.598   4.118  17.139  0.00  0.00    +0.000 A 
ATOM     26  C   UNL     1       4.797   4.827  15.934  0.00  0.00    +0.000 A 
ATOM     27  C   UNL     1       5.995   5.483  15.694  0.00  0.00    +0.000 A 
ATOM     28  C   UNL     1       7.003   5.413  16.651  0.00  0.00    +0.000 A 
ATOM     29  C   UNL     1       6.773   4.740  17.863  0.00  0.00    +0.000 A 
ATOM     30  C   UNL     1       5.558   4.114  18.149  0.00  0.00    +0.000 A 
ATOM     31  N   UNL     1       5.324   3.517  19.343  0.00  0.00    +0.000 NA
BRANCH  24  32
ATOM     32  O   UNL     1       2.572   3.100  16.420  0.00  0.00    +0.000 OA
ATOM     33  H   UNL     1       1.702   3.128  16.879  0.00  0.00    +0.000 HD
ENDBRANCH  24  32
ENDBRANCH  21  22
ENDBRANCH  20  21
ENDBRANCH   2  20
TORSDOF 9
ENDMDL
MODEL 7
REMARK VINA RESULT:      -7.6      4.377      7.125
REMARK  Name = 
REMARK  11 active torsions:
REMARK  status: ('A' for Active; 'I' for Inactive)
REMARK    1  A    between atoms: C_1  and  C_2
REMARK    2  A    between atoms: C_2  and  N_3
REMARK    3  A    between atoms: N_3  and  C_4
REMARK    4  A    between atoms: N_3  and  C_6
REMARK    5  A    between atoms: C_4  and  C_5
REMARK    6  A    between atoms: C_9  and  C_10
REMARK    7  A    between atoms: N_12  and  N_13
REMARK    8  A    between atoms: C_14  and  C_16
REMARK    9  A    between atoms: C_16  and  C_17
REMARK   10  A    between atoms: C_17  and  C_18
REMARK   11  A    between atoms: C_20  and  O_21
REMARK                            x       y       z     vdW  Elec       q    Type
REMARK                         _______ _______ _______ _____ _____    ______ ____
ROOT
ATOM      1  N   UNL     1       6.665   6.350  17.234  0.00  0.00    +0.000 N 
ATOM      2  C   UNL     1       7.046   5.553  16.179  0.00  0.00    +0.000 C 
ATOM      3  O   UNL     1       7.754   5.978  15.266  0.00  0.00    +0.000 OA
ATOM      4  H   UNL     1       6.177   5.965  18.046  0.00  0.00    +0.000 HD
ENDROOT
BRANCH   1   7
ATOM      5  C   UNL     1       8.074   8.021  18.263  0.00  0.00    +0.000 C 
ATOM      6  O   UNL     1       8.526   7.184  19.047  0.00  0.00    +0.000 OA
ATOM      7  N   UNL     1       7.133   7.677  17.304  0.00  0.00    +0.000 N 
ATOM      8  H   UNL     1       6.697   8.322  16.654  0.00  0.00    +0.000 HD
BRANCH   5  12
ATOM      9  C   UNL     1       9.409  12.228  18.584  0.00  0.00    +0.000 A 
ATOM     10  C   UNL     1       9.893  11.199  19.408  0.00  0.00    +0.000 A 
ATOM     11  C   UNL     1       9.458   9.857  19.292  0.00  0.00    +0.000 A 
ATOM     12  C   UNL     1       8.522   9.470  18.323  0.00  0.00    +0.000 A 
ATOM     13  C   UNL     1       8.050  10.469  17.472  0.00  0.00    +0.000 A 
ATOM     14  C   UNL     1       8.487  11.809  17.606  0.00  0.00    +0.000 A 
BRANCH   9  15
ATOM     15  N   UNL     1       9.795  13.576  18.727  0.00  0.00    +0.000 N 
BRANCH  15  17
ATOM     16  C   UNL     1      12.059  14.310  18.025  0.00  0.00    +0.000 C 
ATOM     17  C   UNL     1      11.149  13.930  19.187  0.00  0.00    +0.000 C 
ENDBRANCH  15  17
BRANCH  15  18
ATOM     18  C   UNL     1       8.896  14.629  18.202  0.00  0.00    +0.000 C 
ATOM     19  C   UNL     1       7.874  15.225  19.163  0.00  0.00    +0.000 C 
ENDBRANCH  15  18
ENDBRANCH   9  15
ENDBRANCH   5  12
ENDBRANCH   1   7
BRANCH   2  20
ATOM     20  C   UNL     1       6.468   4.142  16.160  0.00  0.00    +0.000 C 
BRANCH  20  21
ATOM     21  C   UNL     1       5.010   4.003  15.708  0.00  0.00    +0.000 C 
BRANCH  21  22
ATOM     22  C   UNL     1       3.958   4.000  16.794  0.00  0.00    +0.000 A 
ATOM     23  N   UNL     1       3.318   2.849  17.046  0.00  0.00    +0.000 NA
ATOM     24  C   UNL     1       2.522   2.862  18.124  0.00  0.00    +0.000 A 
ATOM     25  C   UNL     1       2.316   3.943  18.963  0.00  0.00    +0.000 A 
ATOM     26  C   UNL     1       1.532   3.892  20.137  0.00  0.00    +0.000 A 
ATOM     27  C   UNL     1       1.281   5.045  20.865  0.00  0.00    +0.000 A 
ATOM     28  C   UNL     1       1.796   6.254  20.407  0.00  0.00    +0.000 A 
ATOM     29  C   UNL     1       2.609   6.280  19.261  0.00  0.00    +0.000 A 
ATOM     30  C   UNL     1       2.917   5.126  18.539  0.00  0.00    +0.000 A 
ATOM     31  N   UNL     1       3.748   5.152  17.470  0.00  0.00    +0.000 NA
BRANCH  24  32
ATOM     32  O   UNL     1       1.814   1.710  18.311  0.00  0.00    +0.000 OA
ATOM     33  H   UNL     1       2.464   1.091  18.714  0.00  0.00    +0.000 HD
ENDBRANCH  24  32
ENDBRANCH  21  22
ENDBRANCH  20  21
ENDBRANCH   2  20
TORSDOF 9
ENDMDL
MODEL 8
REMARK VINA RESULT:      -7.6      1.379      2.352
REMARK  Name = 
REMARK  11 active torsions:
REMARK  status: ('A' for Active; 'I' for Inactive)
REMARK    1  A    between atoms: C_1  and  C_2
REMARK    2  A    between atoms: C_2  and  N_3
REMARK    3  A    between atoms: N_3  and  C_4
REMARK    4  A    between atoms: N_3  and  C_6
REMARK    5  A    between atoms: C_4  and  C_5
REMARK    6  A    between atoms: C_9  and  C_10
REMARK    7  A    between atoms: N_12  and  N_13
REMARK    8  A    between atoms: C_14  and  C_16
REMARK    9  A    between atoms: C_16  and  C_17
REMARK   10  A    between atoms: C_17  and  C_18
REMARK   11  A    between atoms: C_20  and  O_21
REMARK                            x       y       z     vdW  Elec       q    Type
REMARK                         _______ _______ _______ _____ _____    ______ ____
ROOT
ATOM      1  N   UNL     1       2.485   5.095  21.013  0.00  0.00    +0.000 N 
ATOM      2  C   UNL     1       1.757   3.982  20.658  0.00  0.00    +0.000 C 
ATOM      3  O   UNL     1       0.546   4.039  20.444  0.00  0.00    +0.000 OA
ATOM      4  H   UNL     1       3.505   5.069  21.076  0.00  0.00    +0.000 HD
ENDROOT
BRANCH   1   7
ATOM      5  C   UNL     1       2.029   7.273  20.072  0.00  0.00    +0.000 C 
ATOM      6  O   UNL     1       2.731   7.017  19.091  0.00  0.00    +0.000 OA
ATOM      7  N   UNL     1       1.844   6.348  21.088  0.00  0.00    +0.000 N 
ATOM      8  H   UNL     1       1.309   6.507  21.935  0.00  0.00    +0.000 HD
BRANCH   5  12
ATOM      9  C   UNL     1       0.121  11.255  20.370  0.00  0.00    +0.000 A 
ATOM     10  C   UNL     1       0.620  10.726  19.169  0.00  0.00    +0.000 A 
ATOM     11  C   UNL     1       1.227   9.449  19.089  0.00  0.00    +0.000 A 
ATOM     12  C   UNL     1       1.347   8.621  20.214  0.00  0.00    +0.000 A 
ATOM     13  C   UNL     1       0.830   9.113  21.413  0.00  0.00    +0.000 A 
ATOM     14  C   UNL     1       0.235  10.396  21.479  0.00  0.00    +0.000 A 
BRANCH   9  15
ATOM     15  N   UNL     1      -0.434  12.546  20.472  0.00  0.00    +0.000 N 
BRANCH  15  17
ATOM     16  C   UNL     1      -2.289  14.185  20.656  0.00  0.00    +0.000 C 
ATOM     17  C   UNL     1      -1.880  12.763  20.288  0.00  0.00    +0.000 C 
ENDBRANCH  15  17
BRANCH  15  18
ATOM     18  C   UNL     1       0.417  13.645  20.980  0.00  0.00    +0.000 C 
ATOM     19  C   UNL     1       1.403  14.278  20.005  0.00  0.00    +0.000 C 
ENDBRANCH  15  18
ENDBRANCH   9  15
ENDBRANCH   5  12
ENDBRANCH   1   7
BRANCH   2  20
ATOM     20  C   UNL     1       2.518   2.661  20.635  0.00  0.00    +0.000 C 
BRANCH  20  21
ATOM     21  C   UNL     1       3.098   2.226  19.284  0.00  0.00    +0.000 C 
BRANCH  21  22
ATOM     22  C   UNL     1       4.113   3.150  18.651  0.00  0.00    +0.000 A 
ATOM     23  N   UNL     1       4.965   3.797  19.459  0.00  0.00    +0.000 NA
ATOM     24  C   UNL     1       5.944   4.468  18.839  0.00  0.00    +0.000 A 
ATOM     25  C   UNL     1       6.130   4.543  17.469  0.00  0.00    +0.000 A 
ATOM     26  C   UNL     1       7.224   5.194  16.856  0.00  0.00    +0.000 A 
ATOM     27  C   UNL     1       7.281   5.323  15.477  0.00  0.00    +0.000 A 
ATOM     28  C   UNL     1       6.233   4.822  14.711  0.00  0.00    +0.000 A 
ATOM     29  C   UNL     1       5.174   4.140  15.333  0.00  0.00    +0.000 A 
ATOM     30  C   UNL     1       5.118   3.953  16.716  0.00  0.00    +0.000 A 
ATOM     31  N   UNL     1       4.123   3.245  17.303  0.00  0.00    +0.000 NA
BRANCH  24  32
ATOM     32  O   UNL     1       6.746   5.190  19.675  0.00  0.00    +0.000 OA
ATOM     33  H   UNL     1       6.325   6.078  19.704  0.00  0.00    +0.000 HD
ENDBRANCH  24  32
ENDBRANCH  21  22
ENDBRANCH  20  21
ENDBRANCH   2  20
TORSDOF 9
ENDMDL
MODEL 9
REMARK VINA RESULT:      -7.5      1.922      2.908
REMARK  Name = 
REMARK  11 active torsions:
REMARK  status: ('A' for Active; 'I' for Inactive)
REMARK    1  A    between atoms: C_1  and  C_2
REMARK    2  A    between atoms: C_2  and  N_3
REMARK    3  A    between atoms: N_3  and  C_4
REMARK    4  A    between atoms: N_3  and  C_6
REMARK    5  A    between atoms: C_4  and  C_5
REMARK    6  A    between atoms: C_9  and  C_10
REMARK    7  A    between atoms: N_12  and  N_13
REMARK    8  A    between atoms: C_14  and  C_16
REMARK    9  A    between atoms: C_16  and  C_17
REMARK   10  A    between atoms: C_17  and  C_18
REMARK   11  A    between atoms: C_20  and  O_21
REMARK                            x       y       z     vdW  Elec       q    Type
REMARK                         _______ _______ _______ _____ _____    ______ ____
ROOT
ATOM      1  N   UNL     1       2.588   5.314  20.585  0.00  0.00    +0.000 N 
ATOM      2  C   UNL     1       1.901   4.172  20.243  0.00  0.00    +0.000 C 
ATOM      3  O   UNL     1       0.671   4.122  20.264  0.00  0.00    +0.000 OA
ATOM      4  H   UNL     1       3.599   5.389  20.455  0.00  0.00    +0.000 HD
ENDROOT
BRANCH   1   7
ATOM      5  C   UNL     1       1.883   7.565  20.062  0.00  0.00    +0.000 C 
ATOM      6  O   UNL     1       2.495   7.528  18.992  0.00  0.00    +0.000 OA
ATOM      7  N   UNL     1       1.870   6.479  20.924  0.00  0.00    +0.000 N 
ATOM      8  H   UNL     1       1.416   6.456  21.831  0.00  0.00    +0.000 HD
BRANCH   5  12
ATOM      9  C   UNL     1      -0.396  11.113  21.402  0.00  0.00    +0.000 A 
ATOM     10  C   UNL     1      -0.043  10.055  22.255  0.00  0.00    +0.000 A 
ATOM     11  C   UNL     1       0.688   8.927  21.812  0.00  0.00    +0.000 A 
ATOM     12  C   UNL     1       1.124   8.810  20.486  0.00  0.00    +0.000 A 
ATOM     13  C   UNL     1       0.813   9.864  19.627  0.00  0.00    +0.000 A 
ATOM     14  C   UNL     1       0.072  10.981  20.082  0.00  0.00    +0.000 A 
BRANCH   9  15
ATOM     15  N   UNL     1      -1.171  12.215  21.820  0.00  0.00    +0.000 N 
BRANCH  15  17
ATOM     16  C   UNL     1      -3.103  12.305  23.375  0.00  0.00    +0.000 C 
ATOM     17  C   UNL     1      -1.587  12.356  23.226  0.00  0.00    +0.000 C 
ENDBRANCH  15  17
BRANCH  15  18
ATOM     18  C   UNL     1      -1.375  13.336  20.875  0.00  0.00    +0.000 C 
ATOM     19  C   UNL     1      -0.510  14.577  21.060  0.00  0.00    +0.000 C 
ENDBRANCH  15  18
ENDBRANCH   9  15
ENDBRANCH   5  12
ENDBRANCH   1   7
BRANCH   2  20
ATOM     20  C   UNL     1       2.751   2.946  19.924  0.00  0.00    +0.000 C 
BRANCH  20  21
ATOM     21  C   UNL     1       4.267   3.099  20.092  0.00  0.00    +0.000 C 
BRANCH  21  22
ATOM     22  C   UNL     1       5.013   3.767  18.959  0.00  0.00    +0.000 A 
ATOM     23  N   UNL     1       6.091   4.504  19.265  0.00  0.00    +0.000 NA
ATOM     24  C   UNL     1       6.807   4.932  18.217  0.00  0.00    +0.000 A 
ATOM     25  C   UNL     1       6.520   4.682  16.887  0.00  0.00    +0.000 A 
ATOM     26  C   UNL     1       7.346   5.082  15.813  0.00  0.00    +0.000 A 
ATOM     27  C   UNL     1       6.935   4.894  14.502  0.00  0.00    +0.000 A 
ATOM     28  C   UNL     1       5.688   4.325  14.264  0.00  0.00    +0.000 A 
ATOM     29  C   UNL     1       4.897   3.894  15.343  0.00  0.00    +0.000 A 
ATOM     30  C   UNL     1       5.310   4.027  16.669  0.00  0.00    +0.000 A 
ATOM     31  N   UNL     1       4.568   3.556  17.701  0.00  0.00    +0.000 NA
BRANCH  24  32
ATOM     32  O   UNL     1       7.848   5.751  18.547  0.00  0.00    +0.000 OA
ATOM     33  H   UNL     1       7.925   5.660  19.523  0.00  0.00    +0.000 HD
ENDBRANCH  24  32
ENDBRANCH  21  22
ENDBRANCH  20  21
ENDBRANCH   2  20
TORSDOF 9
ENDMDL
