MODEL 1
REMARK VINA RESULT:      -7.9      0.000      0.000
REMARK  Name = 
REMARK  3 active torsions:
REMARK  status: ('A' for Active; 'I' for Inactive)
REMARK    1  A    between atoms: C_2  and  C_5
REMARK    2  A    between atoms: C_8  and  N_9
REMARK    3  A    between atoms: N_9  and  C_10
REMARK                            x       y       z     vdW  Elec       q    Type
REMARK                         _______ _______ _______ _____ _____    ______ ____
ROOT
ATOM      1  N   UNL     1       2.621   7.308  20.075  0.00  0.00    +0.000 N 
ATOM      2  H   UNL     1       3.534   7.714  20.290  0.00  0.00    +0.000 HD
ENDROOT
BRANCH   1   3
ATOM      3  C   UNL     1       2.941   6.139  19.378  0.00  0.00    +0.000 A 
ATOM      4  N   UNL     1       3.865   6.349  18.417  0.00  0.00    +0.000 NA
ATOM      5  C   UNL     1       4.055   5.381  17.509  0.00  0.00    +0.000 A 
ATOM      6  C   UNL     1       3.231   4.281  17.410  0.00  0.00    +0.000 A 
ATOM      7  C   UNL     1       2.285   4.067  18.407  0.00  0.00    +0.000 A 
ATOM      8  C   UNL     1       1.357   3.029  18.292  0.00  0.00    +0.000 A 
ATOM      9  C   UNL     1       0.693   2.567  19.416  0.00  0.00    +0.000 A 
ATOM     10  C   UNL     1       0.969   3.135  20.649  0.00  0.00    +0.000 A 
ATOM     11  C   UNL     1       1.717   4.330  20.719  0.00  0.00    +0.000 A 
ATOM     12  C   UNL     1       2.295   4.876  19.556  0.00  0.00    +0.000 A 
ENDBRANCH   1   3
BRANCH   1  16
ATOM     13  C   UNL     1      -0.371  10.190  19.155  0.00  0.00    +0.000 A 
ATOM     14  C   UNL     1      -0.214   9.692  20.450  0.00  0.00    +0.000 A 
ATOM     15  C   UNL     1       0.820   8.786  20.733  0.00  0.00    +0.000 A 
ATOM     16  C   UNL     1       1.719   8.361  19.741  0.00  0.00    +0.000 A 
ATOM     17  C   UNL     1       1.609   8.931  18.474  0.00  0.00    +0.000 A 
ATOM     18  C   UNL     1       0.565   9.827  18.189  0.00  0.00    +0.000 A 
BRANCH  13  20
ATOM     19  F   UNL     1      -1.263  12.008  17.852  0.00  0.00    +0.000 F 
ATOM     20  C   UNL     1      -1.553  11.047  18.777  0.00  0.00    +0.000 C 
ATOM     21  F   UNL     1      -2.070  11.715  19.848  0.00  0.00    +0.000 F 
ATOM     22  F   UNL     1      -2.584  10.328  18.255  0.00  0.00    +0.000 F 
ENDBRANCH  13  20
ENDBRANCH   1  16
TORSDOF 3
ENDMDL
MODEL 2
REMARK VINA RESULT:      -7.8      3.846      7.006
REMARK  Name = 
REMARK  3 active torsions:
REMARK  status: ('A' for Active; 'I' for Inactive)
REMARK    1  A    between atoms: C_2  and  C_5
REMARK    2  A    between atoms: C_8  and  N_9
REMARK    3  A    between atoms: N_9  and  C_10
REMARK                            x       y       z     vdW  Elec       q    Type
REMARK                         _______ _______ _______ _____ _____    ______ ____
ROOT
ATOM      1  N   UNL     1       2.095   7.772  20.486  0.00  0.00    +0.000 N 
ATOM      2  H   UNL     1       2.163   7.855  21.503  0.00  0.00    +0.000 HD
ENDROOT
BRANCH   1   3
ATOM      3  C   UNL     1       1.204   8.791  20.136  0.00  0.00    +0.000 A 
ATOM      4  N   UNL     1       1.293   9.127  18.832  0.00  0.00    +0.000 NA
ATOM      5  C   UNL     1       0.696  10.260  18.435  0.00  0.00    +0.000 A 
ATOM      6  C   UNL     1       0.164  11.171  19.322  0.00  0.00    +0.000 A 
ATOM      7  C   UNL     1       0.069  10.815  20.664  0.00  0.00    +0.000 A 
ATOM      8  C   UNL     1      -0.361  11.745  21.614  0.00  0.00    +0.000 A 
ATOM      9  C   UNL     1      -0.828  11.312  22.843  0.00  0.00    +0.000 A 
ATOM     10  C   UNL     1      -0.876   9.953  23.111  0.00  0.00    +0.000 A 
ATOM     11  C   UNL     1      -0.222   9.044  22.251  0.00  0.00    +0.000 A 
ATOM     12  C   UNL     1       0.366   9.499  21.054  0.00  0.00    +0.000 A 
ENDBRANCH   1   3
BRANCH   1  16
ATOM     13  C   UNL     1       1.875   3.747  19.126  0.00  0.00    +0.000 A 
ATOM     14  C   UNL     1       2.572   4.721  18.408  0.00  0.00    +0.000 A 
ATOM     15  C   UNL     1       2.675   6.026  18.913  0.00  0.00    +0.000 A 
ATOM     16  C   UNL     1       2.095   6.389  20.140  0.00  0.00    +0.000 A 
ATOM     17  C   UNL     1       1.478   5.390  20.890  0.00  0.00    +0.000 A 
ATOM     18  C   UNL     1       1.363   4.087  20.376  0.00  0.00    +0.000 A 
BRANCH  13  20
ATOM     19  F   UNL     1       2.195   1.364  19.259  0.00  0.00    +0.000 F 
ATOM     20  C   UNL     1       1.616   2.377  18.551  0.00  0.00    +0.000 C 
ATOM     21  F   UNL     1       2.092   2.252  17.279  0.00  0.00    +0.000 F 
ATOM     22  F   UNL     1       0.291   2.072  18.482  0.00  0.00    +0.000 F 
ENDBRANCH  13  20
ENDBRANCH   1  16
TORSDOF 3
ENDMDL
MODEL 3
REMARK VINA RESULT:      -7.8      5.555      7.729
REMARK  Name = 
REMARK  3 active torsions:
REMARK  status: ('A' for Active; 'I' for Inactive)
REMARK    1  A    between atoms: C_2  and  C_5
REMARK    2  A    between atoms: C_8  and  N_9
REMARK    3  A    between atoms: N_9  and  C_10
REMARK                            x       y       z     vdW  Elec       q    Type
REMARK                         _______ _______ _______ _____ _____    ______ ____
ROOT
ATOM      1  N   UNL     1       5.432   5.240  17.640  0.00  0.00    +0.000 N 
ATOM      2  H   UNL     1       5.882   4.666  18.357  0.00  0.00    +0.000 HD
ENDROOT
BRANCH   1   3
ATOM      3  C   UNL     1       4.188   5.544  18.200  0.00  0.00    +0.000 A 
ATOM      4  N   UNL     1       3.808   6.815  17.952  0.00  0.00    +0.000 NA
ATOM      5  C   UNL     1       2.779   7.309  18.654  0.00  0.00    +0.000 A 
ATOM      6  C   UNL     1       2.224   6.646  19.727  0.00  0.00    +0.000 A 
ATOM      7  C   UNL     1       2.614   5.334  19.973  0.00  0.00    +0.000 A 
ATOM      8  C   UNL     1       2.160   4.662  21.111  0.00  0.00    +0.000 A 
ATOM      9  C   UNL     1       2.212   3.279  21.164  0.00  0.00    +0.000 A 
ATOM     10  C   UNL     1       2.703   2.576  20.075  0.00  0.00    +0.000 A 
ATOM     11  C   UNL     1       3.376   3.263  19.041  0.00  0.00    +0.000 A 
ATOM     12  C   UNL     1       3.434   4.671  19.045  0.00  0.00    +0.000 A 
ENDBRANCH   1   3
BRANCH   1  16
ATOM     13  C   UNL     1       6.361   4.030  13.668  0.00  0.00    +0.000 A 
ATOM     14  C   UNL     1       7.199   4.889  14.382  0.00  0.00    +0.000 A 
ATOM     15  C   UNL     1       6.895   5.222  15.711  0.00  0.00    +0.000 A 
ATOM     16  C   UNL     1       5.759   4.708  16.357  0.00  0.00    +0.000 A 
ATOM     17  C   UNL     1       4.978   3.783  15.666  0.00  0.00    +0.000 A 
ATOM     18  C   UNL     1       5.276   3.462  14.331  0.00  0.00    +0.000 A 
BRANCH  13  20
ATOM     19  F   UNL     1       7.316   4.718  11.567  0.00  0.00    +0.000 F 
ATOM     20  C   UNL     1       6.571   3.764  12.198  0.00  0.00    +0.000 C 
ATOM     21  F   UNL     1       5.394   3.706  11.511  0.00  0.00    +0.000 F 
ATOM     22  F   UNL     1       7.201   2.582  11.957  0.00  0.00    +0.000 F 
ENDBRANCH  13  20
ENDBRANCH   1  16
TORSDOF 3
ENDMDL
MODEL 4
REMARK VINA RESULT:      -7.7      5.106      7.216
REMARK  Name = 
REMARK  3 active torsions:
REMARK  status: ('A' for Active; 'I' for Inactive)
REMARK    1  A    between atoms: C_2  and  C_5
REMARK    2  A    between atoms: C_8  and  N_9
REMARK    3  A    between atoms: N_9  and  C_10
REMARK                            x       y       z     vdW  Elec       q    Type
REMARK                         _______ _______ _______ _____ _____    ______ ____
ROOT
ATOM      1  N   UNL     1       4.837   5.600  18.221  0.00  0.00    +0.000 N 
ATOM      2  H   UNL     1       5.343   5.098  18.954  0.00  0.00    +0.000 HD
ENDROOT
BRANCH   1   3
ATOM      3  C   UNL     1       3.543   5.712  18.738  0.00  0.00    +0.000 A 
ATOM      4  N   UNL     1       3.292   6.940  19.239  0.00  0.00    +0.000 NA
ATOM      5  C   UNL     1       2.199   7.094  20.000  0.00  0.00    +0.000 A 
ATOM      6  C   UNL     1       1.438   6.031  20.435  0.00  0.00    +0.000 A 
ATOM      7  C   UNL     1       1.697   4.769  19.910  0.00  0.00    +0.000 A 
ATOM      8  C   UNL     1       1.026   3.646  20.401  0.00  0.00    +0.000 A 
ATOM      9  C   UNL     1       0.978   2.485  19.647  0.00  0.00    +0.000 A 
ATOM     10  C   UNL     1       1.587   2.457  18.403  0.00  0.00    +0.000 A 
ATOM     11  C   UNL     1       2.458   3.501  18.025  0.00  0.00    +0.000 A 
ATOM     12  C   UNL     1       2.608   4.634  18.848  0.00  0.00    +0.000 A 
ENDBRANCH   1   3
BRANCH   1  16
ATOM     13  C   UNL     1       5.796   4.272  14.295  0.00  0.00    +0.000 A 
ATOM     14  C   UNL     1       5.495   5.610  14.557  0.00  0.00    +0.000 A 
ATOM     15  C   UNL     1       5.241   6.027  15.873  0.00  0.00    +0.000 A 
ATOM     16  C   UNL     1       5.283   5.129  16.952  0.00  0.00    +0.000 A 
ATOM     17  C   UNL     1       5.671   3.815  16.692  0.00  0.00    +0.000 A 
ATOM     18  C   UNL     1       5.911   3.396  15.372  0.00  0.00    +0.000 A 
BRANCH  13  20
ATOM     19  F   UNL     1       6.330   2.453  12.811  0.00  0.00    +0.000 F 
ATOM     20  C   UNL     1       5.930   3.756  12.884  0.00  0.00    +0.000 C 
ATOM     21  F   UNL     1       6.848   4.461  12.162  0.00  0.00    +0.000 F 
ATOM     22  F   UNL     1       4.769   3.828  12.180  0.00  0.00    +0.000 F 
ENDBRANCH  13  20
ENDBRANCH   1  16
TORSDOF 3
ENDMDL
MODEL 5
REMARK VINA RESULT:      -7.7      0.953      1.496
REMARK  Name = 
REMARK  3 active torsions:
REMARK  status: ('A' for Active; 'I' for Inactive)
REMARK    1  A    between atoms: C_2  and  C_5
REMARK    2  A    between atoms: C_8  and  N_9
REMARK    3  A    between atoms: N_9  and  C_10
REMARK                            x       y       z     vdW  Elec       q    Type
REMARK                         _______ _______ _______ _____ _____    ______ ____
ROOT
ATOM      1  N   UNL     1       3.372   6.966  18.739  0.00  0.00    +0.000 N 
ATOM      2  H   UNL     1       3.999   7.373  18.042  0.00  0.00    +0.000 HD
ENDROOT
BRANCH   1   3
ATOM      3  C   UNL     1       3.370   5.605  18.418  0.00  0.00    +0.000 A 
ATOM      4  N   UNL     1       4.124   5.331  17.333  0.00  0.00    +0.000 NA
ATOM      5  C   UNL     1       3.989   4.123  16.766  0.00  0.00    +0.000 A 
ATOM      6  C   UNL     1       2.998   3.237  17.129  0.00  0.00    +0.000 A 
ATOM      7  C   UNL     1       2.230   3.522  18.253  0.00  0.00    +0.000 A 
ATOM      8  C   UNL     1       1.145   2.710  18.594  0.00  0.00    +0.000 A 
ATOM      9  C   UNL     1       0.635   2.742  19.880  0.00  0.00    +0.000 A 
ATOM     10  C   UNL     1       1.219   3.574  20.822  0.00  0.00    +0.000 A 
ATOM     11  C   UNL     1       2.146   4.557  20.411  0.00  0.00    +0.000 A 
ATOM     12  C   UNL     1       2.578   4.609  19.072  0.00  0.00    +0.000 A 
ENDBRANCH   1   3
BRANCH   1  16
ATOM     13  C   UNL     1       0.373   9.938  19.262  0.00  0.00    +0.000 A 
ATOM     14  C   UNL     1       0.874   9.625  17.997  0.00  0.00    +0.000 A 
ATOM     15  C   UNL     1       1.820   8.599  17.852  0.00  0.00    +0.000 A 
ATOM     16  C   UNL     1       2.283   7.862  18.954  0.00  0.00    +0.000 A 
ATOM     17  C   UNL     1       1.713   8.122  20.199  0.00  0.00    +0.000 A 
ATOM     18  C   UNL     1       0.776   9.160  20.345  0.00  0.00    +0.000 A 
BRANCH  13  20
ATOM     19  F   UNL     1      -0.160  12.236  18.777  0.00  0.00    +0.000 F 
ATOM     20  C   UNL     1      -0.530  11.126  19.481  0.00  0.00    +0.000 C 
ATOM     21  F   UNL     1      -0.561  11.517  20.788  0.00  0.00    +0.000 F 
ATOM     22  F   UNL     1      -1.823  10.881  19.136  0.00  0.00    +0.000 F 
ENDBRANCH  13  20
ENDBRANCH   1  16
TORSDOF 3
ENDMDL
MODEL 6
REMARK VINA RESULT:      -7.7      0.876      1.643
REMARK  Name = 
REMARK  3 active torsions:
REMARK  status: ('A' for Active; 'I' for Inactive)
REMARK    1  A    between atoms: C_2  and  C_5
REMARK    2  A    between atoms: C_8  and  N_9
REMARK    3  A    between atoms: N_9  and  C_10
REMARK                            x       y       z     vdW  Elec       q    Type
REMARK                         _______ _______ _______ _____ _____    ______ ____
ROOT
ATOM      1  N   UNL     1       3.174   6.823  20.014  0.00  0.00    +0.000 N 
ATOM      2  H   UNL     1       4.074   7.309  20.032  0.00  0.00    +0.000 HD
ENDROOT
BRANCH   1   3
ATOM      3  C   UNL     1       3.479   5.598  19.414  0.00  0.00    +0.000 A 
ATOM      4  N   UNL     1       4.635   5.638  18.718  0.00  0.00    +0.000 NA
ATOM      5  C   UNL     1       4.899   4.624  17.882  0.00  0.00    +0.000 A 
ATOM      6  C   UNL     1       3.970   3.654  17.573  0.00  0.00    +0.000 A 
ATOM      7  C   UNL     1       2.783   3.614  18.298  0.00  0.00    +0.000 A 
ATOM      8  C   UNL     1       1.768   2.719  17.946  0.00  0.00    +0.000 A 
ATOM      9  C   UNL     1       0.783   2.397  18.864  0.00  0.00    +0.000 A 
ATOM     10  C   UNL     1       0.824   2.958  20.130  0.00  0.00    +0.000 A 
ATOM     11  C   UNL     1       1.702   4.032  20.394  0.00  0.00    +0.000 A 
ATOM     12  C   UNL     1       2.627   4.449  19.417  0.00  0.00    +0.000 A 
ENDBRANCH   1   3
BRANCH   1  16
ATOM     13  C   UNL     1       0.415   9.902  19.011  0.00  0.00    +0.000 A 
ATOM     14  C   UNL     1       1.229   9.311  18.043  0.00  0.00    +0.000 A 
ATOM     15  C   UNL     1       2.087   8.257  18.395  0.00  0.00    +0.000 A 
ATOM     16  C   UNL     1       2.150   7.767  19.710  0.00  0.00    +0.000 A 
ATOM     17  C   UNL     1       1.270   8.304  20.649  0.00  0.00    +0.000 A 
ATOM     18  C   UNL     1       0.423   9.368  20.297  0.00  0.00    +0.000 A 
BRANCH  13  20
ATOM     19  F   UNL     1      -1.204  11.527  19.741  0.00  0.00    +0.000 F 
ATOM     20  C   UNL     1      -0.409  11.128  18.707  0.00  0.00    +0.000 C 
ATOM     21  F   UNL     1      -1.252  10.935  17.652  0.00  0.00    +0.000 F 
ATOM     22  F   UNL     1       0.349  12.210  18.383  0.00  0.00    +0.000 F 
ENDBRANCH  13  20
ENDBRANCH   1  16
TORSDOF 3
ENDMDL
MODEL 7
REMARK VINA RESULT:      -7.6      1.389      2.948
REMARK  Name = 
REMARK  3 active torsions:
REMARK  status: ('A' for Active; 'I' for Inactive)
REMARK    1  A    between atoms: C_2  and  C_5
REMARK    2  A    between atoms: C_8  and  N_9
REMARK    3  A    between atoms: N_9  and  C_10
REMARK                            x       y       z     vdW  Elec       q    Type
REMARK                         _______ _______ _______ _____ _____    ______ ____
ROOT
ATOM      1  N   UNL     1       2.746   6.549  19.662  0.00  0.00    +0.000 N 
ATOM      2  H   UNL     1       3.739   6.746  19.808  0.00  0.00    +0.000 HD
ENDROOT
BRANCH   1   3
ATOM      3  C   UNL     1       2.753   5.554  18.681  0.00  0.00    +0.000 A 
ATOM      4  N   UNL     1       1.837   4.591  18.917  0.00  0.00    +0.000 NA
ATOM      5  C   UNL     1       1.926   3.455  18.211  0.00  0.00    +0.000 A 
ATOM      6  C   UNL     1       3.004   3.164  17.402  0.00  0.00    +0.000 A 
ATOM      7  C   UNL     1       3.940   4.163  17.157  0.00  0.00    +0.000 A 
ATOM      8  C   UNL     1       5.103   3.881  16.434  0.00  0.00    +0.000 A 
ATOM      9  C   UNL     1       5.825   4.912  15.858  0.00  0.00    +0.000 A 
ATOM     10  C   UNL     1       5.375   6.216  15.994  0.00  0.00    +0.000 A 
ATOM     11  C   UNL     1       4.348   6.511  16.917  0.00  0.00    +0.000 A 
ATOM     12  C   UNL     1       3.690   5.471  17.603  0.00  0.00    +0.000 A 
ENDBRANCH   1   3
BRANCH   1  16
ATOM     13  C   UNL     1       0.255   9.990  19.899  0.00  0.00    +0.000 A 
ATOM     14  C   UNL     1       0.456   9.160  21.004  0.00  0.00    +0.000 A 
ATOM     15  C   UNL     1       1.330   8.066  20.909  0.00  0.00    +0.000 A 
ATOM     16  C   UNL     1       2.024   7.777  19.722  0.00  0.00    +0.000 A 
ATOM     17  C   UNL     1       1.885   8.662  18.654  0.00  0.00    +0.000 A 
ATOM     18  C   UNL     1       0.998   9.748  18.746  0.00  0.00    +0.000 A 
BRANCH  13  20
ATOM     19  F   UNL     1      -0.317  12.291  19.479  0.00  0.00    +0.000 F 
ATOM     20  C   UNL     1      -0.783  11.084  19.914  0.00  0.00    +0.000 C 
ATOM     21  F   UNL     1      -1.276  11.312  21.165  0.00  0.00    +0.000 F 
ATOM     22  F   UNL     1      -1.863  10.801  19.135  0.00  0.00    +0.000 F 
ENDBRANCH  13  20
ENDBRANCH   1  16
TORSDOF 3
ENDMDL
MODEL 8
REMARK VINA RESULT:      -7.6      2.469      4.256
REMARK  Name = 
REMARK  3 active torsions:
REMARK  status: ('A' for Active; 'I' for Inactive)
REMARK    1  A    between atoms: C_2  and  C_5
REMARK    2  A    between atoms: C_8  and  N_9
REMARK    3  A    between atoms: N_9  and  C_10
REMARK                            x       y       z     vdW  Elec       q    Type
REMARK                         _______ _______ _______ _____ _____    ______ ____
ROOT
ATOM      1  N   UNL     1       3.837   5.159  19.097  0.00  0.00    +0.000 N 
ATOM      2  H   UNL     1       3.806   4.774  20.043  0.00  0.00    +0.000 HD
ENDROOT
BRANCH   1   3
ATOM      3  C   UNL     1       5.172   4.988  18.720  0.00  0.00    +0.000 A 
ATOM      4  N   UNL     1       6.032   5.290  19.716  0.00  0.00    +0.000 NA
ATOM      5  C   UNL     1       7.328   5.429  19.404  0.00  0.00    +0.000 A 
ATOM      6  C   UNL     1       7.781   5.458  18.103  0.00  0.00    +0.000 A 
ATOM      7  C   UNL     1       6.892   5.139  17.082  0.00  0.00    +0.000 A 
ATOM      8  C   UNL     1       7.277   5.261  15.744  0.00  0.00    +0.000 A 
ATOM      9  C   UNL     1       6.572   4.593  14.758  0.00  0.00    +0.000 A 
ATOM     10  C   UNL     1       5.496   3.796  15.114  0.00  0.00    +0.000 A 
ATOM     11  C   UNL     1       4.970   3.870  16.423  0.00  0.00    +0.000 A 
ATOM     12  C   UNL     1       5.615   4.649  17.403  0.00  0.00    +0.000 A 
ENDBRANCH   1   3
BRANCH   1  16
ATOM     13  C   UNL     1       1.703   8.835  18.907  0.00  0.00    +0.000 A 
ATOM     14  C   UNL     1       2.405   8.343  17.804  0.00  0.00    +0.000 A 
ATOM     15  C   UNL     1       3.049   7.099  17.881  0.00  0.00    +0.000 A 
ATOM     16  C   UNL     1       3.008   6.318  19.048  0.00  0.00    +0.000 A 
ATOM     17  C   UNL     1       2.232   6.777  20.112  0.00  0.00    +0.000 A 
ATOM     18  C   UNL     1       1.599   8.029  20.038  0.00  0.00    +0.000 A 
BRANCH  13  20
ATOM     19  F   UNL     1       1.855  11.133  18.204  0.00  0.00    +0.000 F 
ATOM     20  C   UNL     1       1.123  10.227  18.915  0.00  0.00    +0.000 C 
ATOM     21  F   UNL     1       1.031  10.741  20.176  0.00  0.00    +0.000 F 
ATOM     22  F   UNL     1      -0.135  10.281  18.400  0.00  0.00    +0.000 F 
ENDBRANCH  13  20
ENDBRANCH   1  16
TORSDOF 3
ENDMDL
MODEL 9
REMARK VINA RESULT:      -7.5      5.537      7.662
REMARK  Name = 
REMARK  3 active torsions:
REMARK  status: ('A' for Active; 'I' for Inactive)
REMARK    1  A    between atoms: C_2  and  C_5
REMARK    2  A    between atoms: C_8  and  N_9
REMARK    3  A    between atoms: N_9  and  C_10
REMARK                            x       y       z     vdW  Elec       q    Type
REMARK                         _______ _______ _______ _____ _____    ______ ____
ROOT
ATOM      1  N   UNL     1       5.178   4.610  17.757  0.00  0.00    +0.000 N 
ATOM      2  H   UNL     1       5.324   3.678  18.153  0.00  0.00    +0.000 HD
ENDROOT
BRANCH   1   3
ATOM      3  C   UNL     1       3.980   5.028  18.342  0.00  0.00    +0.000 A 
ATOM      4  N   UNL     1       3.870   6.373  18.386  0.00  0.00    +0.000 NA
ATOM      5  C   UNL     1       2.908   6.898  19.158  0.00  0.00    +0.000 A 
ATOM      6  C   UNL     1       2.162   6.140  20.035  0.00  0.00    +0.000 A 
ATOM      7  C   UNL     1       2.274   4.755  19.980  0.00  0.00    +0.000 A 
ATOM      8  C   UNL     1       1.622   3.953  20.921  0.00  0.00    +0.000 A 
ATOM      9  C   UNL     1       1.403   2.613  20.653  0.00  0.00    +0.000 A 
ATOM     10  C   UNL     1       1.825   2.084  19.444  0.00  0.00    +0.000 A 
ATOM     11  C   UNL     1       2.687   2.832  18.613  0.00  0.00    +0.000 A 
ATOM     12  C   UNL     1       3.015   4.161  18.944  0.00  0.00    +0.000 A 
ENDBRANCH   1   3
BRANCH   1  16
ATOM     13  C   UNL     1       6.252   4.165  13.664  0.00  0.00    +0.000 A 
ATOM     14  C   UNL     1       4.921   4.087  14.080  0.00  0.00    +0.000 A 
ATOM     15  C   UNL     1       4.594   4.297  15.428  0.00  0.00    +0.000 A 
ATOM     16  C   UNL     1       5.577   4.591  16.388  0.00  0.00    +0.000 A 
ATOM     17  C   UNL     1       6.889   4.754  15.948  0.00  0.00    +0.000 A 
ATOM     18  C   UNL     1       7.217   4.530  14.600  0.00  0.00    +0.000 A 
BRANCH  13  20
ATOM     19  F   UNL     1       7.519   4.699  11.687  0.00  0.00    +0.000 F 
ATOM     20  C   UNL     1       6.662   3.803  12.258  0.00  0.00    +0.000 C 
ATOM     21  F   UNL     1       5.594   3.730  11.412  0.00  0.00    +0.000 F 
ATOM     22  F   UNL     1       7.281   2.594  12.180  0.00  0.00    +0.000 F 
ENDBRANCH  13  20
ENDBRANCH   1  16
TORSDOF 3
ENDMDL
