MODEL 1
REMARK VINA RESULT:      -7.3      0.000      0.000
REMARK  Name = 
REMARK  9 active torsions:
REMARK  status: ('A' for Active; 'I' for Inactive)
REMARK    1  A    between atoms: N_1  and  C_2
REMARK    2  A    between atoms: C_2  and  C_3
REMARK    3  A    between atoms: C_5  and  C_6
REMARK    4  A    between atoms: N_9  and  C_10
REMARK    5  A    between atoms: C_12  and  C_13
REMARK    6  A    between atoms: C_13  and  O_14
REMARK    7  A    between atoms: C_15  and  O_16
REMARK    8  A    between atoms: C_17  and  O_18
REMARK    9  A    between atoms: C_19  and  O_20
REMARK                            x       y       z     vdW  Elec       q    Type
REMARK                         _______ _______ _______ _____ _____    ______ ____
ROOT
ATOM      1  C   UNL     1       4.415   4.578  18.953  0.00  0.00    +0.000 C 
ATOM      2  O   UNL     1       5.567   5.385  19.275  0.00  0.00    +0.000 OA
ATOM      3  C   UNL     1       6.774   4.894  18.680  0.00  0.00    +0.000 C 
ATOM      4  C   UNL     1       6.674   4.936  17.150  0.00  0.00    +0.000 C 
ATOM      5  C   UNL     1       5.452   4.126  16.690  0.00  0.00    +0.000 C 
ATOM      6  C   UNL     1       4.162   4.516  17.432  0.00  0.00    +0.000 C 
ENDROOT
BRANCH   1  10
ATOM      7  C   UNL     1       1.964   6.719  20.314  0.00  0.00    +0.000 A 
ATOM      8  C   UNL     1       1.501   5.529  20.912  0.00  0.00    +0.000 A 
ATOM      9  C   UNL     1       2.364   4.522  20.506  0.00  0.00    +0.000 A 
ATOM     10  N   UNL     1       3.260   5.152  19.663  0.00  0.00    +0.000 N 
ATOM     11  N   UNL     1       3.036   6.492  19.548  0.00  0.00    +0.000 NA
BRANCH   9  12
ATOM     12  C   UNL     1       2.348   3.117  20.848  0.00  0.00    +0.000 C 
ATOM     13  N   UNL     1       1.928   2.280  19.865  0.00  0.00    +0.000 N 
ATOM     14  O   UNL     1       2.661   2.668  21.937  0.00  0.00    +0.000 OA
ATOM     15  H   UNL     1       1.543   2.598  18.981  0.00  0.00    +0.000 HD
ATOM     16  H   UNL     1       1.842   1.296  20.084  0.00  0.00    +0.000 HD
ENDBRANCH   9  12
BRANCH   7  17
ATOM     17  C   UNL     1       1.409   8.093  20.490  0.00  0.00    +0.000 C 
BRANCH  17  18
ATOM     18  N   UNL     1       1.622   8.512  21.879  0.00  0.00    +0.000 NA
ATOM     19  H   UNL     1       1.776   9.517  21.894  0.00  0.00    +0.000 HD
ATOM     20  H   UNL     1       2.494   8.087  22.196  0.00  0.00    +0.000 HD
ENDBRANCH  17  18
ENDBRANCH   7  17
ENDBRANCH   1  10
BRANCH   4  21
ATOM     21  O   UNL     1       7.879   4.400  16.592  0.00  0.00    +0.000 OA
ATOM     22  H   UNL     1       8.575   5.082  16.629  0.00  0.00    +0.000 HD
ENDBRANCH   4  21
BRANCH   5  23
ATOM     23  O   UNL     1       5.302   4.262  15.268  0.00  0.00    +0.000 OA
ATOM     24  H   UNL     1       5.833   3.566  14.835  0.00  0.00    +0.000 HD
ENDBRANCH   5  23
BRANCH   6  25
ATOM     25  O   UNL     1       3.120   3.577  17.102  0.00  0.00    +0.000 OA
ATOM     26  H   UNL     1       3.411   3.029  16.349  0.00  0.00    +0.000 HD
ENDBRANCH   6  25
BRANCH   3  27
ATOM     27  C   UNL     1       7.941   5.750  19.197  0.00  0.00    +0.000 C 
BRANCH  27  28
ATOM     28  O   UNL     1       8.194   5.504  20.570  0.00  0.00    +0.000 OA
ATOM     29  H   UNL     1       7.898   4.587  20.744  0.00  0.00    +0.000 HD
ENDBRANCH  27  28
ENDBRANCH   3  27
TORSDOF 9
ENDMDL
MODEL 2
REMARK VINA RESULT:      -6.9      2.722      5.570
REMARK  Name = 
REMARK  9 active torsions:
REMARK  status: ('A' for Active; 'I' for Inactive)
REMARK    1  A    between atoms: N_1  and  C_2
REMARK    2  A    between atoms: C_2  and  C_3
REMARK    3  A    between atoms: C_5  and  C_6
REMARK    4  A    between atoms: N_9  and  C_10
REMARK    5  A    between atoms: C_12  and  C_13
REMARK    6  A    between atoms: C_13  and  O_14
REMARK    7  A    between atoms: C_15  and  O_16
REMARK    8  A    between atoms: C_17  and  O_18
REMARK    9  A    between atoms: C_19  and  O_20
REMARK                            x       y       z     vdW  Elec       q    Type
REMARK                         _______ _______ _______ _____ _____    ______ ____
ROOT
ATOM      1  C   UNL     1       4.000   4.718  18.244  0.00  0.00    +0.000 C 
ATOM      2  O   UNL     1       3.454   5.336  19.427  0.00  0.00    +0.000 OA
ATOM      3  C   UNL     1       2.077   5.007  19.642  0.00  0.00    +0.000 C 
ATOM      4  C   UNL     1       1.913   3.500  19.869  0.00  0.00    +0.000 C 
ATOM      5  C   UNL     1       2.493   2.731  18.671  0.00  0.00    +0.000 C 
ATOM      6  C   UNL     1       3.919   3.178  18.308  0.00  0.00    +0.000 C 
ENDROOT
BRANCH   1  10
ATOM      7  C   UNL     1       7.347   5.681  18.804  0.00  0.00    +0.000 A 
ATOM      8  C   UNL     1       7.320   5.956  17.421  0.00  0.00    +0.000 A 
ATOM      9  C   UNL     1       6.041   5.651  16.983  0.00  0.00    +0.000 A 
ATOM     10  N   UNL     1       5.393   5.174  18.108  0.00  0.00    +0.000 N 
ATOM     11  N   UNL     1       6.173   5.200  19.226  0.00  0.00    +0.000 NA
BRANCH   9  12
ATOM     12  C   UNL     1       5.481   5.769  15.655  0.00  0.00    +0.000 C 
ATOM     13  N   UNL     1       5.435   4.619  14.935  0.00  0.00    +0.000 N 
ATOM     14  O   UNL     1       5.084   6.811  15.164  0.00  0.00    +0.000 OA
ATOM     15  H   UNL     1       5.856   3.747  15.239  0.00  0.00    +0.000 HD
ATOM     16  H   UNL     1       5.109   4.671  13.978  0.00  0.00    +0.000 HD
ENDBRANCH   9  12
BRANCH   7  17
ATOM     17  C   UNL     1       8.483   5.902  19.747  0.00  0.00    +0.000 C 
BRANCH  17  18
ATOM     18  N   UNL     1       8.185   5.219  21.010  0.00  0.00    +0.000 NA
ATOM     19  H   UNL     1       8.862   5.518  21.706  0.00  0.00    +0.000 HD
ATOM     20  H   UNL     1       8.350   4.223  20.864  0.00  0.00    +0.000 HD
ENDBRANCH  17  18
ENDBRANCH   7  17
ENDBRANCH   1  10
BRANCH   4  21
ATOM     21  O   UNL     1       0.522   3.204  20.038  0.00  0.00    +0.000 OA
ATOM     22  H   UNL     1       0.110   3.915  20.563  0.00  0.00    +0.000 HD
ENDBRANCH   4  21
BRANCH   5  23
ATOM     23  O   UNL     1       2.437   1.322  18.941  0.00  0.00    +0.000 OA
ATOM     24  H   UNL     1       3.338   0.957  18.855  0.00  0.00    +0.000 HD
ENDBRANCH   5  23
BRANCH   6  25
ATOM     25  O   UNL     1       4.306   2.571  17.060  0.00  0.00    +0.000 OA
ATOM     26  H   UNL     1       3.518   2.482  16.490  0.00  0.00    +0.000 HD
ENDBRANCH   6  25
BRANCH   3  27
ATOM     27  C   UNL     1       1.576   5.821  20.846  0.00  0.00    +0.000 C 
BRANCH  27  28
ATOM     28  O   UNL     1       1.995   7.173  20.766  0.00  0.00    +0.000 OA
ATOM     29  H   UNL     1       1.183   7.716  20.821  0.00  0.00    +0.000 HD
ENDBRANCH  27  28
ENDBRANCH   3  27
TORSDOF 9
ENDMDL
MODEL 3
REMARK VINA RESULT:      -6.8      1.872      4.055
REMARK  Name = 
REMARK  9 active torsions:
REMARK  status: ('A' for Active; 'I' for Inactive)
REMARK    1  A    between atoms: N_1  and  C_2
REMARK    2  A    between atoms: C_2  and  C_3
REMARK    3  A    between atoms: C_5  and  C_6
REMARK    4  A    between atoms: N_9  and  C_10
REMARK    5  A    between atoms: C_12  and  C_13
REMARK    6  A    between atoms: C_13  and  O_14
REMARK    7  A    between atoms: C_15  and  O_16
REMARK    8  A    between atoms: C_17  and  O_18
REMARK    9  A    between atoms: C_19  and  O_20
REMARK                            x       y       z     vdW  Elec       q    Type
REMARK                         _______ _______ _______ _____ _____    ______ ____
ROOT
ATOM      1  C   UNL     1       4.862   5.278  17.966  0.00  0.00    +0.000 C 
ATOM      2  O   UNL     1       4.567   4.781  16.645  0.00  0.00    +0.000 OA
ATOM      3  C   UNL     1       5.609   5.058  15.701  0.00  0.00    +0.000 C 
ATOM      4  C   UNL     1       6.907   4.352  16.111  0.00  0.00    +0.000 C 
ATOM      5  C   UNL     1       7.305   4.787  17.531  0.00  0.00    +0.000 C 
ATOM      6  C   UNL     1       6.153   4.658  18.541  0.00  0.00    +0.000 C 
ENDROOT
BRANCH   1  10
ATOM      7  C   UNL     1       2.418   3.737  19.989  0.00  0.00    +0.000 A 
ATOM      8  C   UNL     1       1.839   5.023  19.973  0.00  0.00    +0.000 A 
ATOM      9  C   UNL     1       2.662   5.817  19.190  0.00  0.00    +0.000 A 
ATOM     10  N   UNL     1       3.701   4.981  18.821  0.00  0.00    +0.000 N 
ATOM     11  N   UNL     1       3.556   3.709  19.289  0.00  0.00    +0.000 NA
BRANCH   9  12
ATOM     12  C   UNL     1       2.515   7.211  18.837  0.00  0.00    +0.000 C 
ATOM     13  N   UNL     1       1.951   8.000  19.787  0.00  0.00    +0.000 N 
ATOM     14  O   UNL     1       2.842   7.689  17.764  0.00  0.00    +0.000 OA
ATOM     15  H   UNL     1       1.551   7.643  20.649  0.00  0.00    +0.000 HD
ATOM     16  H   UNL     1       1.772   8.968  19.555  0.00  0.00    +0.000 HD
ENDBRANCH   9  12
BRANCH   7  17
ATOM     17  C   UNL     1       1.877   2.511  20.647  0.00  0.00    +0.000 C 
BRANCH  17  18
ATOM     18  N   UNL     1       2.026   2.652  22.099  0.00  0.00    +0.000 NA
ATOM     19  H   UNL     1       2.623   1.902  22.437  0.00  0.00    +0.000 HD
ATOM     20  H   UNL     1       1.108   2.492  22.517  0.00  0.00    +0.000 HD
ENDBRANCH  17  18
ENDBRANCH   7  17
ENDBRANCH   1  10
BRANCH   4  21
ATOM     21  O   UNL     1       7.934   4.684  15.170  0.00  0.00    +0.000 OA
ATOM     22  H   UNL     1       7.522   4.859  14.304  0.00  0.00    +0.000 HD
ENDBRANCH   4  21
BRANCH   5  23
ATOM     23  O   UNL     1       8.457   4.039  17.949  0.00  0.00    +0.000 OA
ATOM     24  H   UNL     1       8.570   3.283  17.341  0.00  0.00    +0.000 HD
ENDBRANCH   5  23
BRANCH   6  25
ATOM     25  O   UNL     1       6.536   5.279  19.783  0.00  0.00    +0.000 OA
ATOM     26  H   UNL     1       5.733   5.507  20.288  0.00  0.00    +0.000 HD
ENDBRANCH   6  25
BRANCH   3  27
ATOM     27  C   UNL     1       5.128   4.601  14.314  0.00  0.00    +0.000 C 
BRANCH  27  28
ATOM     28  O   UNL     1       5.900   3.514  13.831  0.00  0.00    +0.000 OA
ATOM     29  H   UNL     1       5.296   2.747  13.786  0.00  0.00    +0.000 HD
ENDBRANCH  27  28
ENDBRANCH   3  27
TORSDOF 9
ENDMDL
MODEL 4
REMARK VINA RESULT:      -6.8      1.082      1.082
REMARK  Name = 
REMARK  9 active torsions:
REMARK  status: ('A' for Active; 'I' for Inactive)
REMARK    1  A    between atoms: N_1  and  C_2
REMARK    2  A    between atoms: C_2  and  C_3
REMARK    3  A    between atoms: C_5  and  C_6
REMARK    4  A    between atoms: N_9  and  C_10
REMARK    5  A    between atoms: C_12  and  C_13
REMARK    6  A    between atoms: C_13  and  O_14
REMARK    7  A    between atoms: C_15  and  O_16
REMARK    8  A    between atoms: C_17  and  O_18
REMARK    9  A    between atoms: C_19  and  O_20
REMARK                            x       y       z     vdW  Elec       q    Type
REMARK                         _______ _______ _______ _____ _____    ______ ____
ROOT
ATOM      1  C   UNL     1       4.423   4.592  18.883  0.00  0.00    +0.000 C 
ATOM      2  O   UNL     1       5.541   5.455  19.175  0.00  0.00    +0.000 OA
ATOM      3  C   UNL     1       6.763   5.003  18.580  0.00  0.00    +0.000 C 
ATOM      4  C   UNL     1       6.649   5.003  17.051  0.00  0.00    +0.000 C 
ATOM      5  C   UNL     1       5.459   4.130  16.622  0.00  0.00    +0.000 C 
ATOM      6  C   UNL     1       4.160   4.482  17.366  0.00  0.00    +0.000 C 
ENDROOT
BRANCH   1  10
ATOM      7  C   UNL     1       1.957   6.669  20.314  0.00  0.00    +0.000 A 
ATOM      8  C   UNL     1       1.446   5.446  20.792  0.00  0.00    +0.000 A 
ATOM      9  C   UNL     1       2.306   4.456  20.341  0.00  0.00    +0.000 A 
ATOM     10  N   UNL     1       3.250   5.132  19.590  0.00  0.00    +0.000 N 
ATOM     11  N   UNL     1       3.057   6.482  19.577  0.00  0.00    +0.000 NA
BRANCH   9  12
ATOM     12  C   UNL     1       2.248   3.028  20.564  0.00  0.00    +0.000 C 
ATOM     13  N   UNL     1       2.352   2.633  21.859  0.00  0.00    +0.000 N 
ATOM     14  O   UNL     1       2.135   2.196  19.680  0.00  0.00    +0.000 OA
ATOM     15  H   UNL     1       2.566   3.264  22.624  0.00  0.00    +0.000 HD
ATOM     16  H   UNL     1       2.380   1.641  22.051  0.00  0.00    +0.000 HD
ENDBRANCH   9  12
BRANCH   7  17
ATOM     17  C   UNL     1       1.422   8.037  20.580  0.00  0.00    +0.000 C 
BRANCH  17  18
ATOM     18  N   UNL     1       1.510   8.825  19.347  0.00  0.00    +0.000 NA
ATOM     19  H   UNL     1       2.088   8.319  18.681  0.00  0.00    +0.000 HD
ATOM     20  H   UNL     1       2.018   9.682  19.568  0.00  0.00    +0.000 HD
ENDBRANCH  17  18
ENDBRANCH   7  17
ENDBRANCH   1  10
BRANCH   4  21
ATOM     21  O   UNL     1       7.871   4.507  16.494  0.00  0.00    +0.000 OA
ATOM     22  H   UNL     1       8.610   4.762  17.077  0.00  0.00    +0.000 HD
ENDBRANCH   4  21
BRANCH   5  23
ATOM     23  O   UNL     1       5.292   4.225  15.199  0.00  0.00    +0.000 OA
ATOM     24  H   UNL     1       5.678   5.070  14.900  0.00  0.00    +0.000 HD
ENDBRANCH   5  23
BRANCH   6  25
ATOM     25  O   UNL     1       3.157   3.491  17.069  0.00  0.00    +0.000 OA
ATOM     26  H   UNL     1       2.820   3.639  16.165  0.00  0.00    +0.000 HD
ENDBRANCH   6  25
BRANCH   3  27
ATOM     27  C   UNL     1       7.896   5.921  19.065  0.00  0.00    +0.000 C 
BRANCH  27  28
ATOM     28  O   UNL     1       7.990   7.091  18.269  0.00  0.00    +0.000 OA
ATOM     29  H   UNL     1       8.034   7.844  18.892  0.00  0.00    +0.000 HD
ENDBRANCH  27  28
ENDBRANCH   3  27
TORSDOF 9
ENDMDL
MODEL 5
REMARK VINA RESULT:      -6.8      1.871      4.221
REMARK  Name = 
REMARK  9 active torsions:
REMARK  status: ('A' for Active; 'I' for Inactive)
REMARK    1  A    between atoms: N_1  and  C_2
REMARK    2  A    between atoms: C_2  and  C_3
REMARK    3  A    between atoms: C_5  and  C_6
REMARK    4  A    between atoms: N_9  and  C_10
REMARK    5  A    between atoms: C_12  and  C_13
REMARK    6  A    between atoms: C_13  and  O_14
REMARK    7  A    between atoms: C_15  and  O_16
REMARK    8  A    between atoms: C_17  and  O_18
REMARK    9  A    between atoms: C_19  and  O_20
REMARK                            x       y       z     vdW  Elec       q    Type
REMARK                         _______ _______ _______ _____ _____    ______ ____
ROOT
ATOM      1  C   UNL     1       4.711   5.071  17.682  0.00  0.00    +0.000 C 
ATOM      2  O   UNL     1       4.552   4.582  16.334  0.00  0.00    +0.000 OA
ATOM      3  C   UNL     1       5.636   4.956  15.476  0.00  0.00    +0.000 C 
ATOM      4  C   UNL     1       6.950   4.340  15.970  0.00  0.00    +0.000 C 
ATOM      5  C   UNL     1       7.209   4.773  17.422  0.00  0.00    +0.000 C 
ATOM      6  C   UNL     1       6.000   4.536  18.342  0.00  0.00    +0.000 C 
ENDROOT
BRANCH   1  10
ATOM      7  C   UNL     1       2.086   3.291  19.226  0.00  0.00    +0.000 A 
ATOM      8  C   UNL     1       1.664   4.580  19.608  0.00  0.00    +0.000 A 
ATOM      9  C   UNL     1       2.582   5.471  19.072  0.00  0.00    +0.000 A 
ATOM     10  N   UNL     1       3.516   4.669  18.443  0.00  0.00    +0.000 N 
ATOM     11  N   UNL     1       3.218   3.341  18.517  0.00  0.00    +0.000 NA
BRANCH   9  12
ATOM     12  C   UNL     1       2.604   6.915  19.153  0.00  0.00    +0.000 C 
ATOM     13  N   UNL     1       2.247   7.440  20.353  0.00  0.00    +0.000 N 
ATOM     14  O   UNL     1       2.896   7.652  18.228  0.00  0.00    +0.000 OA
ATOM     15  H   UNL     1       1.881   6.888  21.122  0.00  0.00    +0.000 HD
ATOM     16  H   UNL     1       2.189   8.446  20.431  0.00  0.00    +0.000 HD
ENDBRANCH   9  12
BRANCH   7  17
ATOM     17  C   UNL     1       1.398   1.996  19.506  0.00  0.00    +0.000 C 
BRANCH  17  18
ATOM     18  N   UNL     1       0.377   1.774  18.478  0.00  0.00    +0.000 NA
ATOM     19  H   UNL     1      -0.473   1.449  18.930  0.00  0.00    +0.000 HD
ATOM     20  H   UNL     1       0.697   1.003  17.891  0.00  0.00    +0.000 HD
ENDBRANCH  17  18
ENDBRANCH   7  17
ENDBRANCH   1  10
BRANCH   4  21
ATOM     21  O   UNL     1       8.015   4.769  15.114  0.00  0.00    +0.000 OA
ATOM     22  H   UNL     1       7.748   5.594  14.669  0.00  0.00    +0.000 HD
ENDBRANCH   4  21
BRANCH   5  23
ATOM     23  O   UNL     1       8.382   4.104  17.913  0.00  0.00    +0.000 OA
ATOM     24  H   UNL     1       8.162   3.690  18.770  0.00  0.00    +0.000 HD
ENDBRANCH   5  23
BRANCH   6  25
ATOM     25  O   UNL     1       6.243   5.157  19.619  0.00  0.00    +0.000 OA
ATOM     26  H   UNL     1       5.426   5.598  19.920  0.00  0.00    +0.000 HD
ENDBRANCH   6  25
BRANCH   3  27
ATOM     27  C   UNL     1       5.294   4.496  14.050  0.00  0.00    +0.000 C 
BRANCH  27  28
ATOM     28  O   UNL     1       6.138   3.436  13.633  0.00  0.00    +0.000 OA
ATOM     29  H   UNL     1       5.550   2.684  13.419  0.00  0.00    +0.000 HD
ENDBRANCH  27  28
ENDBRANCH   3  27
TORSDOF 9
ENDMDL
MODEL 6
REMARK VINA RESULT:      -6.8      1.506      3.027
REMARK  Name = 
REMARK  9 active torsions:
REMARK  status: ('A' for Active; 'I' for Inactive)
REMARK    1  A    between atoms: N_1  and  C_2
REMARK    2  A    between atoms: C_2  and  C_3
REMARK    3  A    between atoms: C_5  and  C_6
REMARK    4  A    between atoms: N_9  and  C_10
REMARK    5  A    between atoms: C_12  and  C_13
REMARK    6  A    between atoms: C_13  and  O_14
REMARK    7  A    between atoms: C_15  and  O_16
REMARK    8  A    between atoms: C_17  and  O_18
REMARK    9  A    between atoms: C_19  and  O_20
REMARK                            x       y       z     vdW  Elec       q    Type
REMARK                         _______ _______ _______ _____ _____    ______ ____
ROOT
ATOM      1  C   UNL     1       5.014   5.350  18.095  0.00  0.00    +0.000 C 
ATOM      2  O   UNL     1       4.647   4.823  16.803  0.00  0.00    +0.000 OA
ATOM      3  C   UNL     1       5.644   5.059  15.802  0.00  0.00    +0.000 C 
ATOM      4  C   UNL     1       6.951   4.346  16.167  0.00  0.00    +0.000 C 
ATOM      5  C   UNL     1       7.425   4.813  17.552  0.00  0.00    +0.000 C 
ATOM      6  C   UNL     1       6.324   4.727  18.622  0.00  0.00    +0.000 C 
ENDROOT
BRANCH   1  10
ATOM      7  C   UNL     1       2.232   5.620  20.247  0.00  0.00    +0.000 A 
ATOM      8  C   UNL     1       2.422   4.231  20.388  0.00  0.00    +0.000 A 
ATOM      9  C   UNL     1       3.519   3.900  19.607  0.00  0.00    +0.000 A 
ATOM     10  N   UNL     1       3.893   5.092  19.014  0.00  0.00    +0.000 N 
ATOM     11  N   UNL     1       3.126   6.149  19.406  0.00  0.00    +0.000 NA
BRANCH   9  12
ATOM     12  C   UNL     1       4.143   2.611  19.413  0.00  0.00    +0.000 C 
ATOM     13  N   UNL     1       3.905   2.019  18.215  0.00  0.00    +0.000 N 
ATOM     14  O   UNL     1       4.829   2.044  20.247  0.00  0.00    +0.000 OA
ATOM     15  H   UNL     1       3.251   2.381  17.529  0.00  0.00    +0.000 HD
ATOM     16  H   UNL     1       4.271   1.088  18.065  0.00  0.00    +0.000 HD
ENDBRANCH   9  12
BRANCH   7  17
ATOM     17  C   UNL     1       1.214   6.468  20.935  0.00  0.00    +0.000 C 
BRANCH  17  18
ATOM     18  N   UNL     1       1.791   7.794  21.175  0.00  0.00    +0.000 NA
ATOM     19  H   UNL     1       1.379   8.177  22.022  0.00  0.00    +0.000 HD
ATOM     20  H   UNL     1       1.487   8.401  20.413  0.00  0.00    +0.000 HD
ENDBRANCH  17  18
ENDBRANCH   7  17
ENDBRANCH   1  10
BRANCH   4  21
ATOM     21  O   UNL     1       7.934   4.639  15.167  0.00  0.00    +0.000 OA
ATOM     22  H   UNL     1       7.535   5.219  14.493  0.00  0.00    +0.000 HD
ENDBRANCH   4  21
BRANCH   5  23
ATOM     23  O   UNL     1       8.588   4.060  17.933  0.00  0.00    +0.000 OA
ATOM     24  H   UNL     1       9.375   4.498  17.555  0.00  0.00    +0.000 HD
ENDBRANCH   5  23
BRANCH   6  25
ATOM     25  O   UNL     1       6.777   5.375  19.826  0.00  0.00    +0.000 OA
ATOM     26  H   UNL     1       7.163   6.241  19.596  0.00  0.00    +0.000 HD
ENDBRANCH   6  25
BRANCH   3  27
ATOM     27  C   UNL     1       5.088   4.573  14.454  0.00  0.00    +0.000 C 
BRANCH  27  28
ATOM     28  O   UNL     1       5.827   3.468  13.959  0.00  0.00    +0.000 OA
ATOM     29  H   UNL     1       5.300   2.671  14.167  0.00  0.00    +0.000 HD
ENDBRANCH  27  28
ENDBRANCH   3  27
TORSDOF 9
ENDMDL
MODEL 7
REMARK VINA RESULT:      -6.7      1.757      2.102
REMARK  Name = 
REMARK  9 active torsions:
REMARK  status: ('A' for Active; 'I' for Inactive)
REMARK    1  A    between atoms: N_1  and  C_2
REMARK    2  A    between atoms: C_2  and  C_3
REMARK    3  A    between atoms: C_5  and  C_6
REMARK    4  A    between atoms: N_9  and  C_10
REMARK    5  A    between atoms: C_12  and  C_13
REMARK    6  A    between atoms: C_13  and  O_14
REMARK    7  A    between atoms: C_15  and  O_16
REMARK    8  A    between atoms: C_17  and  O_18
REMARK    9  A    between atoms: C_19  and  O_20
REMARK                            x       y       z     vdW  Elec       q    Type
REMARK                         _______ _______ _______ _____ _____    ______ ____
ROOT
ATOM      1  C   UNL     1       5.342   4.181  18.324  0.00  0.00    +0.000 C 
ATOM      2  O   UNL     1       5.915   5.497  18.465  0.00  0.00    +0.000 OA
ATOM      3  C   UNL     1       7.040   5.709  17.604  0.00  0.00    +0.000 C 
ATOM      4  C   UNL     1       6.616   5.616  16.133  0.00  0.00    +0.000 C 
ATOM      5  C   UNL     1       5.958   4.252  15.871  0.00  0.00    +0.000 C 
ATOM      6  C   UNL     1       4.851   3.917  16.884  0.00  0.00    +0.000 C 
ENDROOT
BRANCH   1  10
ATOM      7  C   UNL     1       2.544   4.764  20.392  0.00  0.00    +0.000 A 
ATOM      8  C   UNL     1       2.823   3.460  20.848  0.00  0.00    +0.000 A 
ATOM      9  C   UNL     1       3.941   3.029  20.150  0.00  0.00    +0.000 A 
ATOM     10  N   UNL     1       4.238   4.072  19.292  0.00  0.00    +0.000 N 
ATOM     11  N   UNL     1       3.404   5.140  19.439  0.00  0.00    +0.000 NA
BRANCH   9  12
ATOM     12  C   UNL     1       4.648   1.771  20.251  0.00  0.00    +0.000 C 
ATOM     13  N   UNL     1       4.493   0.926  19.200  0.00  0.00    +0.000 N 
ATOM     14  O   UNL     1       5.333   1.440  21.204  0.00  0.00    +0.000 OA
ATOM     15  H   UNL     1       3.846   1.091  18.436  0.00  0.00    +0.000 HD
ATOM     16  H   UNL     1       4.919   0.011  19.261  0.00  0.00    +0.000 HD
ENDBRANCH   9  12
BRANCH   7  17
ATOM     17  C   UNL     1       1.472   5.682  20.879  0.00  0.00    +0.000 C 
BRANCH  17  18
ATOM     18  N   UNL     1       1.949   7.064  20.767  0.00  0.00    +0.000 NA
ATOM     19  H   UNL     1       2.539   7.269  21.569  0.00  0.00    +0.000 HD
ATOM     20  H   UNL     1       1.136   7.675  20.851  0.00  0.00    +0.000 HD
ENDBRANCH  17  18
ENDBRANCH   7  17
ENDBRANCH   1  10
BRANCH   4  21
ATOM     21  O   UNL     1       7.771   5.791  15.305  0.00  0.00    +0.000 OA
ATOM     22  H   UNL     1       7.510   6.268  14.497  0.00  0.00    +0.000 HD
ENDBRANCH   4  21
BRANCH   5  23
ATOM     23  O   UNL     1       5.465   4.215  14.523  0.00  0.00    +0.000 OA
ATOM     24  H   UNL     1       5.912   4.918  14.013  0.00  0.00    +0.000 HD
ENDBRANCH   5  23
BRANCH   6  25
ATOM     25  O   UNL     1       4.436   2.549  16.704  0.00  0.00    +0.000 OA
ATOM     26  H   UNL     1       3.646   2.380  17.250  0.00  0.00    +0.000 HD
ENDBRANCH   6  25
BRANCH   3  27
ATOM     27  C   UNL     1       7.640   7.085  17.936  0.00  0.00    +0.000 C 
BRANCH  27  28
ATOM     28  O   UNL     1       7.277   8.054  16.967  0.00  0.00    +0.000 OA
ATOM     29  H   UNL     1       6.302   8.023  16.900  0.00  0.00    +0.000 HD
ENDBRANCH  27  28
ENDBRANCH   3  27
TORSDOF 9
ENDMDL
MODEL 8
REMARK VINA RESULT:      -6.5      2.984      5.782
REMARK  Name = 
REMARK  9 active torsions:
REMARK  status: ('A' for Active; 'I' for Inactive)
REMARK    1  A    between atoms: N_1  and  C_2
REMARK    2  A    between atoms: C_2  and  C_3
REMARK    3  A    between atoms: C_5  and  C_6
REMARK    4  A    between atoms: N_9  and  C_10
REMARK    5  A    between atoms: C_12  and  C_13
REMARK    6  A    between atoms: C_13  and  O_14
REMARK    7  A    between atoms: C_15  and  O_16
REMARK    8  A    between atoms: C_17  and  O_18
REMARK    9  A    between atoms: C_19  and  O_20
REMARK                            x       y       z     vdW  Elec       q    Type
REMARK                         _______ _______ _______ _____ _____    ______ ____
ROOT
ATOM      1  C   UNL     1       4.816   4.483  18.671  0.00  0.00    +0.000 C 
ATOM      2  O   UNL     1       5.120   3.136  19.087  0.00  0.00    +0.000 OA
ATOM      3  C   UNL     1       4.261   2.669  20.134  0.00  0.00    +0.000 C 
ATOM      4  C   UNL     1       2.806   2.618  19.653  0.00  0.00    +0.000 C 
ATOM      5  C   UNL     1       2.378   4.007  19.153  0.00  0.00    +0.000 C 
ATOM      6  C   UNL     1       3.370   4.612  18.145  0.00  0.00    +0.000 C 
ENDROOT
BRANCH   1  10
ATOM      7  C   UNL     1       6.582   4.967  15.656  0.00  0.00    +0.000 A 
ATOM      8  C   UNL     1       7.533   5.564  16.508  0.00  0.00    +0.000 A 
ATOM      9  C   UNL     1       7.028   5.465  17.795  0.00  0.00    +0.000 A 
ATOM     10  N   UNL     1       5.794   4.860  17.638  0.00  0.00    +0.000 N 
ATOM     11  N   UNL     1       5.517   4.539  16.342  0.00  0.00    +0.000 NA
BRANCH   9  12
ATOM     12  C   UNL     1       7.616   5.905  19.041  0.00  0.00    +0.000 C 
ATOM     13  N   UNL     1       8.350   7.046  18.972  0.00  0.00    +0.000 N 
ATOM     14  O   UNL     1       7.505   5.315  20.102  0.00  0.00    +0.000 OA
ATOM     15  H   UNL     1       8.577   7.516  18.102  0.00  0.00    +0.000 HD
ATOM     16  H   UNL     1       8.830   7.352  19.808  0.00  0.00    +0.000 HD
ENDBRANCH   9  12
BRANCH   7  17
ATOM     17  C   UNL     1       6.689   4.770  14.180  0.00  0.00    +0.000 C 
BRANCH  17  18
ATOM     18  N   UNL     1       6.248   3.410  13.855  0.00  0.00    +0.000 NA
ATOM     19  H   UNL     1       5.441   3.185  14.430  0.00  0.00    +0.000 HD
ATOM     20  H   UNL     1       6.989   2.772  14.145  0.00  0.00    +0.000 HD
ENDBRANCH  17  18
ENDBRANCH   7  17
ENDBRANCH   1  10
BRANCH   4  21
ATOM     21  O   UNL     1       1.974   2.189  20.737  0.00  0.00    +0.000 OA
ATOM     22  H   UNL     1       1.656   2.973  21.220  0.00  0.00    +0.000 HD
ENDBRANCH   4  21
BRANCH   5  23
ATOM     23  O   UNL     1       1.054   3.925  18.603  0.00  0.00    +0.000 OA
ATOM     24  H   UNL     1       1.131   3.761  17.643  0.00  0.00    +0.000 HD
ENDBRANCH   5  23
BRANCH   6  25
ATOM     25  O   UNL     1       3.015   5.985  17.892  0.00  0.00    +0.000 OA
ATOM     26  H   UNL     1       3.456   6.556  18.549  0.00  0.00    +0.000 HD
ENDBRANCH   6  25
BRANCH   3  27
ATOM     27  C   UNL     1       4.762   1.286  20.578  0.00  0.00    +0.000 C 
BRANCH  27  28
ATOM     28  O   UNL     1       5.653   1.387  21.677  0.00  0.00    +0.000 OA
ATOM     29  H   UNL     1       5.096   1.433  22.479  0.00  0.00    +0.000 HD
ENDBRANCH  27  28
ENDBRANCH   3  27
TORSDOF 9
ENDMDL
MODEL 9
REMARK VINA RESULT:      -6.4      3.137      6.144
REMARK  Name = 
REMARK  9 active torsions:
REMARK  status: ('A' for Active; 'I' for Inactive)
REMARK    1  A    between atoms: N_1  and  C_2
REMARK    2  A    between atoms: C_2  and  C_3
REMARK    3  A    between atoms: C_5  and  C_6
REMARK    4  A    between atoms: N_9  and  C_10
REMARK    5  A    between atoms: C_12  and  C_13
REMARK    6  A    between atoms: C_13  and  O_14
REMARK    7  A    between atoms: C_15  and  O_16
REMARK    8  A    between atoms: C_17  and  O_18
REMARK    9  A    between atoms: C_19  and  O_20
REMARK                            x       y       z     vdW  Elec       q    Type
REMARK                         _______ _______ _______ _____ _____    ______ ____
ROOT
ATOM      1  C   UNL     1       4.085   4.370  16.965  0.00  0.00    +0.000 C 
ATOM      2  O   UNL     1       3.828   5.680  17.511  0.00  0.00    +0.000 OA
ATOM      3  C   UNL     1       2.655   5.721  18.332  0.00  0.00    +0.000 C 
ATOM      4  C   UNL     1       2.823   4.808  19.553  0.00  0.00    +0.000 C 
ATOM      5  C   UNL     1       3.133   3.376  19.088  0.00  0.00    +0.000 C 
ATOM      6  C   UNL     1       4.287   3.314  18.073  0.00  0.00    +0.000 C 
ENDROOT
BRANCH   1  10
ATOM      7  C   UNL     1       6.372   4.307  14.281  0.00  0.00    +0.000 A 
ATOM      8  C   UNL     1       7.283   4.729  15.270  0.00  0.00    +0.000 A 
ATOM      9  C   UNL     1       6.570   4.808  16.456  0.00  0.00    +0.000 A 
ATOM     10  N   UNL     1       5.275   4.474  16.104  0.00  0.00    +0.000 N 
ATOM     11  N   UNL     1       5.144   4.153  14.786  0.00  0.00    +0.000 NA
BRANCH   9  12
ATOM     12  C   UNL     1       7.034   5.176  17.775  0.00  0.00    +0.000 C 
ATOM     13  N   UNL     1       6.766   6.451  18.156  0.00  0.00    +0.000 N 
ATOM     14  O   UNL     1       7.646   4.433  18.523  0.00  0.00    +0.000 OA
ATOM     15  H   UNL     1       6.368   7.151  17.538  0.00  0.00    +0.000 HD
ATOM     16  H   UNL     1       7.130   6.767  19.046  0.00  0.00    +0.000 HD
ENDBRANCH   9  12
BRANCH   7  17
ATOM     17  C   UNL     1       6.667   4.015  12.847  0.00  0.00    +0.000 C 
BRANCH  17  18
ATOM     18  N   UNL     1       5.960   2.790  12.461  0.00  0.00    +0.000 NA
ATOM     19  H   UNL     1       6.129   2.615  11.474  0.00  0.00    +0.000 HD
ATOM     20  H   UNL     1       4.960   2.975  12.548  0.00  0.00    +0.000 HD
ENDBRANCH  17  18
ENDBRANCH   7  17
ENDBRANCH   1  10
BRANCH   4  21
ATOM     21  O   UNL     1       1.618   4.841  20.326  0.00  0.00    +0.000 OA
ATOM     22  H   UNL     1       1.497   5.741  20.683  0.00  0.00    +0.000 HD
ENDBRANCH   4  21
BRANCH   5  23
ATOM     23  O   UNL     1       3.398   2.553  20.235  0.00  0.00    +0.000 OA
ATOM     24  H   UNL     1       3.996   1.830  19.963  0.00  0.00    +0.000 HD
ENDBRANCH   5  23
BRANCH   6  25
ATOM     25  O   UNL     1       4.373   1.982  17.530  0.00  0.00    +0.000 OA
ATOM     26  H   UNL     1       4.086   1.342  18.209  0.00  0.00    +0.000 HD
ENDBRANCH   6  25
BRANCH   3  27
ATOM     27  C   UNL     1       2.414   7.182  18.744  0.00  0.00    +0.000 C 
BRANCH  27  28
ATOM     28  O   UNL     1       2.566   7.356  20.144  0.00  0.00    +0.000 OA
ATOM     29  H   UNL     1       1.755   6.996  20.555  0.00  0.00    +0.000 HD
ENDBRANCH  27  28
ENDBRANCH   3  27
TORSDOF 9
ENDMDL
