MODEL 1
REMARK VINA RESULT:      -8.5      0.000      0.000
REMARK  Name = 
REMARK  3 active torsions:
REMARK  status: ('A' for Active; 'I' for Inactive)
REMARK    1  A    between atoms: O_1  and  C_2
REMARK    2  A    between atoms: C_6  and  N_7
REMARK    3  A    between atoms: N_7  and  C_8
REMARK                            x       y       z     vdW  Elec       q    Type
REMARK                         _______ _______ _______ _____ _____    ______ ____
ROOT
ATOM      1  C   UNL     1       2.202   5.170  19.875  0.00  0.00    +0.000 A 
ATOM      2  C   UNL     1       1.205   4.344  20.430  0.00  0.00    +0.000 A 
ATOM      3  C   UNL     1       0.925   3.108  19.874  0.00  0.00    +0.000 A 
ATOM      4  N   UNL     1       1.543   2.583  18.800  0.00  0.00    +0.000 NA
ATOM      5  C   UNL     1       2.491   3.393  18.293  0.00  0.00    +0.000 A 
ATOM      6  N   UNL     1       3.225   3.072  17.190  0.00  0.00    +0.000 N 
ATOM      7  C   UNL     1       4.091   4.088  16.876  0.00  0.00    +0.000 A 
ATOM      8  C   UNL     1       4.996   4.187  15.811  0.00  0.00    +0.000 A 
ATOM      9  C   UNL     1       5.764   5.348  15.719  0.00  0.00    +0.000 A 
ATOM     10  C   UNL     1       5.630   6.366  16.659  0.00  0.00    +0.000 A 
ATOM     11  C   UNL     1       4.715   6.253  17.715  0.00  0.00    +0.000 A 
ATOM     12  C   UNL     1       3.920   5.091  17.839  0.00  0.00    +0.000 A 
ATOM     13  C   UNL     1       2.887   4.651  18.744  0.00  0.00    +0.000 A 
ATOM     14  H   UNL     1       3.111   2.211  16.681  0.00  0.00    +0.000 HD
ENDROOT
BRANCH   1  15
ATOM     15  N   UNL     1       2.465   6.427  20.469  0.00  0.00    +0.000 N 
ATOM     16  H   UNL     1       3.437   6.549  20.731  0.00  0.00    +0.000 HD
BRANCH  15  21
ATOM     17  C   UNL     1       1.425   9.496  18.601  0.00  0.00    +0.000 A 
ATOM     18  C   UNL     1       0.573  10.097  19.519  0.00  0.00    +0.000 A 
ATOM     19  C   UNL     1       0.377   9.492  20.759  0.00  0.00    +0.000 A 
ATOM     20  C   UNL     1       1.026   8.289  21.067  0.00  0.00    +0.000 A 
ATOM     21  C   UNL     1       1.867   7.667  20.135  0.00  0.00    +0.000 A 
ATOM     22  C   UNL     1       2.066   8.296  18.898  0.00  0.00    +0.000 A 
BRANCH  17  23
ATOM     23  O   UNL     1       1.662  10.057  17.380  0.00  0.00    +0.000 OA
ATOM     24  H   UNL     1       1.336   9.456  16.692  0.00  0.00    +0.000 HD
ENDBRANCH  17  23
ENDBRANCH  15  21
ENDBRANCH   1  15
TORSDOF 3
ENDMDL
MODEL 2
REMARK VINA RESULT:      -8.3      4.096      5.569
REMARK  Name = 
REMARK  3 active torsions:
REMARK  status: ('A' for Active; 'I' for Inactive)
REMARK    1  A    between atoms: O_1  and  C_2
REMARK    2  A    between atoms: C_6  and  N_7
REMARK    3  A    between atoms: N_7  and  C_8
REMARK                            x       y       z     vdW  Elec       q    Type
REMARK                         _______ _______ _______ _____ _____    ______ ____
ROOT
ATOM      1  C   UNL     1       5.376   4.143  17.591  0.00  0.00    +0.000 A 
ATOM      2  C   UNL     1       5.738   4.739  18.815  0.00  0.00    +0.000 A 
ATOM      3  C   UNL     1       6.741   5.691  18.864  0.00  0.00    +0.000 A 
ATOM      4  N   UNL     1       7.444   6.132  17.805  0.00  0.00    +0.000 NA
ATOM      5  C   UNL     1       7.075   5.547  16.651  0.00  0.00    +0.000 A 
ATOM      6  N   UNL     1       7.671   5.826  15.457  0.00  0.00    +0.000 N 
ATOM      7  C   UNL     1       7.122   5.066  14.456  0.00  0.00    +0.000 A 
ATOM      8  C   UNL     1       7.456   5.012  13.096  0.00  0.00    +0.000 A 
ATOM      9  C   UNL     1       6.734   4.135  12.286  0.00  0.00    +0.000 A 
ATOM     10  C   UNL     1       5.718   3.347  12.819  0.00  0.00    +0.000 A 
ATOM     11  C   UNL     1       5.401   3.409  14.183  0.00  0.00    +0.000 A 
ATOM     12  C   UNL     1       6.112   4.285  15.034  0.00  0.00    +0.000 A 
ATOM     13  C   UNL     1       6.086   4.587  16.444  0.00  0.00    +0.000 A 
ATOM     14  H   UNL     1       8.423   6.487  15.355  0.00  0.00    +0.000 HD
ENDROOT
BRANCH   1  15
ATOM     15  N   UNL     1       4.344   3.174  17.575  0.00  0.00    +0.000 N 
ATOM     16  H   UNL     1       4.658   2.263  17.261  0.00  0.00    +0.000 HD
BRANCH  15  21
ATOM     17  C   UNL     1       2.393   2.735  20.736  0.00  0.00    +0.000 A 
ATOM     18  C   UNL     1       1.094   2.915  20.280  0.00  0.00    +0.000 A 
ATOM     19  C   UNL     1       0.878   3.150  18.923  0.00  0.00    +0.000 A 
ATOM     20  C   UNL     1       1.961   3.213  18.038  0.00  0.00    +0.000 A 
ATOM     21  C   UNL     1       3.276   3.056  18.497  0.00  0.00    +0.000 A 
ATOM     22  C   UNL     1       3.475   2.804  19.862  0.00  0.00    +0.000 A 
BRANCH  17  23
ATOM     23  O   UNL     1       2.656   2.486  22.052  0.00  0.00    +0.000 OA
ATOM     24  H   UNL     1       2.387   1.576  22.258  0.00  0.00    +0.000 HD
ENDBRANCH  17  23
ENDBRANCH  15  21
ENDBRANCH   1  15
TORSDOF 3
ENDMDL
MODEL 3
REMARK VINA RESULT:      -8.2      1.012      1.453
REMARK  Name = 
REMARK  3 active torsions:
REMARK  status: ('A' for Active; 'I' for Inactive)
REMARK    1  A    between atoms: O_1  and  C_2
REMARK    2  A    between atoms: C_6  and  N_7
REMARK    3  A    between atoms: N_7  and  C_8
REMARK                            x       y       z     vdW  Elec       q    Type
REMARK                         _______ _______ _______ _____ _____    ______ ____
ROOT
ATOM      1  C   UNL     1       2.325   5.491  19.841  0.00  0.00    +0.000 A 
ATOM      2  C   UNL     1       1.390   4.705  20.542  0.00  0.00    +0.000 A 
ATOM      3  C   UNL     1       1.154   3.394  20.170  0.00  0.00    +0.000 A 
ATOM      4  N   UNL     1       1.761   2.756  19.152  0.00  0.00    +0.000 NA
ATOM      5  C   UNL     1       2.649   3.530  18.502  0.00  0.00    +0.000 A 
ATOM      6  N   UNL     1       3.360   3.096  17.424  0.00  0.00    +0.000 N 
ATOM      7  C   UNL     1       4.163   4.098  16.941  0.00  0.00    +0.000 A 
ATOM      8  C   UNL     1       5.025   4.091  15.836  0.00  0.00    +0.000 A 
ATOM      9  C   UNL     1       5.730   5.262  15.558  0.00  0.00    +0.000 A 
ATOM     10  C   UNL     1       5.577   6.392  16.357  0.00  0.00    +0.000 A 
ATOM     11  C   UNL     1       4.706   6.383  17.455  0.00  0.00    +0.000 A 
ATOM     12  C   UNL     1       3.975   5.214  17.766  0.00  0.00    +0.000 A 
ATOM     13  C   UNL     1       2.997   4.854  18.764  0.00  0.00    +0.000 A 
ATOM     14  H   UNL     1       3.273   2.169  17.040  0.00  0.00    +0.000 HD
ENDROOT
BRANCH   1  15
ATOM     15  N   UNL     1       2.544   6.829  20.249  0.00  0.00    +0.000 N 
ATOM     16  H   UNL     1       3.521   7.039  20.420  0.00  0.00    +0.000 HD
BRANCH  15  21
ATOM     17  C   UNL     1       0.379   9.877  20.173  0.00  0.00    +0.000 A 
ATOM     18  C   UNL     1       0.554  10.302  18.862  0.00  0.00    +0.000 A 
ATOM     19  C   UNL     1       1.365   9.554  18.010  0.00  0.00    +0.000 A 
ATOM     20  C   UNL     1       2.000   8.397  18.477  0.00  0.00    +0.000 A 
ATOM     21  C   UNL     1       1.846   7.978  19.806  0.00  0.00    +0.000 A 
ATOM     22  C   UNL     1       1.015   8.733  20.646  0.00  0.00    +0.000 A 
BRANCH  17  23
ATOM     23  O   UNL     1      -0.417  10.566  21.041  0.00  0.00    +0.000 OA
ATOM     24  H   UNL     1      -0.795   9.942  21.681  0.00  0.00    +0.000 HD
ENDBRANCH  17  23
ENDBRANCH  15  21
ENDBRANCH   1  15
TORSDOF 3
ENDMDL
MODEL 4
REMARK VINA RESULT:      -8.1      2.036      3.928
REMARK  Name = 
REMARK  3 active torsions:
REMARK  status: ('A' for Active; 'I' for Inactive)
REMARK    1  A    between atoms: O_1  and  C_2
REMARK    2  A    between atoms: C_6  and  N_7
REMARK    3  A    between atoms: N_7  and  C_8
REMARK                            x       y       z     vdW  Elec       q    Type
REMARK                         _______ _______ _______ _____ _____    ______ ____
ROOT
ATOM      1  C   UNL     1       4.450   6.523  17.515  0.00  0.00    +0.000 A 
ATOM      2  C   UNL     1       5.761   7.030  17.417  0.00  0.00    +0.000 A 
ATOM      3  C   UNL     1       6.848   6.229  17.717  0.00  0.00    +0.000 A 
ATOM      4  N   UNL     1       6.779   4.944  18.112  0.00  0.00    +0.000 NA
ATOM      5  C   UNL     1       5.517   4.488  18.194  0.00  0.00    +0.000 A 
ATOM      6  N   UNL     1       5.212   3.222  18.596  0.00  0.00    +0.000 N 
ATOM      7  C   UNL     1       3.853   3.037  18.618  0.00  0.00    +0.000 A 
ATOM      8  C   UNL     1       3.116   1.907  18.999  0.00  0.00    +0.000 A 
ATOM      9  C   UNL     1       1.725   1.989  18.931  0.00  0.00    +0.000 A 
ATOM     10  C   UNL     1       1.101   3.155  18.499  0.00  0.00    +0.000 A 
ATOM     11  C   UNL     1       1.854   4.278  18.127  0.00  0.00    +0.000 A 
ATOM     12  C   UNL     1       3.265   4.231  18.184  0.00  0.00    +0.000 A 
ATOM     13  C   UNL     1       4.331   5.167  17.919  0.00  0.00    +0.000 A 
ATOM     14  H   UNL     1       5.907   2.542  18.858  0.00  0.00    +0.000 HD
ENDROOT
BRANCH   1  15
ATOM     15  N   UNL     1       3.359   7.369  17.199  0.00  0.00    +0.000 N 
ATOM     16  H   UNL     1       2.837   7.059  16.388  0.00  0.00    +0.000 HD
BRANCH  15  21
ATOM     17  C   UNL     1       1.541   8.366  20.311  0.00  0.00    +0.000 A 
ATOM     18  C   UNL     1       0.901   9.525  19.892  0.00  0.00    +0.000 A 
ATOM     19  C   UNL     1       1.056   9.946  18.572  0.00  0.00    +0.000 A 
ATOM     20  C   UNL     1       1.855   9.211  17.687  0.00  0.00    +0.000 A 
ATOM     21  C   UNL     1       2.523   8.054  18.113  0.00  0.00    +0.000 A 
ATOM     22  C   UNL     1       2.345   7.636  19.439  0.00  0.00    +0.000 A 
BRANCH  17  23
ATOM     23  O   UNL     1       1.409   7.905  21.589  0.00  0.00    +0.000 OA
ATOM     24  H   UNL     1       0.705   7.237  21.608  0.00  0.00    +0.000 HD
ENDBRANCH  17  23
ENDBRANCH  15  21
ENDBRANCH   1  15
TORSDOF 3
ENDMDL
MODEL 5
REMARK VINA RESULT:      -8.1      1.800      3.730
REMARK  Name = 
REMARK  3 active torsions:
REMARK  status: ('A' for Active; 'I' for Inactive)
REMARK    1  A    between atoms: O_1  and  C_2
REMARK    2  A    between atoms: C_6  and  N_7
REMARK    3  A    between atoms: N_7  and  C_8
REMARK                            x       y       z     vdW  Elec       q    Type
REMARK                         _______ _______ _______ _____ _____    ______ ____
ROOT
ATOM      1  C   UNL     1       4.451   6.506  17.548  0.00  0.00    +0.000 A 
ATOM      2  C   UNL     1       5.759   7.021  17.462  0.00  0.00    +0.000 A 
ATOM      3  C   UNL     1       6.849   6.229  17.775  0.00  0.00    +0.000 A 
ATOM      4  N   UNL     1       6.785   4.945  18.174  0.00  0.00    +0.000 NA
ATOM      5  C   UNL     1       5.524   4.481  18.245  0.00  0.00    +0.000 A 
ATOM      6  N   UNL     1       5.224   3.214  18.650  0.00  0.00    +0.000 N 
ATOM      7  C   UNL     1       3.866   3.021  18.659  0.00  0.00    +0.000 A 
ATOM      8  C   UNL     1       3.133   1.888  19.036  0.00  0.00    +0.000 A 
ATOM      9  C   UNL     1       1.741   1.960  18.955  0.00  0.00    +0.000 A 
ATOM     10  C   UNL     1       1.114   3.121  18.512  0.00  0.00    +0.000 A 
ATOM     11  C   UNL     1       1.864   4.247  18.143  0.00  0.00    +0.000 A 
ATOM     12  C   UNL     1       3.274   4.210  18.214  0.00  0.00    +0.000 A 
ATOM     13  C   UNL     1       4.337   5.151  17.956  0.00  0.00    +0.000 A 
ATOM     14  H   UNL     1       5.921   2.540  18.921  0.00  0.00    +0.000 HD
ENDROOT
BRANCH   1  15
ATOM     15  N   UNL     1       3.358   7.344  17.218  0.00  0.00    +0.000 N 
ATOM     16  H   UNL     1       2.813   6.998  16.437  0.00  0.00    +0.000 HD
BRANCH  15  21
ATOM     17  C   UNL     1       1.118   9.959  18.677  0.00  0.00    +0.000 A 
ATOM     18  C   UNL     1       0.889   9.443  19.946  0.00  0.00    +0.000 A 
ATOM     19  C   UNL     1       1.505   8.248  20.314  0.00  0.00    +0.000 A 
ATOM     20  C   UNL     1       2.335   7.576  19.408  0.00  0.00    +0.000 A 
ATOM     21  C   UNL     1       2.550   8.081  18.118  0.00  0.00    +0.000 A 
ATOM     22  C   UNL     1       1.935   9.291  17.769  0.00  0.00    +0.000 A 
BRANCH  17  23
ATOM     23  O   UNL     1       0.550  11.134  18.276  0.00  0.00    +0.000 OA
ATOM     24  H   UNL     1      -0.267  11.274  18.779  0.00  0.00    +0.000 HD
ENDBRANCH  17  23
ENDBRANCH  15  21
ENDBRANCH   1  15
TORSDOF 3
ENDMDL
MODEL 6
REMARK VINA RESULT:      -8.1      3.979      5.989
REMARK  Name = 
REMARK  3 active torsions:
REMARK  status: ('A' for Active; 'I' for Inactive)
REMARK    1  A    between atoms: O_1  and  C_2
REMARK    2  A    between atoms: C_6  and  N_7
REMARK    3  A    between atoms: N_7  and  C_8
REMARK                            x       y       z     vdW  Elec       q    Type
REMARK                         _______ _______ _______ _____ _____    ______ ____
ROOT
ATOM      1  C   UNL     1       4.906   5.465  16.667  0.00  0.00    +0.000 A 
ATOM      2  C   UNL     1       5.402   6.212  17.754  0.00  0.00    +0.000 A 
ATOM      3  C   UNL     1       6.696   6.700  17.740  0.00  0.00    +0.000 A 
ATOM      4  N   UNL     1       7.579   6.528  16.739  0.00  0.00    +0.000 NA
ATOM      5  C   UNL     1       7.078   5.814  15.715  0.00  0.00    +0.000 A 
ATOM      6  N   UNL     1       7.805   5.499  14.607  0.00  0.00    +0.000 N 
ATOM      7  C   UNL     1       7.060   4.740  13.741  0.00  0.00    +0.000 A 
ATOM      8  C   UNL     1       7.426   4.178  12.511  0.00  0.00    +0.000 A 
ATOM      9  C   UNL     1       6.464   3.434  11.826  0.00  0.00    +0.000 A 
ATOM     10  C   UNL     1       5.189   3.262  12.355  0.00  0.00    +0.000 A 
ATOM     11  C   UNL     1       4.841   3.826  13.591  0.00  0.00    +0.000 A 
ATOM     12  C   UNL     1       5.790   4.586  14.312  0.00  0.00    +0.000 A 
ATOM     13  C   UNL     1       5.802   5.267  15.583  0.00  0.00    +0.000 A 
ATOM     14  H   UNL     1       8.764   5.778  14.476  0.00  0.00    +0.000 HD
ENDROOT
BRANCH   1  15
ATOM     15  N   UNL     1       3.576   4.982  16.713  0.00  0.00    +0.000 N 
ATOM     16  H   UNL     1       3.087   5.078  15.830  0.00  0.00    +0.000 HD
BRANCH  15  21
ATOM     17  C   UNL     1       3.401   1.677  18.454  0.00  0.00    +0.000 A 
ATOM     18  C   UNL     1       2.109   1.706  18.963  0.00  0.00    +0.000 A 
ATOM     19  C   UNL     1       1.301   2.810  18.697  0.00  0.00    +0.000 A 
ATOM     20  C   UNL     1       1.793   3.876  17.934  0.00  0.00    +0.000 A 
ATOM     21  C   UNL     1       3.104   3.861  17.439  0.00  0.00    +0.000 A 
ATOM     22  C   UNL     1       3.899   2.738  17.702  0.00  0.00    +0.000 A 
BRANCH  17  23
ATOM     23  O   UNL     1       4.226   0.612  18.674  0.00  0.00    +0.000 OA
ATOM     24  H   UNL     1       3.931   0.147  19.473  0.00  0.00    +0.000 HD
ENDBRANCH  17  23
ENDBRANCH  15  21
ENDBRANCH   1  15
TORSDOF 3
ENDMDL
MODEL 7
REMARK VINA RESULT:      -8.1      3.502      5.751
REMARK  Name = 
REMARK  3 active torsions:
REMARK  status: ('A' for Active; 'I' for Inactive)
REMARK    1  A    between atoms: O_1  and  C_2
REMARK    2  A    between atoms: C_6  and  N_7
REMARK    3  A    between atoms: N_7  and  C_8
REMARK                            x       y       z     vdW  Elec       q    Type
REMARK                         _______ _______ _______ _____ _____    ______ ____
ROOT
ATOM      1  C   UNL     1       4.914   5.013  16.651  0.00  0.00    +0.000 A 
ATOM      2  C   UNL     1       5.324   5.713  17.803  0.00  0.00    +0.000 A 
ATOM      3  C   UNL     1       6.557   6.339  17.844  0.00  0.00    +0.000 A 
ATOM      4  N   UNL     1       7.454   6.352  16.841  0.00  0.00    +0.000 NA
ATOM      5  C   UNL     1       7.035   5.678  15.755  0.00  0.00    +0.000 A 
ATOM      6  N   UNL     1       7.794   5.541  14.631  0.00  0.00    +0.000 N 
ATOM      7  C   UNL     1       7.137   4.782  13.696  0.00  0.00    +0.000 A 
ATOM      8  C   UNL     1       7.564   4.372  12.426  0.00  0.00    +0.000 A 
ATOM      9  C   UNL     1       6.690   3.589  11.671  0.00  0.00    +0.000 A 
ATOM     10  C   UNL     1       5.441   3.235  12.170  0.00  0.00    +0.000 A 
ATOM     11  C   UNL     1       5.032   3.649  13.446  0.00  0.00    +0.000 A 
ATOM     12  C   UNL     1       5.892   4.442  14.239  0.00  0.00    +0.000 A 
ATOM     13  C   UNL     1       5.828   5.009  15.563  0.00  0.00    +0.000 A 
ATOM     14  H   UNL     1       8.716   5.933  14.535  0.00  0.00    +0.000 HD
ENDROOT
BRANCH   1  15
ATOM     15  N   UNL     1       3.645   4.385  16.641  0.00  0.00    +0.000 N 
ATOM     16  H   UNL     1       3.402   3.994  15.739  0.00  0.00    +0.000 HD
BRANCH  15  21
ATOM     17  C   UNL     1       1.451   3.377  19.497  0.00  0.00    +0.000 A 
ATOM     18  C   UNL     1       1.879   2.075  19.721  0.00  0.00    +0.000 A 
ATOM     19  C   UNL     1       2.912   1.557  18.942  0.00  0.00    +0.000 A 
ATOM     20  C   UNL     1       3.501   2.340  17.941  0.00  0.00    +0.000 A 
ATOM     21  C   UNL     1       3.055   3.646  17.695  0.00  0.00    +0.000 A 
ATOM     22  C   UNL     1       2.026   4.157  18.497  0.00  0.00    +0.000 A 
BRANCH  17  23
ATOM     23  O   UNL     1       0.454   3.935  20.243  0.00  0.00    +0.000 OA
ATOM     24  H   UNL     1      -0.309   4.106  19.667  0.00  0.00    +0.000 HD
ENDBRANCH  17  23
ENDBRANCH  15  21
ENDBRANCH   1  15
TORSDOF 3
ENDMDL
MODEL 8
REMARK VINA RESULT:      -8.0      2.322      5.536
REMARK  Name = 
REMARK  3 active torsions:
REMARK  status: ('A' for Active; 'I' for Inactive)
REMARK    1  A    between atoms: O_1  and  C_2
REMARK    2  A    between atoms: C_6  and  N_7
REMARK    3  A    between atoms: N_7  and  C_8
REMARK                            x       y       z     vdW  Elec       q    Type
REMARK                         _______ _______ _______ _____ _____    ______ ____
ROOT
ATOM      1  C   UNL     1       3.049   3.741  18.845  0.00  0.00    +0.000 A 
ATOM      2  C   UNL     1       3.048   2.618  19.696  0.00  0.00    +0.000 A 
ATOM      3  C   UNL     1       2.602   2.725  21.001  0.00  0.00    +0.000 A 
ATOM      4  N   UNL     1       2.142   3.852  21.573  0.00  0.00    +0.000 NA
ATOM      5  C   UNL     1       2.153   4.906  20.738  0.00  0.00    +0.000 A 
ATOM      6  N   UNL     1       1.752   6.153  21.115  0.00  0.00    +0.000 N 
ATOM      7  C   UNL     1       1.898   7.040  20.078  0.00  0.00    +0.000 A 
ATOM      8  C   UNL     1       1.639   8.417  20.044  0.00  0.00    +0.000 A 
ATOM      9  C   UNL     1       1.883   9.092  18.848  0.00  0.00    +0.000 A 
ATOM     10  C   UNL     1       2.365   8.412  17.733  0.00  0.00    +0.000 A 
ATOM     11  C   UNL     1       2.624   7.035  17.787  0.00  0.00    +0.000 A 
ATOM     12  C   UNL     1       2.389   6.320  18.982  0.00  0.00    +0.000 A 
ATOM     13  C   UNL     1       2.561   4.952  19.406  0.00  0.00    +0.000 A 
ATOM     14  H   UNL     1       1.420   6.372  22.040  0.00  0.00    +0.000 HD
ENDROOT
BRANCH   1  15
ATOM     15  N   UNL     1       3.509   3.597  17.514  0.00  0.00    +0.000 N 
ATOM     16  H   UNL     1       2.772   3.690  16.826  0.00  0.00    +0.000 HD
BRANCH  15  21
ATOM     17  C   UNL     1       7.126   4.497  17.201  0.00  0.00    +0.000 A 
ATOM     18  C   UNL     1       7.206   4.834  15.856  0.00  0.00    +0.000 A 
ATOM     19  C   UNL     1       6.052   4.787  15.075  0.00  0.00    +0.000 A 
ATOM     20  C   UNL     1       4.833   4.396  15.642  0.00  0.00    +0.000 A 
ATOM     21  C   UNL     1       4.752   4.032  16.994  0.00  0.00    +0.000 A 
ATOM     22  C   UNL     1       5.918   4.099  17.769  0.00  0.00    +0.000 A 
BRANCH  17  23
ATOM     23  O   UNL     1       8.224   4.542  18.011  0.00  0.00    +0.000 OA
ATOM     24  H   UNL     1       8.554   3.638  18.140  0.00  0.00    +0.000 HD
ENDBRANCH  17  23
ENDBRANCH  15  21
ENDBRANCH   1  15
TORSDOF 3
ENDMDL
MODEL 9
REMARK VINA RESULT:      -8.0      3.112      6.920
REMARK  Name = 
REMARK  3 active torsions:
REMARK  status: ('A' for Active; 'I' for Inactive)
REMARK    1  A    between atoms: O_1  and  C_2
REMARK    2  A    between atoms: C_6  and  N_7
REMARK    3  A    between atoms: N_7  and  C_8
REMARK                            x       y       z     vdW  Elec       q    Type
REMARK                         _______ _______ _______ _____ _____    ______ ____
ROOT
ATOM      1  C   UNL     1       2.020   7.578  19.747  0.00  0.00    +0.000 A 
ATOM      2  C   UNL     1       2.577   7.440  18.460  0.00  0.00    +0.000 A 
ATOM      3  C   UNL     1       2.437   8.448  17.523  0.00  0.00    +0.000 A 
ATOM      4  N   UNL     1       1.791   9.611  17.725  0.00  0.00    +0.000 NA
ATOM      5  C   UNL     1       1.273   9.715  18.962  0.00  0.00    +0.000 A 
ATOM      6  N   UNL     1       0.557  10.798  19.376  0.00  0.00    +0.000 N 
ATOM      7  C   UNL     1       0.123  10.625  20.665  0.00  0.00    +0.000 A 
ATOM      8  C   UNL     1      -0.665  11.470  21.458  0.00  0.00    +0.000 A 
ATOM      9  C   UNL     1      -0.972  11.043  22.751  0.00  0.00    +0.000 A 
ATOM     10  C   UNL     1      -0.506   9.821  23.227  0.00  0.00    +0.000 A 
ATOM     11  C   UNL     1       0.276   8.986  22.417  0.00  0.00    +0.000 A 
ATOM     12  C   UNL     1       0.605   9.385  21.102  0.00  0.00    +0.000 A 
ATOM     13  C   UNL     1       1.337   8.795  20.008  0.00  0.00    +0.000 A 
ATOM     14  H   UNL     1       0.369  11.594  18.789  0.00  0.00    +0.000 HD
ENDROOT
BRANCH   1  15
ATOM     15  N   UNL     1       2.182   6.528  20.684  0.00  0.00    +0.000 N 
ATOM     16  H   UNL     1       1.685   6.689  21.552  0.00  0.00    +0.000 HD
BRANCH  15  21
ATOM     17  C   UNL     1       3.550   3.143  19.872  0.00  0.00    +0.000 A 
ATOM     18  C   UNL     1       2.400   2.366  19.927  0.00  0.00    +0.000 A 
ATOM     19  C   UNL     1       1.179   2.979  20.202  0.00  0.00    +0.000 A 
ATOM     20  C   UNL     1       1.120   4.360  20.430  0.00  0.00    +0.000 A 
ATOM     21  C   UNL     1       2.281   5.144  20.400  0.00  0.00    +0.000 A 
ATOM     22  C   UNL     1       3.499   4.515  20.106  0.00  0.00    +0.000 A 
BRANCH  17  23
ATOM     23  O   UNL     1       4.767   2.593  19.591  0.00  0.00    +0.000 OA
ATOM     24  H   UNL     1       5.296   3.240  19.099  0.00  0.00    +0.000 HD
ENDBRANCH  17  23
ENDBRANCH  15  21
ENDBRANCH   1  15
TORSDOF 3
ENDMDL
