MODEL 1
REMARK VINA RESULT:      -7.5      0.000      0.000
REMARK  Name = 
REMARK  13 active torsions:
REMARK  status: ('A' for Active; 'I' for Inactive)
REMARK    1  A    between atoms: C_1  and  C_2
REMARK    2  A    between atoms: C_2  and  C_3
REMARK    3  A    between atoms: C_3  and  C_4
REMARK    4  A    between atoms: C_4  and  N_5
REMARK    5  A    between atoms: C_6  and  C_8
REMARK    6  A    between atoms: C_13  and  C_14
REMARK    7  A    between atoms: C_14  and  C_15
REMARK    8  A    between atoms: C_15  and  N_16
REMARK    9  A    between atoms: C_25  and  C_26
REMARK   10  A    between atoms: C_26  and  C_27
REMARK   11  A    between atoms: C_27  and  N_28
REMARK   12  A    between atoms: N_28  and  C_29
REMARK   13  A    between atoms: N_28  and  C_30
REMARK                            x       y       z     vdW  Elec       q    Type
REMARK                         _______ _______ _______ _____ _____    ______ ____
ROOT
ATOM      1  C   UNL     1       1.560   7.721  20.928  0.00  0.00    +0.000 A 
ATOM      2  N   UNL     1       1.563   6.377  21.246  0.00  0.00    +0.000 N 
ATOM      3  C   UNL     1       2.104   5.626  20.227  0.00  0.00    +0.000 A 
ATOM      4  C   UNL     1       2.364   4.252  20.149  0.00  0.00    +0.000 A 
ATOM      5  C   UNL     1       2.982   3.769  18.986  0.00  0.00    +0.000 A 
ATOM      6  C   UNL     1       3.289   4.612  17.912  0.00  0.00    +0.000 A 
ATOM      7  C   UNL     1       2.976   5.975  18.011  0.00  0.00    +0.000 A 
ATOM      8  C   UNL     1       2.392   6.497  19.181  0.00  0.00    +0.000 A 
ATOM      9  C   UNL     1       2.003   7.807  19.602  0.00  0.00    +0.000 A 
ATOM     10  H   UNL     1       1.216   5.995  22.113  0.00  0.00    +0.000 HD
ENDROOT
BRANCH   1  12
ATOM     11  N   UNL     1      -0.221   8.929  21.975  0.00  0.00    +0.000 N 
ATOM     12  C   UNL     1       1.139   8.804  21.786  0.00  0.00    +0.000 C 
ATOM     13  O   UNL     1       1.922   9.553  22.372  0.00  0.00    +0.000 OA
ATOM     14  H   UNL     1      -0.823   8.166  21.710  0.00  0.00    +0.000 HD
BRANCH  11  15
ATOM     15  C   UNL     1      -0.731   9.930  22.900  0.00  0.00    +0.000 C 
BRANCH  15  16
ATOM     16  C   UNL     1      -1.043  11.260  22.213  0.00  0.00    +0.000 C 
BRANCH  16  18
ATOM     17  C   UNL     1      -3.021  12.208  23.456  0.00  0.00    +0.000 C 
ATOM     18  C   UNL     1      -1.526  12.321  23.204  0.00  0.00    +0.000 C 
ENDBRANCH  16  18
ENDBRANCH  15  16
ENDBRANCH  11  15
ENDBRANCH   1  12
BRANCH   6  19
ATOM     19  C   UNL     1       4.001   4.148  16.659  0.00  0.00    +0.000 C 
BRANCH  19  20
ATOM     20  C   UNL     1       5.458   3.762  16.893  0.00  0.00    +0.000 C 
BRANCH  20  21
ATOM     21  N   UNL     1       6.300   4.910  17.108  0.00  0.00    +0.000 N 
ATOM     22  C   UNL     1       6.728   5.344  18.330  0.00  0.00    +0.000 C 
ATOM     23  O   UNL     1       6.456   4.852  19.418  0.00  0.00    +0.000 OA
ATOM     24  C   UNL     1       7.608   6.561  18.121  0.00  0.00    +0.000 C 
ATOM     25  N   UNL     1       7.567   6.684  16.692  0.00  0.00    +0.000 N 
ATOM     26  C   UNL     1       6.794   5.702  16.112  0.00  0.00    +0.000 C 
ATOM     27  O   UNL     1       6.606   5.598  14.916  0.00  0.00    +0.000 OA
ATOM     28  H   UNL     1       8.026   7.388  16.129  0.00  0.00    +0.000 HD
ENDBRANCH  20  21
ENDBRANCH  19  20
ENDBRANCH   6  19
BRANCH   9  29
ATOM     29  C   UNL     1       2.136   9.077  18.812  0.00  0.00    +0.000 C 
BRANCH  29  30
ATOM     30  C   UNL     1       0.931   9.361  17.901  0.00  0.00    +0.000 C 
BRANCH  30  31
ATOM     31  N   UNL     1       0.211  10.618  18.204  0.00  0.00    +0.000 NA
ATOM     32  C   UNL     1      -1.112  10.288  18.754  0.00  0.00    +0.000 C 
ATOM     33  C   UNL     1       0.962  11.406  19.187  0.00  0.00    +0.000 C 
ENDBRANCH  30  31
ENDBRANCH  29  30
ENDBRANCH   9  29
TORSDOF 10
ENDMDL
MODEL 2
REMARK VINA RESULT:      -7.3      2.371      9.003
REMARK  Name = 
REMARK  13 active torsions:
REMARK  status: ('A' for Active; 'I' for Inactive)
REMARK    1  A    between atoms: C_1  and  C_2
REMARK    2  A    between atoms: C_2  and  C_3
REMARK    3  A    between atoms: C_3  and  C_4
REMARK    4  A    between atoms: C_4  and  N_5
REMARK    5  A    between atoms: C_6  and  C_8
REMARK    6  A    between atoms: C_13  and  C_14
REMARK    7  A    between atoms: C_14  and  C_15
REMARK    8  A    between atoms: C_15  and  N_16
REMARK    9  A    between atoms: C_25  and  C_26
REMARK   10  A    between atoms: C_26  and  C_27
REMARK   11  A    between atoms: C_27  and  N_28
REMARK   12  A    between atoms: N_28  and  C_29
REMARK   13  A    between atoms: N_28  and  C_30
REMARK                            x       y       z     vdW  Elec       q    Type
REMARK                         _______ _______ _______ _____ _____    ______ ____
ROOT
ATOM      1  C   UNL     1       4.994   5.609  17.023  0.00  0.00    +0.000 A 
ATOM      2  N   UNL     1       4.386   6.798  16.674  0.00  0.00    +0.000 N 
ATOM      3  C   UNL     1       3.518   7.220  17.655  0.00  0.00    +0.000 A 
ATOM      4  C   UNL     1       2.754   8.389  17.751  0.00  0.00    +0.000 A 
ATOM      5  C   UNL     1       1.991   8.577  18.913  0.00  0.00    +0.000 A 
ATOM      6  C   UNL     1       1.948   7.615  19.929  0.00  0.00    +0.000 A 
ATOM      7  C   UNL     1       2.696   6.438  19.778  0.00  0.00    +0.000 A 
ATOM      8  C   UNL     1       3.503   6.239  18.641  0.00  0.00    +0.000 A 
ATOM      9  C   UNL     1       4.392   5.201  18.220  0.00  0.00    +0.000 A 
ATOM     10  H   UNL     1       4.557   7.294  15.811  0.00  0.00    +0.000 HD
ENDROOT
BRANCH   1  12
ATOM     11  N   UNL     1       5.865   4.922  14.902  0.00  0.00    +0.000 N 
ATOM     12  C   UNL     1       6.014   4.914  16.272  0.00  0.00    +0.000 C 
ATOM     13  O   UNL     1       6.999   4.384  16.790  0.00  0.00    +0.000 OA
ATOM     14  H   UNL     1       5.215   5.570  14.485  0.00  0.00    +0.000 HD
BRANCH  11  15
ATOM     15  C   UNL     1       6.895   4.332  14.060  0.00  0.00    +0.000 C 
BRANCH  15  16
ATOM     16  C   UNL     1       6.321   3.673  12.805  0.00  0.00    +0.000 C 
BRANCH  16  18
ATOM     17  C   UNL     1       4.235   3.275  11.446  0.00  0.00    +0.000 C 
ATOM     18  C   UNL     1       4.791   3.670  12.805  0.00  0.00    +0.000 C 
ENDBRANCH  16  18
ENDBRANCH  15  16
ENDBRANCH  11  15
ENDBRANCH   1  12
BRANCH   6  19
ATOM     19  C   UNL     1       1.182   7.794  21.222  0.00  0.00    +0.000 C 
BRANCH  19  20
ATOM     20  C   UNL     1      -0.243   8.302  21.021  0.00  0.00    +0.000 C 
BRANCH  20  21
ATOM     21  N   UNL     1      -0.359   9.717  21.259  0.00  0.00    +0.000 N 
ATOM     22  C   UNL     1      -0.681  10.643  20.309  0.00  0.00    +0.000 C 
ATOM     23  O   UNL     1      -0.899  10.429  19.123  0.00  0.00    +0.000 OA
ATOM     24  C   UNL     1      -0.721  12.007  20.969  0.00  0.00    +0.000 C 
ATOM     25  N   UNL     1      -0.386  11.664  22.322  0.00  0.00    +0.000 N 
ATOM     26  C   UNL     1      -0.178  10.312  22.475  0.00  0.00    +0.000 C 
ATOM     27  O   UNL     1       0.119   9.781  23.526  0.00  0.00    +0.000 OA
ATOM     28  H   UNL     1      -0.294  12.299  23.105  0.00  0.00    +0.000 HD
ENDBRANCH  20  21
ENDBRANCH  19  20
ENDBRANCH   6  19
BRANCH   9  29
ATOM     29  C   UNL     1       4.712   3.938  18.968  0.00  0.00    +0.000 C 
BRANCH  29  30
ATOM     30  C   UNL     1       3.931   2.714  18.466  0.00  0.00    +0.000 C 
BRANCH  30  31
ATOM     31  N   UNL     1       2.811   2.296  19.338  0.00  0.00    +0.000 NA
ATOM     32  C   UNL     1       3.047   2.808  20.696  0.00  0.00    +0.000 C 
ATOM     33  C   UNL     1       1.546   2.836  18.828  0.00  0.00    +0.000 C 
ENDBRANCH  30  31
ENDBRANCH  29  30
ENDBRANCH   9  29
TORSDOF 10
ENDMDL
MODEL 3
REMARK VINA RESULT:      -7.2      2.306      8.969
REMARK  Name = 
REMARK  13 active torsions:
REMARK  status: ('A' for Active; 'I' for Inactive)
REMARK    1  A    between atoms: C_1  and  C_2
REMARK    2  A    between atoms: C_2  and  C_3
REMARK    3  A    between atoms: C_3  and  C_4
REMARK    4  A    between atoms: C_4  and  N_5
REMARK    5  A    between atoms: C_6  and  C_8
REMARK    6  A    between atoms: C_13  and  C_14
REMARK    7  A    between atoms: C_14  and  C_15
REMARK    8  A    between atoms: C_15  and  N_16
REMARK    9  A    between atoms: C_25  and  C_26
REMARK   10  A    between atoms: C_26  and  C_27
REMARK   11  A    between atoms: C_27  and  N_28
REMARK   12  A    between atoms: N_28  and  C_29
REMARK   13  A    between atoms: N_28  and  C_30
REMARK                            x       y       z     vdW  Elec       q    Type
REMARK                         _______ _______ _______ _____ _____    ______ ____
ROOT
ATOM      1  C   UNL     1       4.555   5.799  17.410  0.00  0.00    +0.000 A 
ATOM      2  N   UNL     1       4.014   6.974  16.930  0.00  0.00    +0.000 N 
ATOM      3  C   UNL     1       3.124   7.516  17.829  0.00  0.00    +0.000 A 
ATOM      4  C   UNL     1       2.406   8.717  17.787  0.00  0.00    +0.000 A 
ATOM      5  C   UNL     1       1.603   9.038  18.891  0.00  0.00    +0.000 A 
ATOM      6  C   UNL     1       1.476   8.173  19.985  0.00  0.00    +0.000 A 
ATOM      7  C   UNL     1       2.179   6.960  19.972  0.00  0.00    +0.000 A 
ATOM      8  C   UNL     1       3.025   6.628  18.896  0.00  0.00    +0.000 A 
ATOM      9  C   UNL     1       3.886   5.523  18.609  0.00  0.00    +0.000 A 
ATOM     10  H   UNL     1       4.242   7.384  16.036  0.00  0.00    +0.000 HD
ENDROOT
BRANCH   1  12
ATOM     11  N   UNL     1       5.209   4.381  15.596  0.00  0.00    +0.000 N 
ATOM     12  C   UNL     1       5.576   5.000  16.770  0.00  0.00    +0.000 C 
ATOM     13  O   UNL     1       6.730   4.903  17.194  0.00  0.00    +0.000 OA
ATOM     14  H   UNL     1       4.364   4.675  15.131  0.00  0.00    +0.000 HD
BRANCH  11  15
ATOM     15  C   UNL     1       6.199   3.637  14.832  0.00  0.00    +0.000 C 
BRANCH  15  16
ATOM     16  C   UNL     1       6.583   4.338  13.528  0.00  0.00    +0.000 C 
BRANCH  16  18
ATOM     17  C   UNL     1       4.884   3.339  11.957  0.00  0.00    +0.000 C 
ATOM     18  C   UNL     1       6.360   3.446  12.306  0.00  0.00    +0.000 C 
ENDBRANCH  16  18
ENDBRANCH  15  16
ENDBRANCH  11  15
ENDBRANCH   1  12
BRANCH   6  19
ATOM     19  C   UNL     1       0.664   8.497  21.220  0.00  0.00    +0.000 C 
BRANCH  19  20
ATOM     20  C   UNL     1       1.180   9.709  21.989  0.00  0.00    +0.000 C 
BRANCH  20  21
ATOM     21  N   UNL     1       0.308  10.848  21.865  0.00  0.00    +0.000 N 
ATOM     22  C   UNL     1      -0.852  11.021  22.565  0.00  0.00    +0.000 C 
ATOM     23  O   UNL     1      -1.338  10.245  23.378  0.00  0.00    +0.000 OA
ATOM     24  C   UNL     1      -1.456  12.352  22.162  0.00  0.00    +0.000 C 
ATOM     25  N   UNL     1      -0.492  12.809  21.203  0.00  0.00    +0.000 N 
ATOM     26  C   UNL     1       0.541  11.912  21.042  0.00  0.00    +0.000 C 
ATOM     27  O   UNL     1       1.476  12.076  20.284  0.00  0.00    +0.000 OA
ATOM     28  H   UNL     1      -0.521  13.672  20.676  0.00  0.00    +0.000 HD
ENDBRANCH  20  21
ENDBRANCH  19  20
ENDBRANCH   6  19
BRANCH   9  29
ATOM     29  C   UNL     1       4.120   4.321  19.479  0.00  0.00    +0.000 C 
BRANCH  29  30
ATOM     30  C   UNL     1       3.369   3.066  19.005  0.00  0.00    +0.000 C 
BRANCH  30  31
ATOM     31  N   UNL     1       2.252   2.648  19.881  0.00  0.00    +0.000 NA
ATOM     32  C   UNL     1       2.468   3.201  21.226  0.00  0.00    +0.000 C 
ATOM     33  C   UNL     1       0.979   3.147  19.349  0.00  0.00    +0.000 C 
ENDBRANCH  30  31
ENDBRANCH  29  30
ENDBRANCH   9  29
TORSDOF 10
ENDMDL
MODEL 4
REMARK VINA RESULT:      -7.2      2.398      8.985
REMARK  Name = 
REMARK  13 active torsions:
REMARK  status: ('A' for Active; 'I' for Inactive)
REMARK    1  A    between atoms: C_1  and  C_2
REMARK    2  A    between atoms: C_2  and  C_3
REMARK    3  A    between atoms: C_3  and  C_4
REMARK    4  A    between atoms: C_4  and  N_5
REMARK    5  A    between atoms: C_6  and  C_8
REMARK    6  A    between atoms: C_13  and  C_14
REMARK    7  A    between atoms: C_14  and  C_15
REMARK    8  A    between atoms: C_15  and  N_16
REMARK    9  A    between atoms: C_25  and  C_26
REMARK   10  A    between atoms: C_26  and  C_27
REMARK   11  A    between atoms: C_27  and  N_28
REMARK   12  A    between atoms: N_28  and  C_29
REMARK   13  A    between atoms: N_28  and  C_30
REMARK                            x       y       z     vdW  Elec       q    Type
REMARK                         _______ _______ _______ _____ _____    ______ ____
ROOT
ATOM      1  C   UNL     1       3.274   6.241  18.272  0.00  0.00    +0.000 A 
ATOM      2  N   UNL     1       3.036   7.414  17.585  0.00  0.00    +0.000 N 
ATOM      3  C   UNL     1       2.283   8.287  18.337  0.00  0.00    +0.000 A 
ATOM      4  C   UNL     1       1.872   9.598  18.068  0.00  0.00    +0.000 A 
ATOM      5  C   UNL     1       1.148  10.273  19.062  0.00  0.00    +0.000 A 
ATOM      6  C   UNL     1       0.799   9.652  20.267  0.00  0.00    +0.000 A 
ATOM      7  C   UNL     1       1.194   8.324  20.483  0.00  0.00    +0.000 A 
ATOM      8  C   UNL     1       1.956   7.633  19.521  0.00  0.00    +0.000 A 
ATOM      9  C   UNL     1       2.536   6.328  19.459  0.00  0.00    +0.000 A 
ATOM     10  H   UNL     1       3.371   7.608  16.653  0.00  0.00    +0.000 HD
ENDROOT
BRANCH   1  12
ATOM     11  N   UNL     1       4.754   5.320  16.631  0.00  0.00    +0.000 N 
ATOM     12  C   UNL     1       4.088   5.134  17.823  0.00  0.00    +0.000 C 
ATOM     13  O   UNL     1       4.241   4.096  18.469  0.00  0.00    +0.000 OA
ATOM     14  H   UNL     1       4.829   6.252  16.254  0.00  0.00    +0.000 HD
BRANCH  11  15
ATOM     15  C   UNL     1       5.673   4.299  16.151  0.00  0.00    +0.000 C 
BRANCH  15  16
ATOM     16  C   UNL     1       7.137   4.724  16.268  0.00  0.00    +0.000 C 
BRANCH  16  18
ATOM     17  C   UNL     1       7.679   5.943  18.407  0.00  0.00    +0.000 C 
ATOM     18  C   UNL     1       7.661   4.598  17.699  0.00  0.00    +0.000 C 
ENDBRANCH  16  18
ENDBRANCH  15  16
ENDBRANCH  11  15
ENDBRANCH   1  12
BRANCH   6  19
ATOM     19  C   UNL     1       0.063  10.353  21.389  0.00  0.00    +0.000 C 
BRANCH  19  20
ATOM     20  C   UNL     1      -0.076  11.858  21.180  0.00  0.00    +0.000 C 
BRANCH  20  21
ATOM     21  N   UNL     1      -1.438  12.252  20.928  0.00  0.00    +0.000 N 
ATOM     22  C   UNL     1      -2.407  12.362  21.883  0.00  0.00    +0.000 C 
ATOM     23  O   UNL     1      -2.285  12.130  23.079  0.00  0.00    +0.000 OA
ATOM     24  C   UNL     1      -3.687  12.821  21.211  0.00  0.00    +0.000 C 
ATOM     25  N   UNL     1      -3.256  12.920  19.846  0.00  0.00    +0.000 N 
ATOM     26  C   UNL     1      -1.929  12.583  19.697  0.00  0.00    +0.000 C 
ATOM     27  O   UNL     1      -1.338  12.588  18.637  0.00  0.00    +0.000 OA
ATOM     28  H   UNL     1      -3.818  13.193  19.050  0.00  0.00    +0.000 HD
ENDBRANCH  20  21
ENDBRANCH  19  20
ENDBRANCH   6  19
BRANCH   9  29
ATOM     29  C   UNL     1       2.461   5.264  20.516  0.00  0.00    +0.000 C 
BRANCH  29  30
ATOM     30  C   UNL     1       1.123   4.510  20.534  0.00  0.00    +0.000 C 
BRANCH  30  31
ATOM     31  N   UNL     1       1.241   3.046  20.717  0.00  0.00    +0.000 NA
ATOM     32  C   UNL     1       1.342   2.408  19.396  0.00  0.00    +0.000 C 
ATOM     33  C   UNL     1       2.440   2.731  21.502  0.00  0.00    +0.000 C 
ENDBRANCH  30  31
ENDBRANCH  29  30
ENDBRANCH   9  29
TORSDOF 10
ENDMDL
MODEL 5
REMARK VINA RESULT:      -7.2      1.082      1.443
REMARK  Name = 
REMARK  13 active torsions:
REMARK  status: ('A' for Active; 'I' for Inactive)
REMARK    1  A    between atoms: C_1  and  C_2
REMARK    2  A    between atoms: C_2  and  C_3
REMARK    3  A    between atoms: C_3  and  C_4
REMARK    4  A    between atoms: C_4  and  N_5
REMARK    5  A    between atoms: C_6  and  C_8
REMARK    6  A    between atoms: C_13  and  C_14
REMARK    7  A    between atoms: C_14  and  C_15
REMARK    8  A    between atoms: C_15  and  N_16
REMARK    9  A    between atoms: C_25  and  C_26
REMARK   10  A    between atoms: C_26  and  C_27
REMARK   11  A    between atoms: C_27  and  N_28
REMARK   12  A    between atoms: N_28  and  C_29
REMARK   13  A    between atoms: N_28  and  C_30
REMARK                            x       y       z     vdW  Elec       q    Type
REMARK                         _______ _______ _______ _____ _____    ______ ____
ROOT
ATOM      1  C   UNL     1       1.264   9.182  20.750  0.00  0.00    +0.000 A 
ATOM      2  N   UNL     1       1.499   7.995  21.415  0.00  0.00    +0.000 N 
ATOM      3  C   UNL     1       1.990   7.035  20.560  0.00  0.00    +0.000 A 
ATOM      4  C   UNL     1       2.426   5.729  20.813  0.00  0.00    +0.000 A 
ATOM      5  C   UNL     1       2.935   4.989  19.736  0.00  0.00    +0.000 A 
ATOM      6  C   UNL     1       2.968   5.509  18.437  0.00  0.00    +0.000 A 
ATOM      7  C   UNL     1       2.485   6.807  18.215  0.00  0.00    +0.000 A 
ATOM      8  C   UNL     1       2.005   7.589  19.284  0.00  0.00    +0.000 A 
ATOM      9  C   UNL     1       1.499   8.922  19.394  0.00  0.00    +0.000 A 
ATOM     10  H   UNL     1       1.334   7.851  22.400  0.00  0.00    +0.000 HD
ENDROOT
BRANCH   1  12
ATOM     11  N   UNL     1      -0.441  10.410  21.896  0.00  0.00    +0.000 N 
ATOM     12  C   UNL     1       0.820  10.424  21.342  0.00  0.00    +0.000 C 
ATOM     13  O   UNL     1       1.523  11.434  21.413  0.00  0.00    +0.000 OA
ATOM     14  H   UNL     1      -0.892   9.524  22.064  0.00  0.00    +0.000 HD
BRANCH  11  15
ATOM     15  C   UNL     1      -0.933  11.585  22.600  0.00  0.00    +0.000 C 
BRANCH  15  16
ATOM     16  C   UNL     1      -2.245  11.320  23.340  0.00  0.00    +0.000 C 
BRANCH  16  18
ATOM     17  C   UNL     1      -4.154  12.521  24.464  0.00  0.00    +0.000 C 
ATOM     18  C   UNL     1      -3.187  12.524  23.292  0.00  0.00    +0.000 C 
ENDBRANCH  16  18
ENDBRANCH  15  16
ENDBRANCH  11  15
ENDBRANCH   1  12
BRANCH   6  19
ATOM     19  C   UNL     1       3.554   4.771  17.252  0.00  0.00    +0.000 C 
BRANCH  19  20
ATOM     20  C   UNL     1       4.931   4.174  17.526  0.00  0.00    +0.000 C 
BRANCH  20  21
ATOM     21  N   UNL     1       5.973   5.169  17.507  0.00  0.00    +0.000 N 
ATOM     22  C   UNL     1       6.653   5.605  18.607  0.00  0.00    +0.000 C 
ATOM     23  O   UNL     1       6.481   5.245  19.765  0.00  0.00    +0.000 OA
ATOM     24  C   UNL     1       7.675   6.631  18.157  0.00  0.00    +0.000 C 
ATOM     25  N   UNL     1       7.428   6.660  16.744  0.00  0.00    +0.000 N 
ATOM     26  C   UNL     1       6.424   5.791  16.378  0.00  0.00    +0.000 C 
ATOM     27  O   UNL     1       6.033   5.639  15.238  0.00  0.00    +0.000 OA
ATOM     28  H   UNL     1       7.900   7.232  16.056  0.00  0.00    +0.000 HD
ENDBRANCH  20  21
ENDBRANCH  19  20
ENDBRANCH   6  19
BRANCH   9  29
ATOM     29  C   UNL     1       1.341   9.915  18.278  0.00  0.00    +0.000 C 
BRANCH  29  30
ATOM     30  C   UNL     1      -0.096  10.012  17.744  0.00  0.00    +0.000 C 
BRANCH  30  31
ATOM     31  N   UNL     1      -1.016  10.806  18.588  0.00  0.00    +0.000 NA
ATOM     32  C   UNL     1      -0.675  12.230  18.456  0.00  0.00    +0.000 C 
ATOM     33  C   UNL     1      -2.403  10.597  18.159  0.00  0.00    +0.000 C 
ENDBRANCH  30  31
ENDBRANCH  29  30
ENDBRANCH   9  29
TORSDOF 10
ENDMDL
MODEL 6
REMARK VINA RESULT:      -7.1      2.558      9.257
REMARK  Name = 
REMARK  13 active torsions:
REMARK  status: ('A' for Active; 'I' for Inactive)
REMARK    1  A    between atoms: C_1  and  C_2
REMARK    2  A    between atoms: C_2  and  C_3
REMARK    3  A    between atoms: C_3  and  C_4
REMARK    4  A    between atoms: C_4  and  N_5
REMARK    5  A    between atoms: C_6  and  C_8
REMARK    6  A    between atoms: C_13  and  C_14
REMARK    7  A    between atoms: C_14  and  C_15
REMARK    8  A    between atoms: C_15  and  N_16
REMARK    9  A    between atoms: C_25  and  C_26
REMARK   10  A    between atoms: C_26  and  C_27
REMARK   11  A    between atoms: C_27  and  N_28
REMARK   12  A    between atoms: N_28  and  C_29
REMARK   13  A    between atoms: N_28  and  C_30
REMARK                            x       y       z     vdW  Elec       q    Type
REMARK                         _______ _______ _______ _____ _____    ______ ____
ROOT
ATOM      1  C   UNL     1       3.204   6.382  18.277  0.00  0.00    +0.000 A 
ATOM      2  N   UNL     1       2.974   7.580  17.631  0.00  0.00    +0.000 N 
ATOM      3  C   UNL     1       2.211   8.424  18.405  0.00  0.00    +0.000 A 
ATOM      4  C   UNL     1       1.803   9.744  18.180  0.00  0.00    +0.000 A 
ATOM      5  C   UNL     1       1.065  10.382  19.188  0.00  0.00    +0.000 A 
ATOM      6  C   UNL     1       0.701   9.716  20.365  0.00  0.00    +0.000 A 
ATOM      7  C   UNL     1       1.094   8.381  20.537  0.00  0.00    +0.000 A 
ATOM      8  C   UNL     1       1.869   7.727  19.560  0.00  0.00    +0.000 A 
ATOM      9  C   UNL     1       2.451   6.425  19.456  0.00  0.00    +0.000 A 
ATOM     10  H   UNL     1       3.322   7.808  16.711  0.00  0.00    +0.000 HD
ENDROOT
BRANCH   1  12
ATOM     11  N   UNL     1       5.372   5.389  18.068  0.00  0.00    +0.000 N 
ATOM     12  C   UNL     1       4.024   5.293  17.797  0.00  0.00    +0.000 C 
ATOM     13  O   UNL     1       3.571   4.298  17.228  0.00  0.00    +0.000 OA
ATOM     14  H   UNL     1       5.687   6.061  18.750  0.00  0.00    +0.000 HD
BRANCH  11  15
ATOM     15  C   UNL     1       6.260   4.293  17.709  0.00  0.00    +0.000 C 
BRANCH  15  16
ATOM     16  C   UNL     1       7.325   4.708  16.693  0.00  0.00    +0.000 C 
BRANCH  16  18
ATOM     17  C   UNL     1       6.186   3.893  14.597  0.00  0.00    +0.000 C 
ATOM     18  C   UNL     1       6.714   5.105  15.348  0.00  0.00    +0.000 C 
ENDBRANCH  16  18
ENDBRANCH  15  16
ENDBRANCH  11  15
ENDBRANCH   1  12
BRANCH   6  19
ATOM     19  C   UNL     1      -0.049  10.375  21.503  0.00  0.00    +0.000 C 
BRANCH  19  20
ATOM     20  C   UNL     1      -0.259  11.874  21.308  0.00  0.00    +0.000 C 
BRANCH  20  21
ATOM     21  N   UNL     1      -1.650  12.217  21.159  0.00  0.00    +0.000 N 
ATOM     22  C   UNL     1      -2.278  12.419  19.964  0.00  0.00    +0.000 C 
ATOM     23  O   UNL     1      -1.770  12.363  18.851  0.00  0.00    +0.000 OA
ATOM     24  C   UNL     1      -3.735  12.736  20.240  0.00  0.00    +0.000 C 
ATOM     25  N   UNL     1      -3.758  12.675  21.674  0.00  0.00    +0.000 N 
ATOM     26  C   UNL     1      -2.523  12.366  22.198  0.00  0.00    +0.000 C 
ATOM     27  O   UNL     1      -2.292  12.259  23.385  0.00  0.00    +0.000 OA
ATOM     28  H   UNL     1      -4.556  12.835  22.276  0.00  0.00    +0.000 HD
ENDBRANCH  20  21
ENDBRANCH  19  20
ENDBRANCH   6  19
BRANCH   9  29
ATOM     29  C   UNL     1       2.363   5.323  20.473  0.00  0.00    +0.000 C 
BRANCH  29  30
ATOM     30  C   UNL     1       1.063   4.509  20.384  0.00  0.00    +0.000 C 
BRANCH  30  31
ATOM     31  N   UNL     1       1.214   3.069  20.690  0.00  0.00    +0.000 NA
ATOM     32  C   UNL     1       1.559   2.352  19.454  0.00  0.00    +0.000 C 
ATOM     33  C   UNL     1       2.279   2.872  21.680  0.00  0.00    +0.000 C 
ENDBRANCH  30  31
ENDBRANCH  29  30
ENDBRANCH   9  29
TORSDOF 10
ENDMDL
MODEL 7
REMARK VINA RESULT:      -7.1      2.449      9.052
REMARK  Name = 
REMARK  13 active torsions:
REMARK  status: ('A' for Active; 'I' for Inactive)
REMARK    1  A    between atoms: C_1  and  C_2
REMARK    2  A    between atoms: C_2  and  C_3
REMARK    3  A    between atoms: C_3  and  C_4
REMARK    4  A    between atoms: C_4  and  N_5
REMARK    5  A    between atoms: C_6  and  C_8
REMARK    6  A    between atoms: C_13  and  C_14
REMARK    7  A    between atoms: C_14  and  C_15
REMARK    8  A    between atoms: C_15  and  N_16
REMARK    9  A    between atoms: C_25  and  C_26
REMARK   10  A    between atoms: C_26  and  C_27
REMARK   11  A    between atoms: C_27  and  N_28
REMARK   12  A    between atoms: N_28  and  C_29
REMARK   13  A    between atoms: N_28  and  C_30
REMARK                            x       y       z     vdW  Elec       q    Type
REMARK                         _______ _______ _______ _____ _____    ______ ____
ROOT
ATOM      1  C   UNL     1       4.988   5.473  16.580  0.00  0.00    +0.000 A 
ATOM      2  N   UNL     1       4.587   6.768  16.322  0.00  0.00    +0.000 N 
ATOM      3  C   UNL     1       3.715   7.221  17.286  0.00  0.00    +0.000 A 
ATOM      4  C   UNL     1       3.123   8.478  17.459  0.00  0.00    +0.000 A 
ATOM      5  C   UNL     1       2.306   8.666  18.584  0.00  0.00    +0.000 A 
ATOM      6  C   UNL     1       2.045   7.628  19.485  0.00  0.00    +0.000 A 
ATOM      7  C   UNL     1       2.624   6.371  19.256  0.00  0.00    +0.000 A 
ATOM      8  C   UNL     1       3.480   6.162  18.158  0.00  0.00    +0.000 A 
ATOM      9  C   UNL     1       4.240   5.047  17.685  0.00  0.00    +0.000 A 
ATOM     10  H   UNL     1       4.895   7.314  15.531  0.00  0.00    +0.000 HD
ENDROOT
BRANCH   1  12
ATOM     11  N   UNL     1       5.655   4.507  14.493  0.00  0.00    +0.000 N 
ATOM     12  C   UNL     1       5.952   4.707  15.824  0.00  0.00    +0.000 C 
ATOM     13  O   UNL     1       7.012   4.290  16.296  0.00  0.00    +0.000 OA
ATOM     14  H   UNL     1       4.932   5.065  14.065  0.00  0.00    +0.000 HD
BRANCH  11  15
ATOM     15  C   UNL     1       6.614   3.832  13.632  0.00  0.00    +0.000 C 
BRANCH  15  16
ATOM     16  C   UNL     1       6.025   3.469  12.269  0.00  0.00    +0.000 C 
BRANCH  16  18
ATOM     17  C   UNL     1       3.917   3.304  10.897  0.00  0.00    +0.000 C 
ATOM     18  C   UNL     1       4.496   3.415  12.297  0.00  0.00    +0.000 C 
ENDBRANCH  16  18
ENDBRANCH  15  16
ENDBRANCH  11  15
ENDBRANCH   1  12
BRANCH   6  19
ATOM     19  C   UNL     1       1.213   7.795  20.739  0.00  0.00    +0.000 C 
BRANCH  19  20
ATOM     20  C   UNL     1       1.595   9.020  21.565  0.00  0.00    +0.000 C 
BRANCH  20  21
ATOM     21  N   UNL     1       0.463   9.865  21.847  0.00  0.00    +0.000 N 
ATOM     22  C   UNL     1      -0.102  10.024  23.079  0.00  0.00    +0.000 C 
ATOM     23  O   UNL     1       0.241   9.473  24.118  0.00  0.00    +0.000 OA
ATOM     24  C   UNL     1      -1.248  11.009  22.953  0.00  0.00    +0.000 C 
ATOM     25  N   UNL     1      -1.194  11.310  21.551  0.00  0.00    +0.000 N 
ATOM     26  C   UNL     1      -0.179  10.630  20.916  0.00  0.00    +0.000 C 
ATOM     27  O   UNL     1       0.065  10.719  19.729  0.00  0.00    +0.000 OA
ATOM     28  H   UNL     1      -1.804  11.935  21.040  0.00  0.00    +0.000 HD
ENDBRANCH  20  21
ENDBRANCH  19  20
ENDBRANCH   6  19
BRANCH   9  29
ATOM     29  C   UNL     1       4.314   3.684  18.311  0.00  0.00    +0.000 C 
BRANCH  29  30
ATOM     30  C   UNL     1       3.062   2.828  18.066  0.00  0.00    +0.000 C 
BRANCH  30  31
ATOM     31  N   UNL     1       2.541   2.137  19.267  0.00  0.00    +0.000 NA
ATOM     32  C   UNL     1       2.858   2.943  20.455  0.00  0.00    +0.000 C 
ATOM     33  C   UNL     1       1.087   1.973  19.164  0.00  0.00    +0.000 C 
ENDBRANCH  30  31
ENDBRANCH  29  30
ENDBRANCH   9  29
TORSDOF 10
ENDMDL
MODEL 8
REMARK VINA RESULT:      -7.1      2.404      9.039
REMARK  Name = 
REMARK  13 active torsions:
REMARK  status: ('A' for Active; 'I' for Inactive)
REMARK    1  A    between atoms: C_1  and  C_2
REMARK    2  A    between atoms: C_2  and  C_3
REMARK    3  A    between atoms: C_3  and  C_4
REMARK    4  A    between atoms: C_4  and  N_5
REMARK    5  A    between atoms: C_6  and  C_8
REMARK    6  A    between atoms: C_13  and  C_14
REMARK    7  A    between atoms: C_14  and  C_15
REMARK    8  A    between atoms: C_15  and  N_16
REMARK    9  A    between atoms: C_25  and  C_26
REMARK   10  A    between atoms: C_26  and  C_27
REMARK   11  A    between atoms: C_27  and  N_28
REMARK   12  A    between atoms: N_28  and  C_29
REMARK   13  A    between atoms: N_28  and  C_30
REMARK                            x       y       z     vdW  Elec       q    Type
REMARK                         _______ _______ _______ _____ _____    ______ ____
ROOT
ATOM      1  C   UNL     1       4.732   5.787  17.175  0.00  0.00    +0.000 A 
ATOM      2  N   UNL     1       4.108   6.948  16.762  0.00  0.00    +0.000 N 
ATOM      3  C   UNL     1       3.272   7.438  17.739  0.00  0.00    +0.000 A 
ATOM      4  C   UNL     1       2.507   8.610  17.778  0.00  0.00    +0.000 A 
ATOM      5  C   UNL     1       1.782   8.879  18.948  0.00  0.00    +0.000 A 
ATOM      6  C   UNL     1       1.776   7.991  20.030  0.00  0.00    +0.000 A 
ATOM      7  C   UNL     1       2.522   6.808  19.938  0.00  0.00    +0.000 A 
ATOM      8  C   UNL     1       3.292   6.528  18.792  0.00  0.00    +0.000 A 
ATOM      9  C   UNL     1       4.170   5.464  18.416  0.00  0.00    +0.000 A 
ATOM     10  H   UNL     1       4.249   7.382  15.862  0.00  0.00    +0.000 HD
ENDROOT
BRANCH   1  12
ATOM     11  N   UNL     1       5.272   4.335  15.350  0.00  0.00    +0.000 N 
ATOM     12  C   UNL     1       5.729   5.042  16.441  0.00  0.00    +0.000 C 
ATOM     13  O   UNL     1       6.931   5.059  16.715  0.00  0.00    +0.000 OA
ATOM     14  H   UNL     1       4.353   4.537  14.988  0.00  0.00    +0.000 HD
BRANCH  11  15
ATOM     15  C   UNL     1       6.218   3.635  14.495  0.00  0.00    +0.000 C 
BRANCH  15  16
ATOM     16  C   UNL     1       6.299   4.238  13.092  0.00  0.00    +0.000 C 
BRANCH  16  18
ATOM     17  C   UNL     1       5.289   2.503  11.566  0.00  0.00    +0.000 C 
ATOM     18  C   UNL     1       6.573   3.176  12.024  0.00  0.00    +0.000 C 
ENDBRANCH  16  18
ENDBRANCH  15  16
ENDBRANCH  11  15
ENDBRANCH   1  12
BRANCH   6  19
ATOM     19  C   UNL     1       1.052   8.261  21.332  0.00  0.00    +0.000 C 
BRANCH  19  20
ATOM     20  C   UNL     1      -0.397   8.700  21.144  0.00  0.00    +0.000 C 
BRANCH  20  21
ATOM     21  N   UNL     1      -0.575  10.112  21.368  0.00  0.00    +0.000 N 
ATOM     22  C   UNL     1      -0.479  10.725  22.583  0.00  0.00    +0.000 C 
ATOM     23  O   UNL     1      -0.252  10.187  23.659  0.00  0.00    +0.000 OA
ATOM     24  C   UNL     1      -0.709  12.211  22.385  0.00  0.00    +0.000 C 
ATOM     25  N   UNL     1      -0.929  12.265  20.968  0.00  0.00    +0.000 N 
ATOM     26  C   UNL     1      -0.845  11.021  20.385  0.00  0.00    +0.000 C 
ATOM     27  O   UNL     1      -0.996  10.810  19.198  0.00  0.00    +0.000 OA
ATOM     28  H   UNL     1      -1.131  13.088  20.415  0.00  0.00    +0.000 HD
ENDBRANCH  20  21
ENDBRANCH  19  20
ENDBRANCH   6  19
BRANCH   9  29
ATOM     29  C   UNL     1       4.518   4.258  19.241  0.00  0.00    +0.000 C 
BRANCH  29  30
ATOM     30  C   UNL     1       3.538   3.089  19.061  0.00  0.00    +0.000 C 
BRANCH  30  31
ATOM     31  N   UNL     1       2.221   3.282  19.707  0.00  0.00    +0.000 NA
ATOM     32  C   UNL     1       1.201   2.556  18.938  0.00  0.00    +0.000 C 
ATOM     33  C   UNL     1       2.252   2.768  21.081  0.00  0.00    +0.000 C 
ENDBRANCH  30  31
ENDBRANCH  29  30
ENDBRANCH   9  29
TORSDOF 10
ENDMDL
MODEL 9
REMARK VINA RESULT:      -7.0      2.505      9.261
REMARK  Name = 
REMARK  13 active torsions:
REMARK  status: ('A' for Active; 'I' for Inactive)
REMARK    1  A    between atoms: C_1  and  C_2
REMARK    2  A    between atoms: C_2  and  C_3
REMARK    3  A    between atoms: C_3  and  C_4
REMARK    4  A    between atoms: C_4  and  N_5
REMARK    5  A    between atoms: C_6  and  C_8
REMARK    6  A    between atoms: C_13  and  C_14
REMARK    7  A    between atoms: C_14  and  C_15
REMARK    8  A    between atoms: C_15  and  N_16
REMARK    9  A    between atoms: C_25  and  C_26
REMARK   10  A    between atoms: C_26  and  C_27
REMARK   11  A    between atoms: C_27  and  N_28
REMARK   12  A    between atoms: N_28  and  C_29
REMARK   13  A    between atoms: N_28  and  C_30
REMARK                            x       y       z     vdW  Elec       q    Type
REMARK                         _______ _______ _______ _____ _____    ______ ____
ROOT
ATOM      1  C   UNL     1       4.107   6.005  17.672  0.00  0.00    +0.000 A 
ATOM      2  N   UNL     1       3.678   7.155  17.040  0.00  0.00    +0.000 N 
ATOM      3  C   UNL     1       2.834   7.882  17.849  0.00  0.00    +0.000 A 
ATOM      4  C   UNL     1       2.229   9.128  17.646  0.00  0.00    +0.000 A 
ATOM      5  C   UNL     1       1.449   9.653  18.687  0.00  0.00    +0.000 A 
ATOM      6  C   UNL     1       1.235   8.945  19.875  0.00  0.00    +0.000 A 
ATOM      7  C   UNL     1       1.825   7.682  20.025  0.00  0.00    +0.000 A 
ATOM      8  C   UNL     1       2.646   7.145  19.014  0.00  0.00    +0.000 A 
ATOM      9  C   UNL     1       3.405   5.941  18.882  0.00  0.00    +0.000 A 
ATOM     10  H   UNL     1       3.950   7.430  16.107  0.00  0.00    +0.000 HD
ENDROOT
BRANCH   1  12
ATOM     11  N   UNL     1       4.963   4.771  15.807  0.00  0.00    +0.000 N 
ATOM     12  C   UNL     1       5.056   5.046  17.154  0.00  0.00    +0.000 C 
ATOM     13  O   UNL     1       5.943   4.528  17.837  0.00  0.00    +0.000 OA
ATOM     14  H   UNL     1       4.420   5.385  15.220  0.00  0.00    +0.000 HD
BRANCH  11  15
ATOM     15  C   UNL     1       5.939   3.893  15.180  0.00  0.00    +0.000 C 
BRANCH  15  16
ATOM     16  C   UNL     1       6.634   4.545  13.984  0.00  0.00    +0.000 C 
BRANCH  16  18
ATOM     17  C   UNL     1       5.147   3.360  12.329  0.00  0.00    +0.000 C 
ATOM     18  C   UNL     1       6.580   3.663  12.735  0.00  0.00    +0.000 C 
ENDBRANCH  16  18
ENDBRANCH  15  16
ENDBRANCH  11  15
ENDBRANCH   1  12
BRANCH   6  19
ATOM     19  C   UNL     1       0.446   9.490  21.046  0.00  0.00    +0.000 C 
BRANCH  19  20
ATOM     20  C   UNL     1       0.508  11.010  21.168  0.00  0.00    +0.000 C 
BRANCH  20  21
ATOM     21  N   UNL     1      -0.801  11.610  21.210  0.00  0.00    +0.000 N 
ATOM     22  C   UNL     1      -1.528  11.814  22.347  0.00  0.00    +0.000 C 
ATOM     23  O   UNL     1      -1.203  11.510  23.488  0.00  0.00    +0.000 OA
ATOM     24  C   UNL     1      -2.831  12.487  21.963  0.00  0.00    +0.000 C 
ATOM     25  N   UNL     1      -2.676  12.588  20.540  0.00  0.00    +0.000 N 
ATOM     26  C   UNL     1      -1.474  12.069  20.114  0.00  0.00    +0.000 C 
ATOM     27  O   UNL     1      -1.115  12.038  18.954  0.00  0.00    +0.000 OA
ATOM     28  H   UNL     1      -3.339  12.978  19.883  0.00  0.00    +0.000 HD
ENDBRANCH  20  21
ENDBRANCH  19  20
ENDBRANCH   6  19
BRANCH   9  29
ATOM     29  C   UNL     1       3.522   4.840  19.897  0.00  0.00    +0.000 C 
BRANCH  29  30
ATOM     30  C   UNL     1       2.449   3.750  19.745  0.00  0.00    +0.000 C 
BRANCH  30  31
ATOM     31  N   UNL     1       2.980   2.392  19.494  0.00  0.00    +0.000 NA
ATOM     32  C   UNL     1       2.987   2.143  18.046  0.00  0.00    +0.000 C 
ATOM     33  C   UNL     1       4.347   2.281  20.013  0.00  0.00    +0.000 C 
ENDBRANCH  30  31
ENDBRANCH  29  30
ENDBRANCH   9  29
TORSDOF 10
ENDMDL
