MODEL 1
REMARK VINA RESULT:      -8.4      0.000      0.000
REMARK  Name = 
REMARK  5 active torsions:
REMARK  status: ('A' for Active; 'I' for Inactive)
REMARK    1  A    between atoms: C_2  and  C_4
REMARK    2  A    between atoms: N_8  and  C_9
REMARK    3  A    between atoms: C_14  and  N_15
REMARK    4  A    between atoms: C_17  and  N_18
REMARK    5  A    between atoms: N_18  and  C_19
REMARK                            x       y       z     vdW  Elec       q    Type
REMARK                         _______ _______ _______ _____ _____    ______ ____
ROOT
ATOM      1  C   UNL     1       2.059   8.305  18.828  0.00  0.00    +0.000 A 
ATOM      2  C   UNL     1       1.490   8.177  20.100  0.00  0.00    +0.000 A 
ATOM      3  C   UNL     1       1.744   7.038  20.855  0.00  0.00    +0.000 A 
ATOM      4  C   UNL     1       2.473   6.008  20.291  0.00  0.00    +0.000 A 
ATOM      5  N   UNL     1       2.561   4.809  20.988  0.00  0.00    +0.000 N 
ATOM      6  N   UNL     1       3.080   6.153  19.104  0.00  0.00    +0.000 NA
ATOM      7  C   UNL     1       2.924   7.300  18.387  0.00  0.00    +0.000 A 
ATOM      8  H   UNL     1       3.273   4.931  21.706  0.00  0.00    +0.000 HD
ENDROOT
BRANCH   5   9
ATOM      9  C   UNL     1       2.730   3.530  20.262  0.00  0.00    +0.000 C 
ATOM     10  C   UNL     1       1.324   3.220  19.697  0.00  0.00    +0.000 C 
ATOM     11  C   UNL     1       1.296   2.063  18.713  0.00  0.00    +0.000 C 
ATOM     12  C   UNL     1       2.237   2.327  17.549  0.00  0.00    +0.000 C 
ATOM     13  C   UNL     1       3.658   2.511  18.053  0.00  0.00    +0.000 C 
ATOM     14  C   UNL     1       3.782   3.635  19.093  0.00  0.00    +0.000 C 
BRANCH  14  15
ATOM     15  N   UNL     1       5.194   3.608  19.530  0.00  0.00    +0.000 NA
ATOM     16  H   UNL     1       5.251   3.150  20.441  0.00  0.00    +0.000 HD
ATOM     17  H   UNL     1       5.461   4.570  19.759  0.00  0.00    +0.000 HD
ENDBRANCH  14  15
ENDBRANCH   5   9
BRANCH   1  19
ATOM     18  N   UNL     1       0.357   9.681  17.753  0.00  0.00    +0.000 N 
ATOM     19  C   UNL     1       1.690   9.434  17.943  0.00  0.00    +0.000 C 
ATOM     20  O   UNL     1       2.543  10.102  17.372  0.00  0.00    +0.000 OA
ATOM     21  H   UNL     1       0.108  10.443  17.135  0.00  0.00    +0.000 HD
ATOM     22  H   UNL     1      -0.378   9.274  18.316  0.00  0.00    +0.000 HD
ENDBRANCH   1  19
BRANCH   7  23
ATOM     23  N   UNL     1       3.728   7.469  17.239  0.00  0.00    +0.000 N 
ATOM     24  H   UNL     1       3.211   7.869  16.457  0.00  0.00    +0.000 HD
BRANCH  23  25
ATOM     25  C   UNL     1       4.900   6.746  16.936  0.00  0.00    +0.000 A 
ATOM     26  C   UNL     1       6.123   7.078  17.530  0.00  0.00    +0.000 A 
ATOM     27  C   UNL     1       7.301   6.411  17.166  0.00  0.00    +0.000 A 
ATOM     28  C   UNL     1       7.268   5.397  16.209  0.00  0.00    +0.000 A 
ATOM     29  C   UNL     1       6.055   5.041  15.632  0.00  0.00    +0.000 A 
ATOM     30 CL   UNL     1       5.996   3.792  14.450  0.00  0.00    +0.000 Cl
ATOM     31  C   UNL     1       4.885   5.702  15.997  0.00  0.00    +0.000 A 
ENDBRANCH  23  25
ENDBRANCH   7  23
TORSDOF 5
ENDMDL
MODEL 2
REMARK VINA RESULT:      -8.2      1.132      1.453
REMARK  Name = 
REMARK  5 active torsions:
REMARK  status: ('A' for Active; 'I' for Inactive)
REMARK    1  A    between atoms: C_2  and  C_4
REMARK    2  A    between atoms: N_8  and  C_9
REMARK    3  A    between atoms: C_14  and  N_15
REMARK    4  A    between atoms: C_17  and  N_18
REMARK    5  A    between atoms: N_18  and  C_19
REMARK                            x       y       z     vdW  Elec       q    Type
REMARK                         _______ _______ _______ _____ _____    ______ ____
ROOT
ATOM      1  C   UNL     1       2.008   8.349  18.862  0.00  0.00    +0.000 A 
ATOM      2  C   UNL     1       1.397   8.258  20.117  0.00  0.00    +0.000 A 
ATOM      3  C   UNL     1       1.595   7.124  20.897  0.00  0.00    +0.000 A 
ATOM      4  C   UNL     1       2.310   6.065  20.370  0.00  0.00    +0.000 A 
ATOM      5  N   UNL     1       2.342   4.875  21.088  0.00  0.00    +0.000 N 
ATOM      6  N   UNL     1       2.958   6.173  19.201  0.00  0.00    +0.000 NA
ATOM      7  C   UNL     1       2.856   7.313  18.463  0.00  0.00    +0.000 A 
ATOM      8  H   UNL     1       3.036   4.989  21.825  0.00  0.00    +0.000 HD
ENDROOT
BRANCH   5   9
ATOM      9  C   UNL     1       2.496   3.580  20.387  0.00  0.00    +0.000 C 
ATOM     10  C   UNL     1       1.121   3.338  19.721  0.00  0.00    +0.000 C 
ATOM     11  C   UNL     1       1.104   2.173  18.747  0.00  0.00    +0.000 C 
ATOM     12  C   UNL     1       2.141   2.373  17.654  0.00  0.00    +0.000 C 
ATOM     13  C   UNL     1       3.529   2.488  18.260  0.00  0.00    +0.000 C 
ATOM     14  C   UNL     1       3.636   3.616  19.298  0.00  0.00    +0.000 C 
BRANCH  14  15
ATOM     15  N   UNL     1       5.008   3.520  19.838  0.00  0.00    +0.000 NA
ATOM     16  H   UNL     1       5.499   4.397  19.656  0.00  0.00    +0.000 HD
ATOM     17  H   UNL     1       5.523   2.861  19.247  0.00  0.00    +0.000 HD
ENDBRANCH  14  15
ENDBRANCH   5   9
BRANCH   1  19
ATOM     18  N   UNL     1       0.380   9.770  17.731  0.00  0.00    +0.000 N 
ATOM     19  C   UNL     1       1.698   9.475  17.948  0.00  0.00    +0.000 C 
ATOM     20  O   UNL     1       2.587  10.096  17.380  0.00  0.00    +0.000 OA
ATOM     21  H   UNL     1       0.172  10.529  17.095  0.00  0.00    +0.000 HD
ATOM     22  H   UNL     1      -0.379   9.404  18.289  0.00  0.00    +0.000 HD
ENDBRANCH   1  19
BRANCH   7  23
ATOM     23  N   UNL     1       3.700   7.441  17.337  0.00  0.00    +0.000 N 
ATOM     24  H   UNL     1       3.218   7.841  16.533  0.00  0.00    +0.000 HD
BRANCH  23  25
ATOM     25  C   UNL     1       4.860   6.683  17.082  0.00  0.00    +0.000 A 
ATOM     26  C   UNL     1       5.012   5.986  15.878  0.00  0.00    +0.000 A 
ATOM     27  C   UNL     1       6.130   5.168  15.659  0.00  0.00    +0.000 A 
ATOM     28  C   UNL     1       7.114   5.046  16.640  0.00  0.00    +0.000 A 
ATOM     29  C   UNL     1       6.986   5.754  17.829  0.00  0.00    +0.000 A 
ATOM     30 CL   UNL     1       8.191   5.614  19.050  0.00  0.00    +0.000 Cl
ATOM     31  C   UNL     1       5.877   6.568  18.043  0.00  0.00    +0.000 A 
ENDBRANCH  23  25
ENDBRANCH   7  23
TORSDOF 5
ENDMDL
MODEL 3
REMARK VINA RESULT:      -8.2      2.624      5.326
REMARK  Name = 
REMARK  5 active torsions:
REMARK  status: ('A' for Active; 'I' for Inactive)
REMARK    1  A    between atoms: C_2  and  C_4
REMARK    2  A    between atoms: N_8  and  C_9
REMARK    3  A    between atoms: C_14  and  N_15
REMARK    4  A    between atoms: C_17  and  N_18
REMARK    5  A    between atoms: N_18  and  C_19
REMARK                            x       y       z     vdW  Elec       q    Type
REMARK                         _______ _______ _______ _____ _____    ______ ____
ROOT
ATOM      1  C   UNL     1       3.205   3.114  19.647  0.00  0.00    +0.000 A 
ATOM      2  C   UNL     1       2.618   3.207  20.914  0.00  0.00    +0.000 A 
ATOM      3  C   UNL     1       1.933   4.364  21.270  0.00  0.00    +0.000 A 
ATOM      4  C   UNL     1       1.933   5.438  20.400  0.00  0.00    +0.000 A 
ATOM      5  N   UNL     1       1.402   6.642  20.848  0.00  0.00    +0.000 N 
ATOM      6  N   UNL     1       2.429   5.330  19.159  0.00  0.00    +0.000 NA
ATOM      7  C   UNL     1       3.021   4.173  18.754  0.00  0.00    +0.000 A 
ATOM      8  H   UNL     1       0.389   6.570  20.772  0.00  0.00    +0.000 HD
ENDROOT
BRANCH   5   9
ATOM      9  C   UNL     1       1.901   7.927  20.308  0.00  0.00    +0.000 C 
ATOM     10  C   UNL     1       1.876   7.735  18.773  0.00  0.00    +0.000 C 
ATOM     11  C   UNL     1       2.129   9.011  17.988  0.00  0.00    +0.000 C 
ATOM     12  C   UNL     1       1.113  10.078  18.357  0.00  0.00    +0.000 C 
ATOM     13  C   UNL     1       1.193  10.390  19.841  0.00  0.00    +0.000 C 
ATOM     14  C   UNL     1       0.994   9.148  20.724  0.00  0.00    +0.000 C 
BRANCH  14  15
ATOM     15  N   UNL     1       1.192   9.619  22.110  0.00  0.00    +0.000 NA
ATOM     16  H   UNL     1       1.269   8.810  22.729  0.00  0.00    +0.000 HD
ATOM     17  H   UNL     1       0.310  10.039  22.419  0.00  0.00    +0.000 HD
ENDBRANCH  14  15
ENDBRANCH   5   9
BRANCH   1  19
ATOM     18  N   UNL     1       5.184   1.748  20.051  0.00  0.00    +0.000 N 
ATOM     19  C   UNL     1       4.064   1.960  19.293  0.00  0.00    +0.000 C 
ATOM     20  O   UNL     1       3.804   1.241  18.337  0.00  0.00    +0.000 OA
ATOM     21  H   UNL     1       5.776   0.968  19.797  0.00  0.00    +0.000 HD
ATOM     22  H   UNL     1       5.360   2.202  20.937  0.00  0.00    +0.000 HD
ENDBRANCH   1  19
BRANCH   7  23
ATOM     23  N   UNL     1       3.359   4.054  17.388  0.00  0.00    +0.000 N 
ATOM     24  H   UNL     1       2.842   3.309  16.922  0.00  0.00    +0.000 HD
BRANCH  23  25
ATOM     25  C   UNL     1       4.570   4.466  16.796  0.00  0.00    +0.000 A 
ATOM     26  C   UNL     1       5.098   3.785  15.693  0.00  0.00    +0.000 A 
ATOM     27  C   UNL     1       6.342   4.147  15.156  0.00  0.00    +0.000 A 
ATOM     28  C   UNL     1       7.069   5.200  15.711  0.00  0.00    +0.000 A 
ATOM     29  C   UNL     1       6.541   5.899  16.790  0.00  0.00    +0.000 A 
ATOM     30 CL   UNL     1       7.425   7.202  17.487  0.00  0.00    +0.000 Cl
ATOM     31  C   UNL     1       5.305   5.542  17.320  0.00  0.00    +0.000 A 
ENDBRANCH  23  25
ENDBRANCH   7  23
TORSDOF 5
ENDMDL
MODEL 4
REMARK VINA RESULT:      -8.1      2.906      5.491
REMARK  Name = 
REMARK  5 active torsions:
REMARK  status: ('A' for Active; 'I' for Inactive)
REMARK    1  A    between atoms: C_2  and  C_4
REMARK    2  A    between atoms: N_8  and  C_9
REMARK    3  A    between atoms: C_14  and  N_15
REMARK    4  A    between atoms: C_17  and  N_18
REMARK    5  A    between atoms: N_18  and  C_19
REMARK                            x       y       z     vdW  Elec       q    Type
REMARK                         _______ _______ _______ _____ _____    ______ ____
ROOT
ATOM      1  C   UNL     1       3.910   2.475  20.484  0.00  0.00    +0.000 A 
ATOM      2  C   UNL     1       2.840   2.590  21.378  0.00  0.00    +0.000 A 
ATOM      3  C   UNL     1       1.988   3.686  21.293  0.00  0.00    +0.000 A 
ATOM      4  C   UNL     1       2.278   4.692  20.390  0.00  0.00    +0.000 A 
ATOM      5  N   UNL     1       1.524   5.858  20.445  0.00  0.00    +0.000 N 
ATOM      6  N   UNL     1       3.256   4.554  19.484  0.00  0.00    +0.000 NA
ATOM      7  C   UNL     1       4.045   3.444  19.486  0.00  0.00    +0.000 A 
ATOM      8  H   UNL     1       0.645   5.670  19.967  0.00  0.00    +0.000 HD
ENDROOT
BRANCH   5   9
ATOM      9  C   UNL     1       2.110   7.150  20.023  0.00  0.00    +0.000 C 
ATOM     10  C   UNL     1       2.091   7.094  18.477  0.00  0.00    +0.000 C 
ATOM     11  C   UNL     1       2.436   8.414  17.809  0.00  0.00    +0.000 C 
ATOM     12  C   UNL     1       1.486   9.509  18.263  0.00  0.00    +0.000 C 
ATOM     13  C   UNL     1       1.568   9.685  19.770  0.00  0.00    +0.000 C 
ATOM     14  C   UNL     1       1.279   8.386  20.539  0.00  0.00    +0.000 C 
BRANCH  14  15
ATOM     15  N   UNL     1       1.491   8.721  21.962  0.00  0.00    +0.000 NA
ATOM     16  H   UNL     1       0.769   8.265  22.523  0.00  0.00    +0.000 HD
ATOM     17  H   UNL     1       1.257   9.712  22.081  0.00  0.00    +0.000 HD
ENDBRANCH  14  15
ENDBRANCH   5   9
BRANCH   1  19
ATOM     18  N   UNL     1       4.988   0.448  19.664  0.00  0.00    +0.000 N 
ATOM     19  C   UNL     1       4.919   1.401  20.643  0.00  0.00    +0.000 C 
ATOM     20  O   UNL     1       5.641   1.346  21.631  0.00  0.00    +0.000 OA
ATOM     21  H   UNL     1       5.667  -0.293  19.784  0.00  0.00    +0.000 HD
ATOM     22  H   UNL     1       4.539   0.531  18.763  0.00  0.00    +0.000 HD
ENDBRANCH   1  19
BRANCH   7  23
ATOM     23  N   UNL     1       4.934   3.270  18.403  0.00  0.00    +0.000 N 
ATOM     24  H   UNL     1       5.546   2.464  18.527  0.00  0.00    +0.000 HD
BRANCH  23  25
ATOM     25  C   UNL     1       5.366   4.277  17.516  0.00  0.00    +0.000 A 
ATOM     26  C   UNL     1       5.023   4.235  16.160  0.00  0.00    +0.000 A 
ATOM     27  C   UNL     1       5.521   5.194  15.265  0.00  0.00    +0.000 A 
ATOM     28  C   UNL     1       6.360   6.211  15.720  0.00  0.00    +0.000 A 
ATOM     29  C   UNL     1       6.685   6.277  17.069  0.00  0.00    +0.000 A 
ATOM     30 CL   UNL     1       7.719   7.526  17.647  0.00  0.00    +0.000 Cl
ATOM     31  C   UNL     1       6.188   5.327  17.957  0.00  0.00    +0.000 A 
ENDBRANCH  23  25
ENDBRANCH   7  23
TORSDOF 5
ENDMDL
MODEL 5
REMARK VINA RESULT:      -8.1      2.560      5.196
REMARK  Name = 
REMARK  5 active torsions:
REMARK  status: ('A' for Active; 'I' for Inactive)
REMARK    1  A    between atoms: C_2  and  C_4
REMARK    2  A    between atoms: N_8  and  C_9
REMARK    3  A    between atoms: C_14  and  N_15
REMARK    4  A    between atoms: C_17  and  N_18
REMARK    5  A    between atoms: N_18  and  C_19
REMARK                            x       y       z     vdW  Elec       q    Type
REMARK                         _______ _______ _______ _____ _____    ______ ____
ROOT
ATOM      1  C   UNL     1       3.204   3.033  19.686  0.00  0.00    +0.000 A 
ATOM      2  C   UNL     1       2.587   3.149  20.937  0.00  0.00    +0.000 A 
ATOM      3  C   UNL     1       1.905   4.316  21.260  0.00  0.00    +0.000 A 
ATOM      4  C   UNL     1       1.936   5.378  20.376  0.00  0.00    +0.000 A 
ATOM      5  N   UNL     1       1.406   6.593  20.793  0.00  0.00    +0.000 N 
ATOM      6  N   UNL     1       2.462   5.249  19.149  0.00  0.00    +0.000 NA
ATOM      7  C   UNL     1       3.053   4.081  18.774  0.00  0.00    +0.000 A 
ATOM      8  H   UNL     1       0.395   6.529  20.693  0.00  0.00    +0.000 HD
ENDROOT
BRANCH   5   9
ATOM      9  C   UNL     1       1.930   7.867  20.248  0.00  0.00    +0.000 C 
ATOM     10  C   UNL     1       1.887   7.674  18.714  0.00  0.00    +0.000 C 
ATOM     11  C   UNL     1       2.164   8.943  17.926  0.00  0.00    +0.000 C 
ATOM     12  C   UNL     1       1.176  10.034  18.303  0.00  0.00    +0.000 C 
ATOM     13  C   UNL     1       1.276  10.345  19.786  0.00  0.00    +0.000 C 
ATOM     14  C   UNL     1       1.055   9.108  20.672  0.00  0.00    +0.000 C 
BRANCH  14  15
ATOM     15  N   UNL     1       1.276   9.575  22.056  0.00  0.00    +0.000 NA
ATOM     16  H   UNL     1       2.245   9.884  22.152  0.00  0.00    +0.000 HD
ATOM     17  H   UNL     1       1.256   8.750  22.663  0.00  0.00    +0.000 HD
ENDBRANCH  14  15
ENDBRANCH   5   9
BRANCH   1  19
ATOM     18  N   UNL     1       5.202   1.699  20.107  0.00  0.00    +0.000 N 
ATOM     19  C   UNL     1       4.061   1.866  19.369  0.00  0.00    +0.000 C 
ATOM     20  O   UNL     1       3.780   1.097  18.459  0.00  0.00    +0.000 OA
ATOM     21  H   UNL     1       5.793   0.910  19.877  0.00  0.00    +0.000 HD
ATOM     22  H   UNL     1       5.399   2.199  20.962  0.00  0.00    +0.000 HD
ENDBRANCH   1  19
BRANCH   7  23
ATOM     23  N   UNL     1       3.423   3.940  17.419  0.00  0.00    +0.000 N 
ATOM     24  H   UNL     1       2.810   3.302  16.912  0.00  0.00    +0.000 HD
BRANCH  23  25
ATOM     25  C   UNL     1       4.709   4.160  16.884  0.00  0.00    +0.000 A 
ATOM     26  C   UNL     1       5.742   4.664  17.683  0.00  0.00    +0.000 A 
ATOM     27  C   UNL     1       6.997   4.957  17.130  0.00  0.00    +0.000 A 
ATOM     28  C   UNL     1       7.235   4.741  15.773  0.00  0.00    +0.000 A 
ATOM     29  C   UNL     1       6.224   4.216  14.977  0.00  0.00    +0.000 A 
ATOM     30 CL   UNL     1       6.502   3.942  13.300  0.00  0.00    +0.000 Cl
ATOM     31  C   UNL     1       4.980   3.922  15.527  0.00  0.00    +0.000 A 
ENDBRANCH  23  25
ENDBRANCH   7  23
TORSDOF 5
ENDMDL
MODEL 6
REMARK VINA RESULT:      -8.0      3.081      5.751
REMARK  Name = 
REMARK  5 active torsions:
REMARK  status: ('A' for Active; 'I' for Inactive)
REMARK    1  A    between atoms: C_2  and  C_4
REMARK    2  A    between atoms: N_8  and  C_9
REMARK    3  A    between atoms: C_14  and  N_15
REMARK    4  A    between atoms: C_17  and  N_18
REMARK    5  A    between atoms: N_18  and  C_19
REMARK                            x       y       z     vdW  Elec       q    Type
REMARK                         _______ _______ _______ _____ _____    ______ ____
ROOT
ATOM      1  C   UNL     1       2.666   3.560  20.334  0.00  0.00    +0.000 A 
ATOM      2  C   UNL     1       3.343   2.372  20.036  0.00  0.00    +0.000 A 
ATOM      3  C   UNL     1       4.594   2.426  19.433  0.00  0.00    +0.000 A 
ATOM      4  C   UNL     1       5.100   3.654  19.047  0.00  0.00    +0.000 A 
ATOM      5  N   UNL     1       6.262   3.673  18.286  0.00  0.00    +0.000 N 
ATOM      6  N   UNL     1       4.493   4.798  19.394  0.00  0.00    +0.000 NA
ATOM      7  C   UNL     1       3.311   4.771  20.070  0.00  0.00    +0.000 A 
ATOM      8  H   UNL     1       7.043   3.543  18.927  0.00  0.00    +0.000 HD
ENDROOT
BRANCH   5   9
ATOM      9  C   UNL     1       6.516   4.777  17.332  0.00  0.00    +0.000 C 
ATOM     10  C   UNL     1       5.320   4.719  16.351  0.00  0.00    +0.000 C 
ATOM     11  C   UNL     1       5.238   5.909  15.410  0.00  0.00    +0.000 C 
ATOM     12  C   UNL     1       5.157   7.208  16.194  0.00  0.00    +0.000 C 
ATOM     13  C   UNL     1       6.381   7.365  17.079  0.00  0.00    +0.000 C 
ATOM     14  C   UNL     1       6.578   6.184  18.041  0.00  0.00    +0.000 C 
BRANCH  14  15
ATOM     15  N   UNL     1       7.846   6.462  18.747  0.00  0.00    +0.000 NA
ATOM     16  H   UNL     1       7.690   7.206  19.429  0.00  0.00    +0.000 HD
ATOM     17  H   UNL     1       8.474   6.917  18.077  0.00  0.00    +0.000 HD
ENDBRANCH  14  15
ENDBRANCH   5   9
BRANCH   1  19
ATOM     18  N   UNL     1       1.011   2.750  21.931  0.00  0.00    +0.000 N 
ATOM     19  C   UNL     1       1.273   3.533  20.839  0.00  0.00    +0.000 C 
ATOM     20  O   UNL     1       0.381   4.159  20.281  0.00  0.00    +0.000 OA
ATOM     21  H   UNL     1       0.055   2.722  22.263  0.00  0.00    +0.000 HD
ATOM     22  H   UNL     1       1.725   2.347  22.521  0.00  0.00    +0.000 HD
ENDBRANCH   1  19
BRANCH   7  23
ATOM     23  N   UNL     1       2.813   5.996  20.566  0.00  0.00    +0.000 N 
ATOM     24  H   UNL     1       2.490   5.924  21.530  0.00  0.00    +0.000 HD
BRANCH  23  25
ATOM     25  C   UNL     1       2.297   7.055  19.791  0.00  0.00    +0.000 A 
ATOM     26  C   UNL     1       2.505   7.100  18.408  0.00  0.00    +0.000 A 
ATOM     27  C   UNL     1       2.059   8.194  17.652  0.00  0.00    +0.000 A 
ATOM     28  C   UNL     1       1.392   9.251  18.271  0.00  0.00    +0.000 A 
ATOM     29  C   UNL     1       1.157   9.204  19.639  0.00  0.00    +0.000 A 
ATOM     30 CL   UNL     1       0.335  10.500  20.418  0.00  0.00    +0.000 Cl
ATOM     31  C   UNL     1       1.597   8.116  20.389  0.00  0.00    +0.000 A 
ENDBRANCH  23  25
ENDBRANCH   7  23
TORSDOF 5
ENDMDL
MODEL 7
REMARK VINA RESULT:      -8.0      2.759      5.370
REMARK  Name = 
REMARK  5 active torsions:
REMARK  status: ('A' for Active; 'I' for Inactive)
REMARK    1  A    between atoms: C_2  and  C_4
REMARK    2  A    between atoms: N_8  and  C_9
REMARK    3  A    between atoms: C_14  and  N_15
REMARK    4  A    between atoms: C_17  and  N_18
REMARK    5  A    between atoms: N_18  and  C_19
REMARK                            x       y       z     vdW  Elec       q    Type
REMARK                         _______ _______ _______ _____ _____    ______ ____
ROOT
ATOM      1  C   UNL     1       4.035   2.449  20.552  0.00  0.00    +0.000 A 
ATOM      2  C   UNL     1       2.880   2.505  21.341  0.00  0.00    +0.000 A 
ATOM      3  C   UNL     1       2.001   3.573  21.197  0.00  0.00    +0.000 A 
ATOM      4  C   UNL     1       2.340   4.610  20.347  0.00  0.00    +0.000 A 
ATOM      5  N   UNL     1       1.542   5.748  20.355  0.00  0.00    +0.000 N 
ATOM      6  N   UNL     1       3.405   4.529  19.537  0.00  0.00    +0.000 NA
ATOM      7  C   UNL     1       4.229   3.446  19.593  0.00  0.00    +0.000 A 
ATOM      8  H   UNL     1       0.720   5.541  19.789  0.00  0.00    +0.000 HD
ENDROOT
BRANCH   5   9
ATOM      9  C   UNL     1       2.118   7.070  20.019  0.00  0.00    +0.000 C 
ATOM     10  C   UNL     1       2.192   7.076  18.474  0.00  0.00    +0.000 C 
ATOM     11  C   UNL     1       2.541   8.429  17.879  0.00  0.00    +0.000 C 
ATOM     12  C   UNL     1       1.538   9.482  18.318  0.00  0.00    +0.000 C 
ATOM     13  C   UNL     1       1.527   9.599  19.832  0.00  0.00    +0.000 C 
ATOM     14  C   UNL     1       1.226   8.264  20.532  0.00  0.00    +0.000 C 
BRANCH  14  15
ATOM     15  N   UNL     1       1.345   8.546  21.977  0.00  0.00    +0.000 NA
ATOM     16  H   UNL     1       0.692   9.291  22.226  0.00  0.00    +0.000 HD
ATOM     17  H   UNL     1       2.252   8.999  22.126  0.00  0.00    +0.000 HD
ENDBRANCH  14  15
ENDBRANCH   5   9
BRANCH   1  19
ATOM     18  N   UNL     1       5.208   0.437  19.830  0.00  0.00    +0.000 N 
ATOM     19  C   UNL     1       5.062   1.406  20.785  0.00  0.00    +0.000 C 
ATOM     20  O   UNL     1       5.733   1.390  21.809  0.00  0.00    +0.000 OA
ATOM     21  H   UNL     1       5.899  -0.282  20.000  0.00  0.00    +0.000 HD
ATOM     22  H   UNL     1       4.804   0.490  18.905  0.00  0.00    +0.000 HD
ENDBRANCH   1  19
BRANCH   7  23
ATOM     23  N   UNL     1       5.224   3.330  18.597  0.00  0.00    +0.000 N 
ATOM     24  H   UNL     1       6.051   2.835  18.929  0.00  0.00    +0.000 HD
BRANCH  23  25
ATOM     25  C   UNL     1       5.384   4.179  17.484  0.00  0.00    +0.000 A 
ATOM     26  C   UNL     1       5.411   5.570  17.640  0.00  0.00    +0.000 A 
ATOM     27  C   UNL     1       5.490   6.415  16.523  0.00  0.00    +0.000 A 
ATOM     28  C   UNL     1       5.553   5.877  15.238  0.00  0.00    +0.000 A 
ATOM     29  C   UNL     1       5.553   4.497  15.073  0.00  0.00    +0.000 A 
ATOM     30 CL   UNL     1       5.631   3.818  13.494  0.00  0.00    +0.000 Cl
ATOM     31  C   UNL     1       5.479   3.660  16.182  0.00  0.00    +0.000 A 
ENDBRANCH  23  25
ENDBRANCH   7  23
TORSDOF 5
ENDMDL
MODEL 8
REMARK VINA RESULT:      -7.5      2.254      4.977
REMARK  Name = 
REMARK  5 active torsions:
REMARK  status: ('A' for Active; 'I' for Inactive)
REMARK    1  A    between atoms: C_2  and  C_4
REMARK    2  A    between atoms: N_8  and  C_9
REMARK    3  A    between atoms: C_14  and  N_15
REMARK    4  A    between atoms: C_17  and  N_18
REMARK    5  A    between atoms: N_18  and  C_19
REMARK                            x       y       z     vdW  Elec       q    Type
REMARK                         _______ _______ _______ _____ _____    ______ ____
ROOT
ATOM      1  C   UNL     1       1.631   8.239  20.019  0.00  0.00    +0.000 A 
ATOM      2  C   UNL     1       1.710   9.183  18.989  0.00  0.00    +0.000 A 
ATOM      3  C   UNL     1       2.407   8.874  17.826  0.00  0.00    +0.000 A 
ATOM      4  C   UNL     1       3.093   7.676  17.754  0.00  0.00    +0.000 A 
ATOM      5  N   UNL     1       3.929   7.466  16.664  0.00  0.00    +0.000 N 
ATOM      6  N   UNL     1       2.963   6.740  18.704  0.00  0.00    +0.000 NA
ATOM      7  C   UNL     1       2.207   6.984  19.810  0.00  0.00    +0.000 A 
ATOM      8  H   UNL     1       3.339   7.184  15.883  0.00  0.00    +0.000 HD
ENDROOT
BRANCH   5   9
ATOM      9  C   UNL     1       5.121   6.596  16.789  0.00  0.00    +0.000 C 
ATOM     10  C   UNL     1       6.183   7.496  17.465  0.00  0.00    +0.000 C 
ATOM     11  C   UNL     1       7.429   6.750  17.910  0.00  0.00    +0.000 C 
ATOM     12  C   UNL     1       7.068   5.627  18.868  0.00  0.00    +0.000 C 
ATOM     13  C   UNL     1       6.121   4.647  18.197  0.00  0.00    +0.000 C 
ATOM     14  C   UNL     1       4.843   5.317  17.668  0.00  0.00    +0.000 C 
BRANCH  14  15
ATOM     15  N   UNL     1       4.097   4.245  16.978  0.00  0.00    +0.000 NA
ATOM     16  H   UNL     1       3.196   4.115  17.442  0.00  0.00    +0.000 HD
ATOM     17  H   UNL     1       4.572   3.361  17.185  0.00  0.00    +0.000 HD
ENDBRANCH  14  15
ENDBRANCH   5   9
BRANCH   1  19
ATOM     18  N   UNL     1       1.854   9.085  22.295  0.00  0.00    +0.000 N 
ATOM     19  C   UNL     1       1.025   8.592  21.325  0.00  0.00    +0.000 C 
ATOM     20  O   UNL     1      -0.167   8.416  21.542  0.00  0.00    +0.000 OA
ATOM     21  H   UNL     1       1.440   9.310  23.191  0.00  0.00    +0.000 HD
ATOM     22  H   UNL     1       2.799   9.400  22.124  0.00  0.00    +0.000 HD
ENDBRANCH   1  19
BRANCH   7  23
ATOM     23  N   UNL     1       1.958   5.902  20.684  0.00  0.00    +0.000 N 
ATOM     24  H   UNL     1       2.105   6.150  21.662  0.00  0.00    +0.000 HD
BRANCH  23  25
ATOM     25  C   UNL     1       2.023   4.535  20.348  0.00  0.00    +0.000 A 
ATOM     26  C   UNL     1       0.876   3.836  19.956  0.00  0.00    +0.000 A 
ATOM     27  C   UNL     1       0.929   2.458  19.700  0.00  0.00    +0.000 A 
ATOM     28  C   UNL     1       2.132   1.765  19.826  0.00  0.00    +0.000 A 
ATOM     29  C   UNL     1       3.283   2.454  20.190  0.00  0.00    +0.000 A 
ATOM     30 CL   UNL     1       4.777   1.615  20.350  0.00  0.00    +0.000 Cl
ATOM     31  C   UNL     1       3.230   3.823  20.440  0.00  0.00    +0.000 A 
ENDBRANCH  23  25
ENDBRANCH   7  23
TORSDOF 5
ENDMDL
MODEL 9
REMARK VINA RESULT:      -7.5      2.156      4.842
REMARK  Name = 
REMARK  5 active torsions:
REMARK  status: ('A' for Active; 'I' for Inactive)
REMARK    1  A    between atoms: C_2  and  C_4
REMARK    2  A    between atoms: N_8  and  C_9
REMARK    3  A    between atoms: C_14  and  N_15
REMARK    4  A    between atoms: C_17  and  N_18
REMARK    5  A    between atoms: N_18  and  C_19
REMARK                            x       y       z     vdW  Elec       q    Type
REMARK                         _______ _______ _______ _____ _____    ______ ____
ROOT
ATOM      1  C   UNL     1       1.482   8.260  20.193  0.00  0.00    +0.000 A 
ATOM      2  C   UNL     1       1.696   9.181  19.161  0.00  0.00    +0.000 A 
ATOM      3  C   UNL     1       2.428   8.799  18.042  0.00  0.00    +0.000 A 
ATOM      4  C   UNL     1       3.014   7.548  18.019  0.00  0.00    +0.000 A 
ATOM      5  N   UNL     1       3.888   7.254  16.979  0.00  0.00    +0.000 N 
ATOM      6  N   UNL     1       2.753   6.638  18.968  0.00  0.00    +0.000 NA
ATOM      7  C   UNL     1       1.961   6.958  20.028  0.00  0.00    +0.000 A 
ATOM      8  H   UNL     1       3.320   7.012  16.169  0.00  0.00    +0.000 HD
ENDROOT
BRANCH   5   9
ATOM      9  C   UNL     1       4.994   6.290  17.179  0.00  0.00    +0.000 C 
ATOM     10  C   UNL     1       4.479   4.977  16.543  0.00  0.00    +0.000 C 
ATOM     11  C   UNL     1       5.538   3.895  16.420  0.00  0.00    +0.000 C 
ATOM     12  C   UNL     1       6.721   4.393  15.608  0.00  0.00    +0.000 C 
ATOM     13  C   UNL     1       7.339   5.612  16.271  0.00  0.00    +0.000 C 
ATOM     14  C   UNL     1       6.330   6.752  16.481  0.00  0.00    +0.000 C 
BRANCH  14  15
ATOM     15  N   UNL     1       7.074   7.801  17.208  0.00  0.00    +0.000 NA
ATOM     16  H   UNL     1       7.465   8.461  16.533  0.00  0.00    +0.000 HD
ATOM     17  H   UNL     1       7.918   7.366  17.593  0.00  0.00    +0.000 HD
ENDBRANCH  14  15
ENDBRANCH   5   9
BRANCH   1  19
ATOM     18  N   UNL     1       1.642   9.185  22.444  0.00  0.00    +0.000 N 
ATOM     19  C   UNL     1       0.836   8.679  21.460  0.00  0.00    +0.000 C 
ATOM     20  O   UNL     1      -0.368   8.547  21.635  0.00  0.00    +0.000 OA
ATOM     21  H   UNL     1       1.199   9.455  23.313  0.00  0.00    +0.000 HD
ATOM     22  H   UNL     1       2.601   9.465  22.299  0.00  0.00    +0.000 HD
ENDBRANCH   1  19
BRANCH   7  23
ATOM     23  N   UNL     1       1.574   5.913  20.896  0.00  0.00    +0.000 N 
ATOM     24  H   UNL     1       1.463   6.228  21.859  0.00  0.00    +0.000 HD
BRANCH  23  25
ATOM     25  C   UNL     1       1.803   4.538  20.689  0.00  0.00    +0.000 A 
ATOM     26  C   UNL     1       2.002   3.673  21.771  0.00  0.00    +0.000 A 
ATOM     27  C   UNL     1       2.310   2.321  21.560  0.00  0.00    +0.000 A 
ATOM     28  C   UNL     1       2.413   1.817  20.264  0.00  0.00    +0.000 A 
ATOM     29  C   UNL     1       2.192   2.662  19.183  0.00  0.00    +0.000 A 
ATOM     30 CL   UNL     1       2.315   2.056  17.576  0.00  0.00    +0.000 Cl
ATOM     31  C   UNL     1       1.883   4.003  19.393  0.00  0.00    +0.000 A 
ENDBRANCH  23  25
ENDBRANCH   7  23
TORSDOF 5
ENDMDL
