MODEL 1
REMARK VINA RESULT:      -7.6      0.000      0.000
REMARK  Name = 
REMARK  3 active torsions:
REMARK  status: ('A' for Active; 'I' for Inactive)
REMARK    1  A    between atoms: C_1  and  N_2
REMARK    2  A    between atoms: N_9  and  C_10
REMARK    3  A    between atoms: C_10  and  C_11
REMARK                            x       y       z     vdW  Elec       q    Type
REMARK                         _______ _______ _______ _____ _____    ______ ____
ROOT
ATOM      1  C   UNL     1       4.005   3.729  16.821  0.00  0.00    +0.000 C 
ATOM      2  N   UNL     1       3.819   4.608  17.976  0.00  0.00    +0.000 NA
ATOM      3  C   UNL     1       2.438   4.483  18.512  0.00  0.00    +0.000 C 
ATOM      4  C   UNL     1       2.134   5.481  19.668  0.00  0.00    +0.000 C 
ATOM      5  N   UNL     1       2.404   6.827  19.175  0.00  0.00    +0.000 N 
ATOM      6  C   UNL     1       1.783   7.923  19.720  0.00  0.00    +0.000 A 
ATOM      7  N   UNL     1       1.652   8.989  18.921  0.00  0.00    +0.000 NA
ATOM      8  C   UNL     1       0.914  10.036  19.324  0.00  0.00    +0.000 A 
ATOM      9  N   UNL     1       0.808  11.028  18.347  0.00  0.00    +0.000 N 
ATOM     10  C   UNL     1       0.414  10.109  20.640  0.00  0.00    +0.000 A 
ATOM     11  C   UNL     1      -0.281  11.201  21.242  0.00  0.00    +0.000 A 
ATOM     12  C   UNL     1      -0.737  11.161  22.545  0.00  0.00    +0.000 A 
ATOM     13 CL   UNL     1      -1.612  12.494  23.186  0.00  0.00    +0.000 Cl
ATOM     14  C   UNL     1      -0.488  10.046  23.310  0.00  0.00    +0.000 A 
ATOM     15  C   UNL     1       0.197   8.962  22.740  0.00  0.00    +0.000 A 
ATOM     16  C   UNL     1       0.645   8.967  21.418  0.00  0.00    +0.000 A 
ATOM     17  N   UNL     1       1.279   7.881  20.958  0.00  0.00    +0.000 NA
ATOM     18  C   UNL     1       3.779   7.024  18.719  0.00  0.00    +0.000 C 
ATOM     19  C   UNL     1       4.076   6.017  17.585  0.00  0.00    +0.000 C 
ATOM     20  H   UNL     1       1.638  11.613  18.404  0.00  0.00    +0.000 HD
ENDROOT
BRANCH   9  21
ATOM     21  C   UNL     1      -0.396  11.843  18.280  0.00  0.00    +0.000 C 
BRANCH  21  22
ATOM     22  C   UNL     1      -1.658  11.149  17.890  0.00  0.00    +0.000 A 
ATOM     23  C   UNL     1      -1.846  10.053  17.076  0.00  0.00    +0.000 A 
ATOM     24  C   UNL     1      -3.220   9.687  16.984  0.00  0.00    +0.000 A 
ATOM     25  C   UNL     1      -4.031  10.504  17.739  0.00  0.00    +0.000 A 
ATOM     26  S   UNL     1      -3.142  11.701  18.564  0.00  0.00    +0.000 S 
ENDBRANCH  21  22
ENDBRANCH   9  21
TORSDOF 2
ENDMDL
MODEL 2
REMARK VINA RESULT:      -7.6      4.100      7.869
REMARK  Name = 
REMARK  3 active torsions:
REMARK  status: ('A' for Active; 'I' for Inactive)
REMARK    1  A    between atoms: C_1  and  N_2
REMARK    2  A    between atoms: N_9  and  C_10
REMARK    3  A    between atoms: C_10  and  C_11
REMARK                            x       y       z     vdW  Elec       q    Type
REMARK                         _______ _______ _______ _____ _____    ______ ____
ROOT
ATOM      1  C   UNL     1       0.634  12.795  21.212  0.00  0.00    +0.000 C 
ATOM      2  N   UNL     1       0.360  11.377  20.979  0.00  0.00    +0.000 NA
ATOM      3  C   UNL     1       1.221  10.528  21.844  0.00  0.00    +0.000 C 
ATOM      4  C   UNL     1       1.067   9.005  21.558  0.00  0.00    +0.000 C 
ATOM      5  N   UNL     1       1.341   8.788  20.143  0.00  0.00    +0.000 N 
ATOM      6  C   UNL     1       1.784   7.574  19.681  0.00  0.00    +0.000 A 
ATOM      7  N   UNL     1       2.500   7.595  18.550  0.00  0.00    +0.000 NA
ATOM      8  C   UNL     1       3.105   6.475  18.124  0.00  0.00    +0.000 A 
ATOM      9  N   UNL     1       3.878   6.682  16.979  0.00  0.00    +0.000 N 
ATOM     10  C   UNL     1       2.864   5.236  18.750  0.00  0.00    +0.000 A 
ATOM     11  C   UNL     1       3.339   3.953  18.344  0.00  0.00    +0.000 A 
ATOM     12  C   UNL     1       3.047   2.798  19.042  0.00  0.00    +0.000 A 
ATOM     13 CL   UNL     1       3.697   1.294  18.521  0.00  0.00    +0.000 Cl
ATOM     14  C   UNL     1       2.240   2.871  20.153  0.00  0.00    +0.000 A 
ATOM     15  C   UNL     1       1.758   4.122  20.569  0.00  0.00    +0.000 A 
ATOM     16  C   UNL     1       2.061   5.306  19.897  0.00  0.00    +0.000 A 
ATOM     17  N   UNL     1       1.565   6.454  20.377  0.00  0.00    +0.000 NA
ATOM     18  C   UNL     1       0.458   9.536  19.249  0.00  0.00    +0.000 C 
ATOM     19  C   UNL     1       0.604  11.044  19.553  0.00  0.00    +0.000 C 
ATOM     20  H   UNL     1       3.261   6.634  16.173  0.00  0.00    +0.000 HD
ENDROOT
BRANCH   9  21
ATOM     21  C   UNL     1       5.072   5.878  16.765  0.00  0.00    +0.000 C 
BRANCH  21  22
ATOM     22  C   UNL     1       6.289   6.262  17.537  0.00  0.00    +0.000 A 
ATOM     23  C   UNL     1       7.101   7.368  17.410  0.00  0.00    +0.000 A 
ATOM     24  C   UNL     1       8.154   7.370  18.370  0.00  0.00    +0.000 A 
ATOM     25  C   UNL     1       8.104   6.276  19.204  0.00  0.00    +0.000 A 
ATOM     26  S   UNL     1       6.788   5.255  18.840  0.00  0.00    +0.000 S 
ENDBRANCH  21  22
ENDBRANCH   9  21
TORSDOF 2
ENDMDL
MODEL 3
REMARK VINA RESULT:      -7.4      3.956      7.667
REMARK  Name = 
REMARK  3 active torsions:
REMARK  status: ('A' for Active; 'I' for Inactive)
REMARK    1  A    between atoms: C_1  and  N_2
REMARK    2  A    between atoms: N_9  and  C_10
REMARK    3  A    between atoms: C_10  and  C_11
REMARK                            x       y       z     vdW  Elec       q    Type
REMARK                         _______ _______ _______ _____ _____    ______ ____
ROOT
ATOM      1  C   UNL     1      -0.512  13.473  20.142  0.00  0.00    +0.000 C 
ATOM      2  N   UNL     1      -0.566  12.012  20.101  0.00  0.00    +0.000 NA
ATOM      3  C   UNL     1       0.263  11.426  21.188  0.00  0.00    +0.000 C 
ATOM      4  C   UNL     1       0.347   9.873  21.128  0.00  0.00    +0.000 C 
ATOM      5  N   UNL     1       0.847   9.506  19.808  0.00  0.00    +0.000 N 
ATOM      6  C   UNL     1       1.504   8.318  19.599  0.00  0.00    +0.000 A 
ATOM      7  N   UNL     1       2.366   8.289  18.575  0.00  0.00    +0.000 NA
ATOM      8  C   UNL     1       3.163   7.222  18.408  0.00  0.00    +0.000 A 
ATOM      9  N   UNL     1       4.059   7.382  17.349  0.00  0.00    +0.000 N 
ATOM     10  C   UNL     1       2.995   6.059  19.186  0.00  0.00    +0.000 A 
ATOM     11  C   UNL     1       3.684   4.818  19.046  0.00  0.00    +0.000 A 
ATOM     12  C   UNL     1       3.444   3.739  19.876  0.00  0.00    +0.000 A 
ATOM     13 CL   UNL     1       4.350   2.291  19.680  0.00  0.00    +0.000 Cl
ATOM     14  C   UNL     1       2.485   3.845  20.854  0.00  0.00    +0.000 A 
ATOM     15  C   UNL     1       1.792   5.056  21.007  0.00  0.00    +0.000 A 
ATOM     16  C   UNL     1       2.034   6.168  20.200  0.00  0.00    +0.000 A 
ATOM     17  N   UNL     1       1.332   7.284  20.430  0.00  0.00    +0.000 NA
ATOM     18  C   UNL     1       0.013   9.984  18.707  0.00  0.00    +0.000 C 
ATOM     19  C   UNL     1      -0.080  11.525  18.786  0.00  0.00    +0.000 C 
ATOM     20  H   UNL     1       3.576   7.132  16.490  0.00  0.00    +0.000 HD
ENDROOT
BRANCH   9  21
ATOM     21  C   UNL     1       5.365   6.741  17.411  0.00  0.00    +0.000 C 
BRANCH  21  22
ATOM     22  C   UNL     1       5.689   5.766  16.330  0.00  0.00    +0.000 A 
ATOM     23  C   UNL     1       5.240   5.711  15.029  0.00  0.00    +0.000 A 
ATOM     24  C   UNL     1       5.819   4.626  14.310  0.00  0.00    +0.000 A 
ATOM     25  C   UNL     1       6.700   3.900  15.079  0.00  0.00    +0.000 A 
ATOM     26  S   UNL     1       6.836   4.526  16.658  0.00  0.00    +0.000 S 
ENDBRANCH  21  22
ENDBRANCH   9  21
TORSDOF 2
ENDMDL
MODEL 4
REMARK VINA RESULT:      -7.3      4.226      7.929
REMARK  Name = 
REMARK  3 active torsions:
REMARK  status: ('A' for Active; 'I' for Inactive)
REMARK    1  A    between atoms: C_1  and  N_2
REMARK    2  A    between atoms: N_9  and  C_10
REMARK    3  A    between atoms: C_10  and  C_11
REMARK                            x       y       z     vdW  Elec       q    Type
REMARK                         _______ _______ _______ _____ _____    ______ ____
ROOT
ATOM      1  C   UNL     1       0.587  12.631  21.320  0.00  0.00    +0.000 C 
ATOM      2  N   UNL     1       0.319  11.227  21.009  0.00  0.00    +0.000 NA
ATOM      3  C   UNL     1       1.033  10.334  21.960  0.00  0.00    +0.000 C 
ATOM      4  C   UNL     1       0.889   8.824  21.611  0.00  0.00    +0.000 C 
ATOM      5  N   UNL     1       1.353   8.637  20.242  0.00  0.00    +0.000 N 
ATOM      6  C   UNL     1       1.830   7.425  19.809  0.00  0.00    +0.000 A 
ATOM      7  N   UNL     1       2.696   7.458  18.789  0.00  0.00    +0.000 NA
ATOM      8  C   UNL     1       3.331   6.335  18.418  0.00  0.00    +0.000 A 
ATOM      9  N   UNL     1       4.259   6.553  17.398  0.00  0.00    +0.000 N 
ATOM     10  C   UNL     1       2.980   5.086  18.969  0.00  0.00    +0.000 A 
ATOM     11  C   UNL     1       3.481   3.804  18.594  0.00  0.00    +0.000 A 
ATOM     12  C   UNL     1       3.070   2.638  19.212  0.00  0.00    +0.000 A 
ATOM     13 CL   UNL     1       3.756   1.133  18.741  0.00  0.00    +0.000 Cl
ATOM     14  C   UNL     1       2.120   2.702  20.202  0.00  0.00    +0.000 A 
ATOM     15  C   UNL     1       1.610   3.952  20.585  0.00  0.00    +0.000 A 
ATOM     16  C   UNL     1       2.027   5.146  19.996  0.00  0.00    +0.000 A 
ATOM     17  N   UNL     1       1.494   6.293  20.436  0.00  0.00    +0.000 NA
ATOM     18  C   UNL     1       0.617   9.429  19.257  0.00  0.00    +0.000 C 
ATOM     19  C   UNL     1       0.751  10.925  19.622  0.00  0.00    +0.000 C 
ATOM     20  H   UNL     1       3.759   6.541  16.513  0.00  0.00    +0.000 HD
ENDROOT
BRANCH   9  21
ATOM     21  C   UNL     1       5.455   5.726  17.327  0.00  0.00    +0.000 C 
BRANCH  21  22
ATOM     22  C   UNL     1       5.757   5.091  16.012  0.00  0.00    +0.000 A 
ATOM     23  C   UNL     1       4.924   4.416  15.146  0.00  0.00    +0.000 A 
ATOM     24  C   UNL     1       5.609   3.986  13.973  0.00  0.00    +0.000 A 
ATOM     25  C   UNL     1       6.935   4.356  13.976  0.00  0.00    +0.000 A 
ATOM     26  S   UNL     1       7.352   5.227  15.380  0.00  0.00    +0.000 S 
ENDBRANCH  21  22
ENDBRANCH   9  21
TORSDOF 2
ENDMDL
MODEL 5
REMARK VINA RESULT:      -7.0      4.058      8.051
REMARK  Name = 
REMARK  3 active torsions:
REMARK  status: ('A' for Active; 'I' for Inactive)
REMARK    1  A    between atoms: C_1  and  N_2
REMARK    2  A    between atoms: N_9  and  C_10
REMARK    3  A    between atoms: C_10  and  C_11
REMARK                            x       y       z     vdW  Elec       q    Type
REMARK                         _______ _______ _______ _____ _____    ______ ____
ROOT
ATOM      1  C   UNL     1      -1.875  11.638  23.169  0.00  0.00    +0.000 C 
ATOM      2  N   UNL     1      -0.639  11.178  22.534  0.00  0.00    +0.000 NA
ATOM      3  C   UNL     1      -0.837  11.001  21.071  0.00  0.00    +0.000 C 
ATOM      4  C   UNL     1       0.405  10.397  20.352  0.00  0.00    +0.000 C 
ATOM      5  N   UNL     1       0.731   9.138  21.010  0.00  0.00    +0.000 N 
ATOM      6  C   UNL     1       1.403   8.140  20.348  0.00  0.00    +0.000 A 
ATOM      7  N   UNL     1       1.196   6.893  20.788  0.00  0.00    +0.000 NA
ATOM      8  C   UNL     1       1.685   5.853  20.093  0.00  0.00    +0.000 A 
ATOM      9  N   UNL     1       1.313   4.621  20.636  0.00  0.00    +0.000 N 
ATOM     10  C   UNL     1       2.556   6.052  19.003  0.00  0.00    +0.000 A 
ATOM     11  C   UNL     1       3.240   5.053  18.248  0.00  0.00    +0.000 A 
ATOM     12  C   UNL     1       4.068   5.363  17.187  0.00  0.00    +0.000 A 
ATOM     13 CL   UNL     1       4.819   4.102  16.291  0.00  0.00    +0.000 Cl
ATOM     14  C   UNL     1       4.274   6.681  16.859  0.00  0.00    +0.000 A 
ATOM     15  C   UNL     1       3.615   7.682  17.590  0.00  0.00    +0.000 A 
ATOM     16  C   UNL     1       2.753   7.394  18.649  0.00  0.00    +0.000 A 
ATOM     17  N   UNL     1       2.158   8.415  19.279  0.00  0.00    +0.000 NA
ATOM     18  C   UNL     1       1.022   9.276  22.436  0.00  0.00    +0.000 C 
ATOM     19  C   UNL     1      -0.209   9.893  23.138  0.00  0.00    +0.000 C 
ATOM     20  H   UNL     1       1.962   4.402  21.386  0.00  0.00    +0.000 HD
ENDROOT
BRANCH   9  21
ATOM     21  C   UNL     1       1.134   3.475  19.756  0.00  0.00    +0.000 C 
BRANCH  21  22
ATOM     22  C   UNL     1       2.322   2.600  19.540  0.00  0.00    +0.000 A 
ATOM     23  C   UNL     1       2.645   1.802  18.464  0.00  0.00    +0.000 A 
ATOM     24  C   UNL     1       3.895   1.142  18.645  0.00  0.00    +0.000 A 
ATOM     25  C   UNL     1       4.489   1.468  19.843  0.00  0.00    +0.000 A 
ATOM     26  S   UNL     1       3.551   2.571  20.743  0.00  0.00    +0.000 S 
ENDBRANCH  21  22
ENDBRANCH   9  21
TORSDOF 2
ENDMDL
MODEL 6
REMARK VINA RESULT:      -6.9      1.889      2.644
REMARK  Name = 
REMARK  3 active torsions:
REMARK  status: ('A' for Active; 'I' for Inactive)
REMARK    1  A    between atoms: C_1  and  N_2
REMARK    2  A    between atoms: N_9  and  C_10
REMARK    3  A    between atoms: C_10  and  C_11
REMARK                            x       y       z     vdW  Elec       q    Type
REMARK                         _______ _______ _______ _____ _____    ______ ____
ROOT
ATOM      1  C   UNL     1       3.639   2.882  17.699  0.00  0.00    +0.000 C 
ATOM      2  N   UNL     1       3.455   3.857  18.775  0.00  0.00    +0.000 NA
ATOM      3  C   UNL     1       2.022   3.944  19.164  0.00  0.00    +0.000 C 
ATOM      4  C   UNL     1       1.738   5.051  20.220  0.00  0.00    +0.000 C 
ATOM      5  N   UNL     1       2.231   6.314  19.684  0.00  0.00    +0.000 N 
ATOM      6  C   UNL     1       1.708   7.516  20.095  0.00  0.00    +0.000 A 
ATOM      7  N   UNL     1       1.800   8.530  19.226  0.00  0.00    +0.000 NA
ATOM      8  C   UNL     1       1.170   9.687  19.486  0.00  0.00    +0.000 A 
ATOM      9  N   UNL     1       1.294  10.613  18.448  0.00  0.00    +0.000 N 
ATOM     10  C   UNL     1       0.554   9.916  20.733  0.00  0.00    +0.000 A 
ATOM     11  C   UNL     1      -0.049  11.125  21.192  0.00  0.00    +0.000 A 
ATOM     12  C   UNL     1      -0.635  11.234  22.438  0.00  0.00    +0.000 A 
ATOM     13 CL   UNL     1      -1.387  12.709  22.903  0.00  0.00    +0.000 Cl
ATOM     14  C   UNL     1      -0.613  10.155  23.288  0.00  0.00    +0.000 A 
ATOM     15  C   UNL     1      -0.023   8.956  22.859  0.00  0.00    +0.000 A 
ATOM     16  C   UNL     1       0.552   8.811  21.596  0.00  0.00    +0.000 A 
ATOM     17  N   UNL     1       1.080   7.624  21.271  0.00  0.00    +0.000 NA
ATOM     18  C   UNL     1       3.658   6.306  19.370  0.00  0.00    +0.000 C 
ATOM     19  C   UNL     1       3.933   5.191  18.335  0.00  0.00    +0.000 C 
ATOM     20  H   UNL     1       2.184  11.092  18.561  0.00  0.00    +0.000 HD
ENDROOT
BRANCH   9  21
ATOM     21  C   UNL     1       0.221  11.565  18.204  0.00  0.00    +0.000 C 
BRANCH  21  22
ATOM     22  C   UNL     1       0.537  13.006  18.423  0.00  0.00    +0.000 A 
ATOM     23  C   UNL     1      -0.307  14.063  18.687  0.00  0.00    +0.000 A 
ATOM     24  C   UNL     1       0.406  15.285  18.859  0.00  0.00    +0.000 A 
ATOM     25  C   UNL     1       1.766  15.118  18.736  0.00  0.00    +0.000 A 
ATOM     26  S   UNL     1       2.186  13.496  18.423  0.00  0.00    +0.000 S 
ENDBRANCH  21  22
ENDBRANCH   9  21
TORSDOF 2
ENDMDL
MODEL 7
REMARK VINA RESULT:      -6.5      3.860      8.104
REMARK  Name = 
REMARK  3 active torsions:
REMARK  status: ('A' for Active; 'I' for Inactive)
REMARK    1  A    between atoms: C_1  and  N_2
REMARK    2  A    between atoms: N_9  and  C_10
REMARK    3  A    between atoms: C_10  and  C_11
REMARK                            x       y       z     vdW  Elec       q    Type
REMARK                         _______ _______ _______ _____ _____    ______ ____
ROOT
ATOM      1  C   UNL     1      -2.585  14.952  25.768  0.00  0.00    +0.000 C 
ATOM      2  N   UNL     1      -2.999  14.866  24.367  0.00  0.00    +0.000 NA
ATOM      3  C   UNL     1      -3.634  13.551  24.087  0.00  0.00    +0.000 C 
ATOM      4  C   UNL     1      -3.989  13.346  22.586  0.00  0.00    +0.000 C 
ATOM      5  N   UNL     1      -2.768  13.534  21.811  0.00  0.00    +0.000 N 
ATOM      6  C   UNL     1      -2.608  12.949  20.579  0.00  0.00    +0.000 A 
ATOM      7  N   UNL     1      -1.348  12.712  20.193  0.00  0.00    +0.000 NA
ATOM      8  C   UNL     1      -1.116  11.998  19.081  0.00  0.00    +0.000 A 
ATOM      9  N   UNL     1       0.244  11.770  18.862  0.00  0.00    +0.000 N 
ATOM     10  C   UNL     1      -2.169  11.634  18.217  0.00  0.00    +0.000 A 
ATOM     11  C   UNL     1      -2.064  10.980  16.953  0.00  0.00    +0.000 A 
ATOM     12  C   UNL     1      -3.171  10.662  16.190  0.00  0.00    +0.000 A 
ATOM     13 CL   UNL     1      -2.971   9.828  14.699  0.00  0.00    +0.000 Cl
ATOM     14  C   UNL     1      -4.421  11.013  16.640  0.00  0.00    +0.000 A 
ATOM     15  C   UNL     1      -4.547  11.660  17.879  0.00  0.00    +0.000 A 
ATOM     16  C   UNL     1      -3.448  11.969  18.681  0.00  0.00    +0.000 A 
ATOM     17  N   UNL     1      -3.669  12.575  19.855  0.00  0.00    +0.000 NA
ATOM     18  C   UNL     1      -2.155  14.850  21.984  0.00  0.00    +0.000 C 
ATOM     19  C   UNL     1      -1.824  15.051  23.480  0.00  0.00    +0.000 C 
ATOM     20  H   UNL     1       0.627  12.587  18.395  0.00  0.00    +0.000 HD
ENDROOT
BRANCH   9  21
ATOM     21  C   UNL     1       0.668  10.547  18.195  0.00  0.00    +0.000 C 
BRANCH  21  22
ATOM     22  C   UNL     1       1.121   9.426  19.068  0.00  0.00    +0.000 A 
ATOM     23  C   UNL     1       0.797   9.141  20.377  0.00  0.00    +0.000 A 
ATOM     24  C   UNL     1       1.431   7.951  20.836  0.00  0.00    +0.000 A 
ATOM     25  C   UNL     1       2.204   7.361  19.863  0.00  0.00    +0.000 A 
ATOM     26  S   UNL     1       2.161   8.230  18.397  0.00  0.00    +0.000 S 
ENDBRANCH  21  22
ENDBRANCH   9  21
TORSDOF 2
ENDMDL
MODEL 8
REMARK VINA RESULT:      -6.4      3.890      7.615
REMARK  Name = 
REMARK  3 active torsions:
REMARK  status: ('A' for Active; 'I' for Inactive)
REMARK    1  A    between atoms: C_1  and  N_2
REMARK    2  A    between atoms: N_9  and  C_10
REMARK    3  A    between atoms: C_10  and  C_11
REMARK                            x       y       z     vdW  Elec       q    Type
REMARK                         _______ _______ _______ _____ _____    ______ ____
ROOT
ATOM      1  C   UNL     1      -2.855  11.383  19.069  0.00  0.00    +0.000 C 
ATOM      2  N   UNL     1      -1.436  11.129  18.822  0.00  0.00    +0.000 NA
ATOM      3  C   UNL     1      -1.263  10.156  17.710  0.00  0.00    +0.000 C 
ATOM      4  C   UNL     1       0.221   9.748  17.476  0.00  0.00    +0.000 C 
ATOM      5  N   UNL     1       0.744   9.230  18.734  0.00  0.00    +0.000 N 
ATOM      6  C   UNL     1       1.794   8.346  18.760  0.00  0.00    +0.000 A 
ATOM      7  N   UNL     1       1.860   7.535  19.823  0.00  0.00    +0.000 NA
ATOM      8  C   UNL     1       2.757   6.536  19.843  0.00  0.00    +0.000 A 
ATOM      9  N   UNL     1       2.644   5.733  20.979  0.00  0.00    +0.000 N 
ATOM     10  C   UNL     1       3.745   6.427  18.844  0.00  0.00    +0.000 A 
ATOM     11  C   UNL     1       4.826   5.497  18.794  0.00  0.00    +0.000 A 
ATOM     12  C   UNL     1       5.737   5.474  17.755  0.00  0.00    +0.000 A 
ATOM     13 CL   UNL     1       6.984   4.290  17.738  0.00  0.00    +0.000 Cl
ATOM     14  C   UNL     1       5.627   6.398  16.744  0.00  0.00    +0.000 A 
ATOM     15  C   UNL     1       4.573   7.325  16.775  0.00  0.00    +0.000 A 
ATOM     16  C   UNL     1       3.625   7.352  17.798  0.00  0.00    +0.000 A 
ATOM     17  N   UNL     1       2.648   8.266  17.734  0.00  0.00    +0.000 NA
ATOM     18  C   UNL     1       0.678  10.186  19.839  0.00  0.00    +0.000 C 
ATOM     19  C   UNL     1      -0.796  10.599  20.052  0.00  0.00    +0.000 C 
ATOM     20  H   UNL     1       3.155   6.184  21.733  0.00  0.00    +0.000 HD
ENDROOT
BRANCH   9  21
ATOM     21  C   UNL     1       2.984   4.320  20.896  0.00  0.00    +0.000 C 
BRANCH  21  22
ATOM     22  C   UNL     1       2.147   3.478  19.993  0.00  0.00    +0.000 A 
ATOM     23  C   UNL     1       0.782   3.475  19.806  0.00  0.00    +0.000 A 
ATOM     24  C   UNL     1       0.380   2.525  18.823  0.00  0.00    +0.000 A 
ATOM     25  C   UNL     1       1.450   1.846  18.284  0.00  0.00    +0.000 A 
ATOM     26  S   UNL     1       2.933   2.357  18.951  0.00  0.00    +0.000 S 
ENDBRANCH  21  22
ENDBRANCH   9  21
TORSDOF 2
ENDMDL
MODEL 9
REMARK VINA RESULT:      -6.3      1.830      2.623
REMARK  Name = 
REMARK  3 active torsions:
REMARK  status: ('A' for Active; 'I' for Inactive)
REMARK    1  A    between atoms: C_1  and  N_2
REMARK    2  A    between atoms: N_9  and  C_10
REMARK    3  A    between atoms: C_10  and  C_11
REMARK                            x       y       z     vdW  Elec       q    Type
REMARK                         _______ _______ _______ _____ _____    ______ ____
ROOT
ATOM      1  C   UNL     1       4.419   3.987  16.084  0.00  0.00    +0.000 C 
ATOM      2  N   UNL     1       4.185   4.735  17.320  0.00  0.00    +0.000 NA
ATOM      3  C   UNL     1       2.779   4.568  17.775  0.00  0.00    +0.000 C 
ATOM      4  C   UNL     1       2.429   5.436  19.019  0.00  0.00    +0.000 C 
ATOM      5  N   UNL     1       2.730   6.825  18.691  0.00  0.00    +0.000 N 
ATOM      6  C   UNL     1       2.093   7.862  19.326  0.00  0.00    +0.000 A 
ATOM      7  N   UNL     1       2.007   9.011  18.644  0.00  0.00    +0.000 NA
ATOM      8  C   UNL     1       1.258  10.016  19.126  0.00  0.00    +0.000 A 
ATOM      9  N   UNL     1       1.205  11.110  18.261  0.00  0.00    +0.000 N 
ATOM     10  C   UNL     1       0.697   9.950  20.418  0.00  0.00    +0.000 A 
ATOM     11  C   UNL     1      -0.018  10.976  21.104  0.00  0.00    +0.000 A 
ATOM     12  C   UNL     1      -0.535  10.798  22.373  0.00  0.00    +0.000 A 
ATOM     13 CL   UNL     1      -1.430  12.063  23.117  0.00  0.00    +0.000 Cl
ATOM     14  C   UNL     1      -0.330   9.603  23.020  0.00  0.00    +0.000 A 
ATOM     15  C   UNL     1       0.374   8.580  22.365  0.00  0.00    +0.000 A 
ATOM     16  C   UNL     1       0.883   8.725  21.074  0.00  0.00    +0.000 A 
ATOM     17  N   UNL     1       1.530   7.689  20.527  0.00  0.00    +0.000 NA
ATOM     18  C   UNL     1       4.127   7.054  18.324  0.00  0.00    +0.000 C 
ATOM     19  C   UNL     1       4.470   6.175  17.100  0.00  0.00    +0.000 C 
ATOM     20  H   UNL     1       2.035  11.676  18.421  0.00  0.00    +0.000 HD
ENDROOT
BRANCH   9  21
ATOM     21  C   UNL     1       0.011  11.942  18.230  0.00  0.00    +0.000 C 
BRANCH  21  22
ATOM     22  C   UNL     1       0.187  13.385  18.565  0.00  0.00    +0.000 A 
ATOM     23  C   UNL     1      -0.745  14.317  18.966  0.00  0.00    +0.000 A 
ATOM     24  C   UNL     1      -0.155  15.590  19.214  0.00  0.00    +0.000 A 
ATOM     25  C   UNL     1       1.205  15.584  19.007  0.00  0.00    +0.000 A 
ATOM     26  S   UNL     1       1.773  14.051  18.526  0.00  0.00    +0.000 S 
ENDBRANCH  21  22
ENDBRANCH   9  21
TORSDOF 2
ENDMDL
