MODEL 1
REMARK VINA RESULT:      -7.0      0.000      0.000
REMARK  Name = 
REMARK  5 active torsions:
REMARK  status: ('A' for Active; 'I' for Inactive)
REMARK    1  A    between atoms: C_1  and  N_2
REMARK    2  A    between atoms: N_5  and  C_6
REMARK    3  A    between atoms: C_10  and  C_11
REMARK    4  A    between atoms: C_11  and  O_13
REMARK    5  A    between atoms: C_18  and  C_19
REMARK                            x       y       z     vdW  Elec       q    Type
REMARK                         _______ _______ _______ _____ _____    ______ ____
ROOT
ATOM      1  C   UNL     1      -3.040  12.308  19.751  0.00  0.00    +0.000 A 
ATOM      2  N   UNL     1      -3.468  12.818  20.934  0.00  0.00    +0.000 NA
ATOM      3  C   UNL     1      -4.788  12.817  21.188  0.00  0.00    +0.000 A 
ATOM      4  C   UNL     1      -5.255  13.329  22.393  0.00  0.00    +0.000 A 
ATOM      5  C   UNL     1      -6.623  13.377  22.690  0.00  0.00    +0.000 A 
ATOM      6  C   UNL     1      -7.541  12.883  21.761  0.00  0.00    +0.000 A 
ATOM      7  C   UNL     1      -7.075  12.359  20.551  0.00  0.00    +0.000 A 
ATOM      8  C   UNL     1      -5.717  12.311  20.252  0.00  0.00    +0.000 A 
ATOM      9  N   UNL     1      -5.318  11.772  19.090  0.00  0.00    +0.000 NA
ATOM     10  C   UNL     1      -3.974  11.735  18.844  0.00  0.00    +0.000 A 
ENDROOT
BRANCH   1  15
ATOM     11  C   UNL     1       2.351  12.294  18.258  0.00  0.00    +0.000 C 
ATOM     12  N   UNL     1       1.202  12.497  19.139  0.00  0.00    +0.000 NA
ATOM     13  C   UNL     1       0.491  11.212  19.371  0.00  0.00    +0.000 C 
ATOM     14  C   UNL     1      -0.813  11.375  20.198  0.00  0.00    +0.000 C 
ATOM     15  N   UNL     1      -1.674  12.331  19.492  0.00  0.00    +0.000 N 
ATOM     16  C   UNL     1      -1.036  13.655  19.357  0.00  0.00    +0.000 C 
ATOM     17  C   UNL     1       0.273  13.488  18.544  0.00  0.00    +0.000 C 
ENDBRANCH   1  15
BRANCH  10  18
ATOM     18  C   UNL     1      -3.597  11.020  17.591  0.00  0.00    +0.000 A 
ATOM     19  C   UNL     1      -4.144  11.387  16.349  0.00  0.00    +0.000 A 
ATOM     20  C   UNL     1      -3.695  10.809  15.154  0.00  0.00    +0.000 A 
ATOM     21  C   UNL     1      -2.677   9.858  15.173  0.00  0.00    +0.000 A 
ATOM     22  C   UNL     1      -2.161   9.433  16.388  0.00  0.00    +0.000 A 
ATOM     23  C   UNL     1      -2.653   9.975  17.577  0.00  0.00    +0.000 A 
ENDBRANCH  10  18
BRANCH   5  24
ATOM     24  C   UNL     1      -7.037  13.898  24.014  0.00  0.00    +0.000 C 
ATOM     25  O   UNL     1      -7.916  13.374  24.682  0.00  0.00    +0.000 OA
BRANCH  24  26
ATOM     26  O   UNL     1      -6.342  14.975  24.436  0.00  0.00    +0.000 OA
ATOM     27  H   UNL     1      -6.582  15.825  24.019  0.00  0.00    +0.000 HD
ENDBRANCH  24  26
ENDBRANCH   5  24
TORSDOF 4
ENDMDL
MODEL 2
REMARK VINA RESULT:      -6.8     10.338     14.299
REMARK  Name = 
REMARK  5 active torsions:
REMARK  status: ('A' for Active; 'I' for Inactive)
REMARK    1  A    between atoms: C_1  and  N_2
REMARK    2  A    between atoms: N_5  and  C_6
REMARK    3  A    between atoms: C_10  and  C_11
REMARK    4  A    between atoms: C_11  and  O_13
REMARK    5  A    between atoms: C_18  and  C_19
REMARK                            x       y       z     vdW  Elec       q    Type
REMARK                         _______ _______ _______ _____ _____    ______ ____
ROOT
ATOM      1  C   UNL     1       5.308   5.246  16.394  0.00  0.00    +0.000 A 
ATOM      2  N   UNL     1       4.870   4.374  15.451  0.00  0.00    +0.000 NA
ATOM      3  C   UNL     1       5.629   4.182  14.358  0.00  0.00    +0.000 A 
ATOM      4  C   UNL     1       5.206   3.291  13.378  0.00  0.00    +0.000 A 
ATOM      5  C   UNL     1       5.949   3.081  12.208  0.00  0.00    +0.000 A 
ATOM      6  C   UNL     1       7.150   3.768  12.029  0.00  0.00    +0.000 A 
ATOM      7  C   UNL     1       7.583   4.658  13.017  0.00  0.00    +0.000 A 
ATOM      8  C   UNL     1       6.849   4.871  14.179  0.00  0.00    +0.000 A 
ATOM      9  N   UNL     1       7.320   5.714  15.111  0.00  0.00    +0.000 NA
ATOM     10  C   UNL     1       6.571   5.883  16.241  0.00  0.00    +0.000 A 
ENDROOT
BRANCH   1  15
ATOM     11  C   UNL     1       1.767   5.779  20.691  0.00  0.00    +0.000 C 
ATOM     12  N   UNL     1       3.017   5.948  19.952  0.00  0.00    +0.000 NA
ATOM     13  C   UNL     1       2.778   6.704  18.694  0.00  0.00    +0.000 C 
ATOM     14  C   UNL     1       4.042   6.813  17.797  0.00  0.00    +0.000 C 
ATOM     15  N   UNL     1       4.506   5.450  17.511  0.00  0.00    +0.000 N 
ATOM     16  C   UNL     1       4.867   4.720  18.742  0.00  0.00    +0.000 C 
ATOM     17  C   UNL     1       3.608   4.624  19.642  0.00  0.00    +0.000 C 
ENDBRANCH   1  15
BRANCH  10  18
ATOM     18  C   UNL     1       7.210   6.741  17.280  0.00  0.00    +0.000 A 
ATOM     19  C   UNL     1       7.766   6.185  18.445  0.00  0.00    +0.000 A 
ATOM     20  C   UNL     1       8.484   6.969  19.358  0.00  0.00    +0.000 A 
ATOM     21  C   UNL     1       8.673   8.329  19.119  0.00  0.00    +0.000 A 
ATOM     22  C   UNL     1       8.085   8.916  18.009  0.00  0.00    +0.000 A 
ATOM     23  C   UNL     1       7.325   8.138  17.133  0.00  0.00    +0.000 A 
ENDBRANCH  10  18
BRANCH   5  24
ATOM     24  C   UNL     1       5.453   2.082  11.232  0.00  0.00    +0.000 C 
ATOM     25  O   UNL     1       4.396   2.216  10.633  0.00  0.00    +0.000 OA
BRANCH  24  26
ATOM     26  O   UNL     1       6.276   1.032  11.036  0.00  0.00    +0.000 OA
ATOM     27  H   UNL     1       6.158   0.279  11.647  0.00  0.00    +0.000 HD
ENDBRANCH  24  26
ENDBRANCH   5  24
TORSDOF 4
ENDMDL
MODEL 3
REMARK VINA RESULT:      -6.8      9.127     12.483
REMARK  Name = 
REMARK  5 active torsions:
REMARK  status: ('A' for Active; 'I' for Inactive)
REMARK    1  A    between atoms: C_1  and  N_2
REMARK    2  A    between atoms: N_5  and  C_6
REMARK    3  A    between atoms: C_10  and  C_11
REMARK    4  A    between atoms: C_11  and  O_13
REMARK    5  A    between atoms: C_18  and  C_19
REMARK                            x       y       z     vdW  Elec       q    Type
REMARK                         _______ _______ _______ _____ _____    ______ ____
ROOT
ATOM      1  C   UNL     1       3.559   6.056  17.729  0.00  0.00    +0.000 A 
ATOM      2  N   UNL     1       4.335   6.397  16.669  0.00  0.00    +0.000 NA
ATOM      3  C   UNL     1       5.100   5.446  16.106  0.00  0.00    +0.000 A 
ATOM      4  C   UNL     1       5.901   5.767  15.016  0.00  0.00    +0.000 A 
ATOM      5  C   UNL     1       6.737   4.816  14.416  0.00  0.00    +0.000 A 
ATOM      6  C   UNL     1       6.755   3.512  14.911  0.00  0.00    +0.000 A 
ATOM      7  C   UNL     1       5.943   3.183  16.002  0.00  0.00    +0.000 A 
ATOM      8  C   UNL     1       5.113   4.124  16.602  0.00  0.00    +0.000 A 
ATOM      9  N   UNL     1       4.331   3.753  17.628  0.00  0.00    +0.000 NA
ATOM     10  C   UNL     1       3.522   4.707  18.179  0.00  0.00    +0.000 A 
ENDROOT
BRANCH   1  15
ATOM     11  C   UNL     1       0.074   9.781  20.027  0.00  0.00    +0.000 C 
ATOM     12  N   UNL     1       1.361   9.217  19.622  0.00  0.00    +0.000 NA
ATOM     13  C   UNL     1       1.423   9.070  18.144  0.00  0.00    +0.000 C 
ATOM     14  C   UNL     1       2.714   8.360  17.653  0.00  0.00    +0.000 C 
ATOM     15  N   UNL     1       2.785   7.052  18.315  0.00  0.00    +0.000 N 
ATOM     16  C   UNL     1       2.850   7.179  19.784  0.00  0.00    +0.000 C 
ATOM     17  C   UNL     1       1.567   7.900  20.271  0.00  0.00    +0.000 C 
ENDBRANCH   1  15
BRANCH  10  18
ATOM     18  C   UNL     1       2.600   4.197  19.234  0.00  0.00    +0.000 A 
ATOM     19  C   UNL     1       1.292   3.788  18.925  0.00  0.00    +0.000 A 
ATOM     20  C   UNL     1       0.469   3.185  19.886  0.00  0.00    +0.000 A 
ATOM     21  C   UNL     1       0.942   2.967  21.178  0.00  0.00    +0.000 A 
ATOM     22  C   UNL     1       2.207   3.415  21.528  0.00  0.00    +0.000 A 
ATOM     23  C   UNL     1       3.000   4.063  20.579  0.00  0.00    +0.000 A 
ENDBRANCH  10  18
BRANCH   5  24
ATOM     24  C   UNL     1       7.527   5.226  13.231  0.00  0.00    +0.000 C 
ATOM     25  O   UNL     1       8.488   5.976  13.308  0.00  0.00    +0.000 OA
BRANCH  24  26
ATOM     26  O   UNL     1       7.118   4.679  12.068  0.00  0.00    +0.000 OA
ATOM     27  H   UNL     1       6.515   3.914  12.146  0.00  0.00    +0.000 HD
ENDBRANCH  24  26
ENDBRANCH   5  24
TORSDOF 4
ENDMDL
MODEL 4
REMARK VINA RESULT:      -6.6      6.568      9.071
REMARK  Name = 
REMARK  5 active torsions:
REMARK  status: ('A' for Active; 'I' for Inactive)
REMARK    1  A    between atoms: C_1  and  N_2
REMARK    2  A    between atoms: N_5  and  C_6
REMARK    3  A    between atoms: C_10  and  C_11
REMARK    4  A    between atoms: C_11  and  O_13
REMARK    5  A    between atoms: C_18  and  C_19
REMARK                            x       y       z     vdW  Elec       q    Type
REMARK                         _______ _______ _______ _____ _____    ______ ____
ROOT
ATOM      1  C   UNL     1       3.081   7.191  18.149  0.00  0.00    +0.000 A 
ATOM      2  N   UNL     1       3.145   8.515  17.859  0.00  0.00    +0.000 NA
ATOM      3  C   UNL     1       2.257   9.340  18.440  0.00  0.00    +0.000 A 
ATOM      4  C   UNL     1       2.303  10.701  18.164  0.00  0.00    +0.000 A 
ATOM      5  C   UNL     1       1.379  11.595  18.722  0.00  0.00    +0.000 A 
ATOM      6  C   UNL     1       0.399  11.110  19.590  0.00  0.00    +0.000 A 
ATOM      7  C   UNL     1       0.356   9.742  19.877  0.00  0.00    +0.000 A 
ATOM      8  C   UNL     1       1.269   8.852  19.324  0.00  0.00    +0.000 A 
ATOM      9  N   UNL     1       1.205   7.552  19.652  0.00  0.00    +0.000 NA
ATOM     10  C   UNL     1       2.131   6.716  19.094  0.00  0.00    +0.000 A 
ENDROOT
BRANCH   1  15
ATOM     11  C   UNL     1       6.383   3.559  15.466  0.00  0.00    +0.000 C 
ATOM     12  N   UNL     1       6.054   4.739  16.264  0.00  0.00    +0.000 NA
ATOM     13  C   UNL     1       5.386   4.341  17.530  0.00  0.00    +0.000 C 
ATOM     14  C   UNL     1       4.896   5.552  18.370  0.00  0.00    +0.000 C 
ATOM     15  N   UNL     1       3.994   6.345  17.528  0.00  0.00    +0.000 N 
ATOM     16  C   UNL     1       4.672   6.856  16.321  0.00  0.00    +0.000 C 
ATOM     17  C   UNL     1       5.173   5.647  15.490  0.00  0.00    +0.000 C 
ENDBRANCH   1  15
BRANCH  10  18
ATOM     18  C   UNL     1       2.071   5.312  19.593  0.00  0.00    +0.000 A 
ATOM     19  C   UNL     1       2.381   4.997  20.927  0.00  0.00    +0.000 A 
ATOM     20  C   UNL     1       2.198   3.703  21.433  0.00  0.00    +0.000 A 
ATOM     21  C   UNL     1       1.687   2.695  20.617  0.00  0.00    +0.000 A 
ATOM     22  C   UNL     1       1.428   2.962  19.281  0.00  0.00    +0.000 A 
ATOM     23  C   UNL     1       1.666   4.240  18.772  0.00  0.00    +0.000 A 
ENDBRANCH  10  18
BRANCH   5  24
ATOM     24  C   UNL     1       1.522  13.037  18.413  0.00  0.00    +0.000 C 
ATOM     25  O   UNL     1       0.932  13.905  19.038  0.00  0.00    +0.000 OA
BRANCH  24  26
ATOM     26  O   UNL     1       2.381  13.313  17.410  0.00  0.00    +0.000 OA
ATOM     27  H   UNL     1       3.293  13.538  17.681  0.00  0.00    +0.000 HD
ENDBRANCH  24  26
ENDBRANCH   5  24
TORSDOF 4
ENDMDL
MODEL 5
REMARK VINA RESULT:      -6.5      0.448      1.122
REMARK  Name = 
REMARK  5 active torsions:
REMARK  status: ('A' for Active; 'I' for Inactive)
REMARK    1  A    between atoms: C_1  and  N_2
REMARK    2  A    between atoms: N_5  and  C_6
REMARK    3  A    between atoms: C_10  and  C_11
REMARK    4  A    between atoms: C_11  and  O_13
REMARK    5  A    between atoms: C_18  and  C_19
REMARK                            x       y       z     vdW  Elec       q    Type
REMARK                         _______ _______ _______ _____ _____    ______ ____
ROOT
ATOM      1  C   UNL     1      -3.132  12.314  19.781  0.00  0.00    +0.000 A 
ATOM      2  N   UNL     1      -3.624  12.751  20.967  0.00  0.00    +0.000 NA
ATOM      3  C   UNL     1      -4.950  12.679  21.174  0.00  0.00    +0.000 A 
ATOM      4  C   UNL     1      -5.480  13.116  22.382  0.00  0.00    +0.000 A 
ATOM      5  C   UNL     1      -6.859  13.089  22.632  0.00  0.00    +0.000 A 
ATOM      6  C   UNL     1      -7.721  12.595  21.651  0.00  0.00    +0.000 A 
ATOM      7  C   UNL     1      -7.189  12.146  20.437  0.00  0.00    +0.000 A 
ATOM      8  C   UNL     1      -5.822  12.173  20.185  0.00  0.00    +0.000 A 
ATOM      9  N   UNL     1      -5.358  11.703  19.016  0.00  0.00    +0.000 NA
ATOM     10  C   UNL     1      -4.007  11.738  18.817  0.00  0.00    +0.000 A 
ENDROOT
BRANCH   1  15
ATOM     11  C   UNL     1       2.300  12.624  18.480  0.00  0.00    +0.000 C 
ATOM     12  N   UNL     1       1.115  12.716  19.332  0.00  0.00    +0.000 NA
ATOM     13  C   UNL     1       0.453  11.391  19.448  0.00  0.00    +0.000 C 
ATOM     14  C   UNL     1      -0.883  11.441  20.238  0.00  0.00    +0.000 C 
ATOM     15  N   UNL     1      -1.761  12.410  19.571  0.00  0.00    +0.000 N 
ATOM     16  C   UNL     1      -1.175  13.764  19.553  0.00  0.00    +0.000 C 
ATOM     17  C   UNL     1       0.165  13.709  18.776  0.00  0.00    +0.000 C 
ENDBRANCH   1  15
BRANCH  10  18
ATOM     18  C   UNL     1      -3.555  11.097  17.549  0.00  0.00    +0.000 A 
ATOM     19  C   UNL     1      -2.619  10.049  17.555  0.00  0.00    +0.000 A 
ATOM     20  C   UNL     1      -2.292   9.355  16.382  0.00  0.00    +0.000 A 
ATOM     21  C   UNL     1      -2.906   9.687  15.176  0.00  0.00    +0.000 A 
ATOM     22  C   UNL     1      -3.789  10.755  15.129  0.00  0.00    +0.000 A 
ATOM     23  C   UNL     1      -4.067  11.476  16.292  0.00  0.00    +0.000 A 
ENDBRANCH  10  18
BRANCH   5  24
ATOM     24  C   UNL     1      -7.341  13.532  23.961  0.00  0.00    +0.000 C 
ATOM     25  O   UNL     1      -7.878  14.615  24.139  0.00  0.00    +0.000 OA
BRANCH  24  26
ATOM     26  O   UNL     1      -7.167  12.630  24.949  0.00  0.00    +0.000 OA
ATOM     27  H   UNL     1      -6.686  12.951  25.737  0.00  0.00    +0.000 HD
ENDBRANCH  24  26
ENDBRANCH   5  24
TORSDOF 4
ENDMDL
MODEL 6
REMARK VINA RESULT:      -6.3     11.600     12.708
REMARK  Name = 
REMARK  5 active torsions:
REMARK  status: ('A' for Active; 'I' for Inactive)
REMARK    1  A    between atoms: C_1  and  N_2
REMARK    2  A    between atoms: N_5  and  C_6
REMARK    3  A    between atoms: C_10  and  C_11
REMARK    4  A    between atoms: C_11  and  O_13
REMARK    5  A    between atoms: C_18  and  C_19
REMARK                            x       y       z     vdW  Elec       q    Type
REMARK                         _______ _______ _______ _____ _____    ______ ____
ROOT
ATOM      1  C   UNL     1       8.593  14.194  21.316  0.00  0.00    +0.000 A 
ATOM      2  N   UNL     1       7.869  14.637  22.375  0.00  0.00    +0.000 NA
ATOM      3  C   UNL     1       7.467  13.740  23.293  0.00  0.00    +0.000 A 
ATOM      4  C   UNL     1       6.728  14.167  24.391  0.00  0.00    +0.000 A 
ATOM      5  C   UNL     1       6.261  13.266  25.357  0.00  0.00    +0.000 A 
ATOM      6  C   UNL     1       6.559  11.909  25.225  0.00  0.00    +0.000 A 
ATOM      7  C   UNL     1       7.310  11.477  24.127  0.00  0.00    +0.000 A 
ATOM      8  C   UNL     1       7.774  12.368  23.165  0.00  0.00    +0.000 A 
ATOM      9  N   UNL     1       8.515  11.909  22.144  0.00  0.00    +0.000 NA
ATOM     10  C   UNL     1       8.960  12.822  21.230  0.00  0.00    +0.000 A 
ENDROOT
BRANCH   1  15
ATOM     11  C   UNL     1      10.456  17.612  17.299  0.00  0.00    +0.000 C 
ATOM     12  N   UNL     1       9.628  17.193  18.429  0.00  0.00    +0.000 NA
ATOM     13  C   UNL     1      10.474  16.913  19.619  0.00  0.00    +0.000 C 
ATOM     14  C   UNL     1       9.672  16.342  20.820  0.00  0.00    +0.000 C 
ATOM     15  N   UNL     1       8.988  15.127  20.364  0.00  0.00    +0.000 N 
ATOM     16  C   UNL     1       8.047  15.402  19.261  0.00  0.00    +0.000 C 
ATOM     17  C   UNL     1       8.848  15.985  18.068  0.00  0.00    +0.000 C 
ENDBRANCH   1  15
BRANCH  10  18
ATOM     18  C   UNL     1       9.871  12.259  20.192  0.00  0.00    +0.000 A 
ATOM     19  C   UNL     1       9.390  11.882  18.926  0.00  0.00    +0.000 A 
ATOM     20  C   UNL     1      10.261  11.479  17.905  0.00  0.00    +0.000 A 
ATOM     21  C   UNL     1      11.637  11.457  18.123  0.00  0.00    +0.000 A 
ATOM     22  C   UNL     1      12.135  11.767  19.380  0.00  0.00    +0.000 A 
ATOM     23  C   UNL     1      11.256  12.114  20.407  0.00  0.00    +0.000 A 
ENDBRANCH  10  18
BRANCH   5  24
ATOM     24  C   UNL     1       5.519  13.806  26.519  0.00  0.00    +0.000 C 
ATOM     25  O   UNL     1       5.731  13.437  27.665  0.00  0.00    +0.000 OA
BRANCH  24  26
ATOM     26  O   UNL     1       4.614  14.759  26.214  0.00  0.00    +0.000 OA
ATOM     27  H   UNL     1       4.745  15.625  26.647  0.00  0.00    +0.000 HD
ENDBRANCH  24  26
ENDBRANCH   5  24
TORSDOF 4
ENDMDL
MODEL 7
REMARK VINA RESULT:      -6.3      6.691      9.115
REMARK  Name = 
REMARK  5 active torsions:
REMARK  status: ('A' for Active; 'I' for Inactive)
REMARK    1  A    between atoms: C_1  and  N_2
REMARK    2  A    between atoms: N_5  and  C_6
REMARK    3  A    between atoms: C_10  and  C_11
REMARK    4  A    between atoms: C_11  and  O_13
REMARK    5  A    between atoms: C_18  and  C_19
REMARK                            x       y       z     vdW  Elec       q    Type
REMARK                         _______ _______ _______ _____ _____    ______ ____
ROOT
ATOM      1  C   UNL     1       2.793   6.749  18.686  0.00  0.00    +0.000 A 
ATOM      2  N   UNL     1       2.503   8.039  18.380  0.00  0.00    +0.000 NA
ATOM      3  C   UNL     1       1.712   8.732  19.217  0.00  0.00    +0.000 A 
ATOM      4  C   UNL     1       1.403  10.056  18.931  0.00  0.00    +0.000 A 
ATOM      5  C   UNL     1       0.558  10.809  19.758  0.00  0.00    +0.000 A 
ATOM      6  C   UNL     1       0.028  10.221  20.907  0.00  0.00    +0.000 A 
ATOM      7  C   UNL     1       0.344   8.891  21.204  0.00  0.00    +0.000 A 
ATOM      8  C   UNL     1       1.180   8.140  20.385  0.00  0.00    +0.000 A 
ATOM      9  N   UNL     1       1.477   6.877  20.727  0.00  0.00    +0.000 NA
ATOM     10  C   UNL     1       2.313   6.182  19.899  0.00  0.00    +0.000 A 
ENDROOT
BRANCH   1  15
ATOM     11  C   UNL     1       6.236   3.691  15.511  0.00  0.00    +0.000 C 
ATOM     12  N   UNL     1       5.123   4.593  15.801  0.00  0.00    +0.000 NA
ATOM     13  C   UNL     1       5.616   5.837  16.447  0.00  0.00    +0.000 C 
ATOM     14  C   UNL     1       4.473   6.788  16.897  0.00  0.00    +0.000 C 
ATOM     15  N   UNL     1       3.597   6.037  17.803  0.00  0.00    +0.000 N 
ATOM     16  C   UNL     1       2.997   4.862  17.143  0.00  0.00    +0.000 C 
ATOM     17  C   UNL     1       4.139   3.920  16.683  0.00  0.00    +0.000 C 
ENDBRANCH   1  15
BRANCH  10  18
ATOM     18  C   UNL     1       2.690   4.829  20.401  0.00  0.00    +0.000 A 
ATOM     19  C   UNL     1       1.792   4.053  21.154  0.00  0.00    +0.000 A 
ATOM     20  C   UNL     1       2.091   2.732  21.513  0.00  0.00    +0.000 A 
ATOM     21  C   UNL     1       3.294   2.152  21.114  0.00  0.00    +0.000 A 
ATOM     22  C   UNL     1       4.224   2.912  20.422  0.00  0.00    +0.000 A 
ATOM     23  C   UNL     1       3.940   4.244  20.116  0.00  0.00    +0.000 A 
ENDBRANCH  10  18
BRANCH   5  24
ATOM     24  C   UNL     1       0.313  12.227  19.406  0.00  0.00    +0.000 C 
ATOM     25  O   UNL     1      -0.117  13.039  20.211  0.00  0.00    +0.000 OA
BRANCH  24  26
ATOM     26  O   UNL     1       0.634  12.554  18.137  0.00  0.00    +0.000 OA
ATOM     27  H   UNL     1       0.558  13.501  17.910  0.00  0.00    +0.000 HD
ENDBRANCH  24  26
ENDBRANCH   5  24
TORSDOF 4
ENDMDL
MODEL 8
REMARK VINA RESULT:      -6.3      1.359      4.002
REMARK  Name = 
REMARK  5 active torsions:
REMARK  status: ('A' for Active; 'I' for Inactive)
REMARK    1  A    between atoms: C_1  and  N_2
REMARK    2  A    between atoms: N_5  and  C_6
REMARK    3  A    between atoms: C_10  and  C_11
REMARK    4  A    between atoms: C_11  and  O_13
REMARK    5  A    between atoms: C_18  and  C_19
REMARK                            x       y       z     vdW  Elec       q    Type
REMARK                         _______ _______ _______ _____ _____    ______ ____
ROOT
ATOM      1  C   UNL     1      -3.392  12.073  19.529  0.00  0.00    +0.000 A 
ATOM      2  N   UNL     1      -4.596  12.298  20.113  0.00  0.00    +0.000 NA
ATOM      3  C   UNL     1      -4.618  12.835  21.345  0.00  0.00    +0.000 A 
ATOM      4  C   UNL     1      -5.838  13.080  21.964  0.00  0.00    +0.000 A 
ATOM      5  C   UNL     1      -5.910  13.611  23.259  0.00  0.00    +0.000 A 
ATOM      6  C   UNL     1      -4.730  13.918  23.938  0.00  0.00    +0.000 A 
ATOM      7  C   UNL     1      -3.500  13.681  23.314  0.00  0.00    +0.000 A 
ATOM      8  C   UNL     1      -3.424  13.153  22.030  0.00  0.00    +0.000 A 
ATOM      9  N   UNL     1      -2.222  12.971  21.463  0.00  0.00    +0.000 NA
ATOM     10  C   UNL     1      -2.196  12.461  20.195  0.00  0.00    +0.000 A 
ENDROOT
BRANCH   1  15
ATOM     11  C   UNL     1      -3.001  10.067  14.322  0.00  0.00    +0.000 C 
ATOM     12  N   UNL     1      -3.466  10.127  15.707  0.00  0.00    +0.000 NA
ATOM     13  C   UNL     1      -4.183  11.404  15.960  0.00  0.00    +0.000 C 
ATOM     14  C   UNL     1      -4.597  11.590  17.445  0.00  0.00    +0.000 C 
ATOM     15  N   UNL     1      -3.381  11.500  18.262  0.00  0.00    +0.000 N 
ATOM     16  C   UNL     1      -2.717  10.190  18.121  0.00  0.00    +0.000 C 
ATOM     17  C   UNL     1      -2.318   9.999  16.636  0.00  0.00    +0.000 C 
ENDBRANCH   1  15
BRANCH  10  18
ATOM     18  C   UNL     1      -0.836  12.395  19.586  0.00  0.00    +0.000 A 
ATOM     19  C   UNL     1      -0.356  13.424  18.759  0.00  0.00    +0.000 A 
ATOM     20  C   UNL     1       0.967  13.430  18.294  0.00  0.00    +0.000 A 
ATOM     21  C   UNL     1       1.843  12.411  18.658  0.00  0.00    +0.000 A 
ATOM     22  C   UNL     1       1.381  11.351  19.425  0.00  0.00    +0.000 A 
ATOM     23  C   UNL     1       0.047  11.326  19.837  0.00  0.00    +0.000 A 
ENDBRANCH  10  18
BRANCH   5  24
ATOM     24  C   UNL     1      -7.249  13.884  23.832  0.00  0.00    +0.000 C 
ATOM     25  O   UNL     1      -7.911  13.025  24.395  0.00  0.00    +0.000 OA
BRANCH  24  26
ATOM     26  O   UNL     1      -7.661  15.163  23.710  0.00  0.00    +0.000 OA
ATOM     27  H   UNL     1      -8.133  15.380  22.882  0.00  0.00    +0.000 HD
ENDBRANCH  24  26
ENDBRANCH   5  24
TORSDOF 4
ENDMDL
MODEL 9
REMARK VINA RESULT:      -6.2      6.431      8.509
REMARK  Name = 
REMARK  5 active torsions:
REMARK  status: ('A' for Active; 'I' for Inactive)
REMARK    1  A    between atoms: C_1  and  N_2
REMARK    2  A    between atoms: N_5  and  C_6
REMARK    3  A    between atoms: C_10  and  C_11
REMARK    4  A    between atoms: C_11  and  O_13
REMARK    5  A    between atoms: C_18  and  C_19
REMARK                            x       y       z     vdW  Elec       q    Type
REMARK                         _______ _______ _______ _____ _____    ______ ____
ROOT
ATOM      1  C   UNL     1       2.480   6.892  19.468  0.00  0.00    +0.000 A 
ATOM      2  N   UNL     1       2.427   8.248  19.489  0.00  0.00    +0.000 NA
ATOM      3  C   UNL     1       1.483   8.838  20.243  0.00  0.00    +0.000 A 
ATOM      4  C   UNL     1       1.409  10.225  20.286  0.00  0.00    +0.000 A 
ATOM      5  C   UNL     1       0.424  10.885  21.033  0.00  0.00    +0.000 A 
ATOM      6  C   UNL     1      -0.496  10.132  21.766  0.00  0.00    +0.000 A 
ATOM      7  C   UNL     1      -0.418   8.736  21.732  0.00  0.00    +0.000 A 
ATOM      8  C   UNL     1       0.557   8.078  20.990  0.00  0.00    +0.000 A 
ATOM      9  N   UNL     1       0.608   6.737  21.013  0.00  0.00    +0.000 NA
ATOM     10  C   UNL     1       1.591   6.133  20.279  0.00  0.00    +0.000 A 
ENDROOT
BRANCH   1  15
ATOM     11  C   UNL     1       6.031   4.229  16.063  0.00  0.00    +0.000 C 
ATOM     12  N   UNL     1       5.606   5.214  17.057  0.00  0.00    +0.000 NA
ATOM     13  C   UNL     1       5.096   4.535  18.276  0.00  0.00    +0.000 C 
ATOM     14  C   UNL     1       4.511   5.520  19.326  0.00  0.00    +0.000 C 
ATOM     15  N   UNL     1       3.449   6.292  18.671  0.00  0.00    +0.000 N 
ATOM     16  C   UNL     1       3.959   7.074  17.528  0.00  0.00    +0.000 C 
ATOM     17  C   UNL     1       4.555   6.091  16.488  0.00  0.00    +0.000 C 
ENDBRANCH   1  15
BRANCH  10  18
ATOM     18  C   UNL     1       1.659   4.652  20.442  0.00  0.00    +0.000 A 
ATOM     19  C   UNL     1       1.165   3.786  19.453  0.00  0.00    +0.000 A 
ATOM     20  C   UNL     1       1.346   2.399  19.540  0.00  0.00    +0.000 A 
ATOM     21  C   UNL     1       2.039   1.848  20.616  0.00  0.00    +0.000 A 
ATOM     22  C   UNL     1       2.486   2.673  21.637  0.00  0.00    +0.000 A 
ATOM     23  C   UNL     1       2.253   4.048  21.569  0.00  0.00    +0.000 A 
ENDBRANCH  10  18
BRANCH   5  24
ATOM     24  C   UNL     1       0.439  12.366  21.062  0.00  0.00    +0.000 C 
ATOM     25  O   UNL     1      -0.570  13.038  20.912  0.00  0.00    +0.000 OA
BRANCH  24  26
ATOM     26  O   UNL     1       1.651  12.910  21.301  0.00  0.00    +0.000 OA
ATOM     27  H   UNL     1       1.673  13.884  21.372  0.00  0.00    +0.000 HD
ENDBRANCH  24  26
ENDBRANCH   5  24
TORSDOF 4
ENDMDL
