MODEL 1
REMARK VINA RESULT:      -8.2      0.000      0.000
REMARK  Name = 
REMARK  4 active torsions:
REMARK  status: ('A' for Active; 'I' for Inactive)
REMARK    1  A    between atoms: C_1  and  C_2
REMARK    2  A    between atoms: C_5  and  C_6
REMARK    3  A    between atoms: C_9  and  O_10
REMARK    4  A    between atoms: C_18  and  O_19
REMARK                            x       y       z     vdW  Elec       q    Type
REMARK                         _______ _______ _______ _____ _____    ______ ____
ROOT
ATOM      1  C   UNL     1       3.534   3.151  17.309  0.00  0.00    +0.000 C 
ATOM      2  C   UNL     1       2.487   3.725  18.292  0.00  0.00    +0.000 C 
ATOM      3  C   UNL     1       1.804   4.969  17.664  0.00  0.00    +0.000 C 
ATOM      4  C   UNL     1       2.361   6.339  18.101  0.00  0.00    +0.000 C 
ATOM      5  C   UNL     1       3.794   6.319  18.711  0.00  0.00    +0.000 C 
ATOM      6  C   UNL     1       3.619   5.444  19.963  0.00  0.00    +0.000 C 
ATOM      7  C   UNL     1       3.033   4.040  19.710  0.00  0.00    +0.000 C 
ATOM      8  C   UNL     1       1.833   3.791  20.656  0.00  0.00    +0.000 C 
ATOM      9  C   UNL     1       0.816   2.935  19.907  0.00  0.00    +0.000 C 
ATOM     10  C   UNL     1       1.472   2.584  18.584  0.00  0.00    +0.000 C 
ENDROOT
BRANCH   5  11
ATOM     11  C   UNL     1       4.927   6.024  17.718  0.00  0.00    +0.000 A 
ATOM     12  C   UNL     1       4.664   6.239  16.340  0.00  0.00    +0.000 A 
ATOM     13  C   UNL     1       5.552   5.842  15.339  0.00  0.00    +0.000 A 
ATOM     14  C   UNL     1       6.758   5.263  15.690  0.00  0.00    +0.000 A 
ATOM     15  C   UNL     1       7.111   5.151  17.023  0.00  0.00    +0.000 A 
ATOM     16  C   UNL     1       6.223   5.553  18.033  0.00  0.00    +0.000 A 
ATOM     17 CL   UNL     1       6.880   5.438  19.626  0.00  0.00    +0.000 Cl
BRANCH  14  18
ATOM     18  O   UNL     1       7.630   4.797  14.754  0.00  0.00    +0.000 OA
ATOM     19  H   UNL     1       8.531   4.850  15.112  0.00  0.00    +0.000 HD
ENDBRANCH  14  18
ENDBRANCH   5  11
BRANCH  10  20
ATOM     20  O   UNL     1       2.112   1.314  18.733  0.00  0.00    +0.000 OA
ATOM     21  H   UNL     1       2.931   1.315  18.209  0.00  0.00    +0.000 HD
ENDBRANCH  10  20
TORSDOF 3
ENDMDL
MODEL 2
REMARK VINA RESULT:      -7.5      1.950      5.594
REMARK  Name = 
REMARK  4 active torsions:
REMARK  status: ('A' for Active; 'I' for Inactive)
REMARK    1  A    between atoms: C_1  and  C_2
REMARK    2  A    between atoms: C_5  and  C_6
REMARK    3  A    between atoms: C_9  and  O_10
REMARK    4  A    between atoms: C_18  and  O_19
REMARK                            x       y       z     vdW  Elec       q    Type
REMARK                         _______ _______ _______ _____ _____    ______ ____
ROOT
ATOM      1  C   UNL     1       5.805   4.356  19.273  0.00  0.00    +0.000 C 
ATOM      2  C   UNL     1       5.791   4.944  17.842  0.00  0.00    +0.000 C 
ATOM      3  C   UNL     1       5.028   6.295  17.838  0.00  0.00    +0.000 C 
ATOM      4  C   UNL     1       3.555   6.238  17.386  0.00  0.00    +0.000 C 
ATOM      5  C   UNL     1       2.885   4.833  17.451  0.00  0.00    +0.000 C 
ATOM      6  C   UNL     1       3.728   4.007  16.466  0.00  0.00    +0.000 C 
ATOM      7  C   UNL     1       5.244   3.986  16.751  0.00  0.00    +0.000 C 
ATOM      8  C   UNL     1       6.027   4.363  15.471  0.00  0.00    +0.000 C 
ATOM      9  C   UNL     1       7.269   5.140  15.893  0.00  0.00    +0.000 C 
ATOM     10  C   UNL     1       7.276   5.109  17.411  0.00  0.00    +0.000 C 
ENDROOT
BRANCH   5  11
ATOM     11  C   UNL     1       2.613   4.301  18.865  0.00  0.00    +0.000 A 
ATOM     12  C   UNL     1       2.758   2.905  19.080  0.00  0.00    +0.000 A 
ATOM     13  C   UNL     1       2.370   2.287  20.270  0.00  0.00    +0.000 A 
ATOM     14  C   UNL     1       1.872   3.059  21.305  0.00  0.00    +0.000 A 
ATOM     15  C   UNL     1       1.833   4.436  21.187  0.00  0.00    +0.000 A 
ATOM     16  C   UNL     1       2.227   5.062  19.993  0.00  0.00    +0.000 A 
ATOM     17 CL   UNL     1       2.211   6.786  20.072  0.00  0.00    +0.000 Cl
BRANCH  14  18
ATOM     18  O   UNL     1       1.417   2.500  22.461  0.00  0.00    +0.000 OA
ATOM     19  H   UNL     1       1.422   1.534  22.364  0.00  0.00    +0.000 HD
ENDBRANCH  14  18
ENDBRANCH   5  11
BRANCH  10  20
ATOM     20  O   UNL     1       8.087   4.006  17.825  0.00  0.00    +0.000 OA
ATOM     21  H   UNL     1       7.715   3.638  18.645  0.00  0.00    +0.000 HD
ENDBRANCH  10  20
TORSDOF 3
ENDMDL
MODEL 3
REMARK VINA RESULT:      -7.4      1.987      2.829
REMARK  Name = 
REMARK  4 active torsions:
REMARK  status: ('A' for Active; 'I' for Inactive)
REMARK    1  A    between atoms: C_1  and  C_2
REMARK    2  A    between atoms: C_5  and  C_6
REMARK    3  A    between atoms: C_9  and  O_10
REMARK    4  A    between atoms: C_18  and  O_19
REMARK                            x       y       z     vdW  Elec       q    Type
REMARK                         _______ _______ _______ _____ _____    ______ ____
ROOT
ATOM      1  C   UNL     1       4.319   4.182  20.051  0.00  0.00    +0.000 C 
ATOM      2  C   UNL     1       3.065   3.291  19.895  0.00  0.00    +0.000 C 
ATOM      3  C   UNL     1       3.386   2.089  18.968  0.00  0.00    +0.000 C 
ATOM      4  C   UNL     1       2.957   2.240  17.494  0.00  0.00    +0.000 C 
ATOM      5  C   UNL     1       2.707   3.699  17.011  0.00  0.00    +0.000 C 
ATOM      6  C   UNL     1       1.543   4.159  17.905  0.00  0.00    +0.000 C 
ATOM      7  C   UNL     1       1.791   4.040  19.423  0.00  0.00    +0.000 C 
ATOM      8  C   UNL     1       0.619   3.281  20.091  0.00  0.00    +0.000 C 
ATOM      9  C   UNL     1       1.190   2.460  21.243  0.00  0.00    +0.000 C 
ATOM     10  C   UNL     1       2.658   2.835  21.325  0.00  0.00    +0.000 C 
ENDROOT
BRANCH   5  11
ATOM     11  C   UNL     1       3.963   4.571  16.876  0.00  0.00    +0.000 A 
ATOM     12  C   UNL     1       5.117   3.975  16.300  0.00  0.00    +0.000 A 
ATOM     13  C   UNL     1       6.359   4.611  16.286  0.00  0.00    +0.000 A 
ATOM     14  C   UNL     1       6.474   5.889  16.803  0.00  0.00    +0.000 A 
ATOM     15  C   UNL     1       5.351   6.557  17.257  0.00  0.00    +0.000 A 
ATOM     16  C   UNL     1       4.098   5.923  17.268  0.00  0.00    +0.000 A 
ATOM     17 CL   UNL     1       2.802   6.948  17.766  0.00  0.00    +0.000 Cl
BRANCH  14  18
ATOM     18  O   UNL     1       7.674   6.529  16.875  0.00  0.00    +0.000 OA
ATOM     19  H   UNL     1       8.350   5.893  17.164  0.00  0.00    +0.000 HD
ENDBRANCH  14  18
ENDBRANCH   5  11
BRANCH  10  20
ATOM     20  O   UNL     1       2.792   3.884  22.288  0.00  0.00    +0.000 OA
ATOM     21  H   UNL     1       2.486   4.715  21.886  0.00  0.00    +0.000 HD
ENDBRANCH  10  20
TORSDOF 3
ENDMDL
MODEL 4
REMARK VINA RESULT:      -7.3      1.497      1.831
REMARK  Name = 
REMARK  4 active torsions:
REMARK  status: ('A' for Active; 'I' for Inactive)
REMARK    1  A    between atoms: C_1  and  C_2
REMARK    2  A    between atoms: C_5  and  C_6
REMARK    3  A    between atoms: C_9  and  O_10
REMARK    4  A    between atoms: C_18  and  O_19
REMARK                            x       y       z     vdW  Elec       q    Type
REMARK                         _______ _______ _______ _____ _____    ______ ____
ROOT
ATOM      1  C   UNL     1       2.420   3.557  17.332  0.00  0.00    +0.000 C 
ATOM      2  C   UNL     1       2.228   3.772  18.851  0.00  0.00    +0.000 C 
ATOM      3  C   UNL     1       2.055   5.285  19.149  0.00  0.00    +0.000 C 
ATOM      4  C   UNL     1       3.320   6.031  19.620  0.00  0.00    +0.000 C 
ATOM      5  C   UNL     1       4.673   5.334  19.290  0.00  0.00    +0.000 C 
ATOM      6  C   UNL     1       4.573   4.010  20.065  0.00  0.00    +0.000 C 
ATOM      7  C   UNL     1       3.336   3.148  19.741  0.00  0.00    +0.000 C 
ATOM      8  C   UNL     1       2.611   2.752  21.049  0.00  0.00    +0.000 C 
ATOM      9  C   UNL     1       1.114   2.705  20.759  0.00  0.00    +0.000 C 
ATOM     10  C   UNL     1       0.978   2.946  19.267  0.00  0.00    +0.000 C 
ENDROOT
BRANCH   5  11
ATOM     11  C   UNL     1       5.065   5.329  17.806  0.00  0.00    +0.000 A 
ATOM     12  C   UNL     1       5.799   4.213  17.324  0.00  0.00    +0.000 A 
ATOM     13  C   UNL     1       6.357   4.180  16.046  0.00  0.00    +0.000 A 
ATOM     14  C   UNL     1       6.152   5.246  15.187  0.00  0.00    +0.000 A 
ATOM     15  C   UNL     1       5.337   6.296  15.568  0.00  0.00    +0.000 A 
ATOM     16  C   UNL     1       4.770   6.331  16.852  0.00  0.00    +0.000 A 
ATOM     17 CL   UNL     1       3.699   7.661  17.106  0.00  0.00    +0.000 Cl
BRANCH  14  18
ATOM     18  O   UNL     1       6.729   5.295  13.954  0.00  0.00    +0.000 OA
ATOM     19  H   UNL     1       7.249   6.112  13.885  0.00  0.00    +0.000 HD
ENDBRANCH  14  18
ENDBRANCH   5  11
BRANCH  10  20
ATOM     20  O   UNL     1       0.928   1.674  18.617  0.00  0.00    +0.000 OA
ATOM     21  H   UNL     1       1.011   1.811  17.658  0.00  0.00    +0.000 HD
ENDBRANCH  10  20
TORSDOF 3
ENDMDL
MODEL 5
REMARK VINA RESULT:      -7.2      2.124      5.607
REMARK  Name = 
REMARK  4 active torsions:
REMARK  status: ('A' for Active; 'I' for Inactive)
REMARK    1  A    between atoms: C_1  and  C_2
REMARK    2  A    between atoms: C_5  and  C_6
REMARK    3  A    between atoms: C_9  and  O_10
REMARK    4  A    between atoms: C_18  and  O_19
REMARK                            x       y       z     vdW  Elec       q    Type
REMARK                         _______ _______ _______ _____ _____    ______ ____
ROOT
ATOM      1  C   UNL     1       5.352   4.678  19.753  0.00  0.00    +0.000 C 
ATOM      2  C   UNL     1       5.528   5.350  18.371  0.00  0.00    +0.000 C 
ATOM      3  C   UNL     1       4.481   6.482  18.201  0.00  0.00    +0.000 C 
ATOM      4  C   UNL     1       3.213   6.116  17.403  0.00  0.00    +0.000 C 
ATOM      5  C   UNL     1       2.910   4.593  17.283  0.00  0.00    +0.000 C 
ATOM      6  C   UNL     1       4.135   4.061  16.520  0.00  0.00    +0.000 C 
ATOM      7  C   UNL     1       5.500   4.374  17.166  0.00  0.00    +0.000 C 
ATOM      8  C   UNL     1       6.443   5.015  16.120  0.00  0.00    +0.000 C 
ATOM      9  C   UNL     1       7.325   6.028  16.844  0.00  0.00    +0.000 C 
ATOM     10  C   UNL     1       6.986   5.888  18.316  0.00  0.00    +0.000 C 
ENDROOT
BRANCH   5  11
ATOM     11  C   UNL     1       2.455   3.909  18.580  0.00  0.00    +0.000 A 
ATOM     12  C   UNL     1       1.620   4.652  19.455  0.00  0.00    +0.000 A 
ATOM     13  C   UNL     1       1.289   4.201  20.734  0.00  0.00    +0.000 A 
ATOM     14  C   UNL     1       1.744   2.966  21.158  0.00  0.00    +0.000 A 
ATOM     15  C   UNL     1       2.453   2.153  20.292  0.00  0.00    +0.000 A 
ATOM     16  C   UNL     1       2.783   2.600  19.003  0.00  0.00    +0.000 A 
ATOM     17 CL   UNL     1       3.573   1.410  18.033  0.00  0.00    +0.000 Cl
BRANCH  14  18
ATOM     18  O   UNL     1       1.507   2.508  22.419  0.00  0.00    +0.000 OA
ATOM     19  H   UNL     1       1.345   1.551  22.379  0.00  0.00    +0.000 HD
ENDBRANCH  14  18
ENDBRANCH   5  11
BRANCH  10  20
ATOM     20  O   UNL     1       7.922   4.977  18.899  0.00  0.00    +0.000 OA
ATOM     21  H   UNL     1       7.726   4.895  19.848  0.00  0.00    +0.000 HD
ENDBRANCH  10  20
TORSDOF 3
ENDMDL
MODEL 6
REMARK VINA RESULT:      -7.0      2.061      3.025
REMARK  Name = 
REMARK  4 active torsions:
REMARK  status: ('A' for Active; 'I' for Inactive)
REMARK    1  A    between atoms: C_1  and  C_2
REMARK    2  A    between atoms: C_5  and  C_6
REMARK    3  A    between atoms: C_9  and  O_10
REMARK    4  A    between atoms: C_18  and  O_19
REMARK                            x       y       z     vdW  Elec       q    Type
REMARK                         _______ _______ _______ _____ _____    ______ ____
ROOT
ATOM      1  C   UNL     1       4.252   6.830  17.540  0.00  0.00    +0.000 C 
ATOM      2  C   UNL     1       3.608   5.929  18.620  0.00  0.00    +0.000 C 
ATOM      3  C   UNL     1       4.716   5.277  19.488  0.00  0.00    +0.000 C 
ATOM      4  C   UNL     1       5.111   3.835  19.108  0.00  0.00    +0.000 C 
ATOM      5  C   UNL     1       4.728   3.391  17.666  0.00  0.00    +0.000 C 
ATOM      6  C   UNL     1       3.194   3.487  17.675  0.00  0.00    +0.000 C 
ATOM      7  C   UNL     1       2.622   4.863  18.073  0.00  0.00    +0.000 C 
ATOM      8  C   UNL     1       1.568   4.693  19.193  0.00  0.00    +0.000 C 
ATOM      9  C   UNL     1       1.658   5.909  20.109  0.00  0.00    +0.000 C 
ATOM     10  C   UNL     1       2.665   6.839  19.459  0.00  0.00    +0.000 C 
ENDROOT
BRANCH   5  11
ATOM     11  C   UNL     1       5.534   4.052  16.539  0.00  0.00    +0.000 A 
ATOM     12  C   UNL     1       4.891   4.220  15.284  0.00  0.00    +0.000 A 
ATOM     13  C   UNL     1       5.575   4.646  14.144  0.00  0.00    +0.000 A 
ATOM     14  C   UNL     1       6.918   4.968  14.238  0.00  0.00    +0.000 A 
ATOM     15  C   UNL     1       7.553   4.942  15.467  0.00  0.00    +0.000 A 
ATOM     16  C   UNL     1       6.867   4.519  16.617  0.00  0.00    +0.000 A 
ATOM     17 CL   UNL     1       7.789   4.657  18.069  0.00  0.00    +0.000 Cl
BRANCH  14  18
ATOM     18  O   UNL     1       7.648   5.323  13.145  0.00  0.00    +0.000 OA
ATOM     19  H   UNL     1       7.851   6.272  13.200  0.00  0.00    +0.000 HD
ENDBRANCH  14  18
ENDBRANCH   5  11
BRANCH  10  20
ATOM     20  O   UNL     1       1.946   7.770  18.647  0.00  0.00    +0.000 OA
ATOM     21  H   UNL     1       1.388   8.319  19.224  0.00  0.00    +0.000 HD
ENDBRANCH  10  20
TORSDOF 3
ENDMDL
MODEL 7
REMARK VINA RESULT:      -6.9      2.262      3.271
REMARK  Name = 
REMARK  4 active torsions:
REMARK  status: ('A' for Active; 'I' for Inactive)
REMARK    1  A    between atoms: C_1  and  C_2
REMARK    2  A    between atoms: C_5  and  C_6
REMARK    3  A    between atoms: C_9  and  O_10
REMARK    4  A    between atoms: C_18  and  O_19
REMARK                            x       y       z     vdW  Elec       q    Type
REMARK                         _______ _______ _______ _____ _____    ______ ____
ROOT
ATOM      1  C   UNL     1       4.055   5.612  19.886  0.00  0.00    +0.000 C 
ATOM      2  C   UNL     1       3.212   4.409  19.401  0.00  0.00    +0.000 C 
ATOM      3  C   UNL     1       4.062   3.113  19.465  0.00  0.00    +0.000 C 
ATOM      4  C   UNL     1       4.712   2.665  18.139  0.00  0.00    +0.000 C 
ATOM      5  C   UNL     1       4.844   3.769  17.048  0.00  0.00    +0.000 C 
ATOM      6  C   UNL     1       3.381   4.149  16.768  0.00  0.00    +0.000 C 
ATOM      7  C   UNL     1       2.567   4.590  18.002  0.00  0.00    +0.000 C 
ATOM      8  C   UNL     1       1.244   3.790  18.074  0.00  0.00    +0.000 C 
ATOM      9  C   UNL     1       0.912   3.566  19.545  0.00  0.00    +0.000 C 
ATOM     10  C   UNL     1       1.963   4.336  20.325  0.00  0.00    +0.000 C 
ENDROOT
BRANCH   5  11
ATOM     11  C   UNL     1       5.881   4.863  17.343  0.00  0.00    +0.000 A 
ATOM     12  C   UNL     1       6.931   4.547  18.245  0.00  0.00    +0.000 A 
ATOM     13  C   UNL     1       7.823   5.509  18.720  0.00  0.00    +0.000 A 
ATOM     14  C   UNL     1       7.724   6.811  18.265  0.00  0.00    +0.000 A 
ATOM     15  C   UNL     1       6.799   7.137  17.290  0.00  0.00    +0.000 A 
ATOM     16  C   UNL     1       5.902   6.171  16.805  0.00  0.00    +0.000 A 
ATOM     17 CL   UNL     1       4.898   6.735  15.519  0.00  0.00    +0.000 Cl
BRANCH  14  18
ATOM     18  O   UNL     1       8.526   7.802  18.745  0.00  0.00    +0.000 OA
ATOM     19  H   UNL     1       8.095   8.206  19.517  0.00  0.00    +0.000 HD
ENDBRANCH  14  18
ENDBRANCH   5  11
BRANCH  10  20
ATOM     20  O   UNL     1       1.431   5.630  20.622  0.00  0.00    +0.000 OA
ATOM     21  H   UNL     1       2.101   6.136  21.113  0.00  0.00    +0.000 HD
ENDBRANCH  10  20
TORSDOF 3
ENDMDL
MODEL 8
REMARK VINA RESULT:      -6.8      1.685      2.176
REMARK  Name = 
REMARK  4 active torsions:
REMARK  status: ('A' for Active; 'I' for Inactive)
REMARK    1  A    between atoms: C_1  and  C_2
REMARK    2  A    between atoms: C_5  and  C_6
REMARK    3  A    between atoms: C_9  and  O_10
REMARK    4  A    between atoms: C_18  and  O_19
REMARK                            x       y       z     vdW  Elec       q    Type
REMARK                         _______ _______ _______ _____ _____    ______ ____
ROOT
ATOM      1  C   UNL     1       4.392   2.904  19.508  0.00  0.00    +0.000 C 
ATOM      2  C   UNL     1       2.858   3.029  19.662  0.00  0.00    +0.000 C 
ATOM      3  C   UNL     1       2.157   2.508  18.379  0.00  0.00    +0.000 C 
ATOM      4  C   UNL     1       1.730   3.583  17.359  0.00  0.00    +0.000 C 
ATOM      5  C   UNL     1       2.449   4.958  17.489  0.00  0.00    +0.000 C 
ATOM      6  C   UNL     1       2.033   5.428  18.893  0.00  0.00    +0.000 C 
ATOM      7  C   UNL     1       2.357   4.448  20.039  0.00  0.00    +0.000 C 
ATOM      8  C   UNL     1       1.091   4.202  20.895  0.00  0.00    +0.000 C 
ATOM      9  C   UNL     1       1.129   2.757  21.382  0.00  0.00    +0.000 C 
ATOM     10  C   UNL     1       2.464   2.204  20.921  0.00  0.00    +0.000 C 
ENDROOT
BRANCH   5  11
ATOM     11  C   UNL     1       3.929   4.967  17.081  0.00  0.00    +0.000 A 
ATOM     12  C   UNL     1       4.419   3.843  16.366  0.00  0.00    +0.000 A 
ATOM     13  C   UNL     1       5.777   3.662  16.097  0.00  0.00    +0.000 A 
ATOM     14  C   UNL     1       6.682   4.630  16.493  0.00  0.00    +0.000 A 
ATOM     15  C   UNL     1       6.235   5.801  17.078  0.00  0.00    +0.000 A 
ATOM     16  C   UNL     1       4.870   5.989  17.345  0.00  0.00    +0.000 A 
ATOM     17 CL   UNL     1       4.492   7.551  17.977  0.00  0.00    +0.000 Cl
BRANCH  14  18
ATOM     18  O   UNL     1       8.024   4.472  16.315  0.00  0.00    +0.000 OA
ATOM     19  H   UNL     1       8.316   3.695  16.820  0.00  0.00    +0.000 HD
ENDBRANCH  14  18
ENDBRANCH   5  11
BRANCH  10  20
ATOM     20  O   UNL     1       3.401   2.364  21.989  0.00  0.00    +0.000 OA
ATOM     21  H   UNL     1       3.660   3.301  22.037  0.00  0.00    +0.000 HD
ENDBRANCH  10  20
TORSDOF 3
ENDMDL
MODEL 9
REMARK VINA RESULT:      -6.3      1.977      2.627
REMARK  Name = 
REMARK  4 active torsions:
REMARK  status: ('A' for Active; 'I' for Inactive)
REMARK    1  A    between atoms: C_1  and  C_2
REMARK    2  A    between atoms: C_5  and  C_6
REMARK    3  A    between atoms: C_9  and  O_10
REMARK    4  A    between atoms: C_18  and  O_19
REMARK                            x       y       z     vdW  Elec       q    Type
REMARK                         _______ _______ _______ _____ _____    ______ ____
ROOT
ATOM      1  C   UNL     1       4.484   3.886  20.016  0.00  0.00    +0.000 C 
ATOM      2  C   UNL     1       3.093   3.285  19.708  0.00  0.00    +0.000 C 
ATOM      3  C   UNL     1       3.209   2.260  18.549  0.00  0.00    +0.000 C 
ATOM      4  C   UNL     1       2.840   2.782  17.146  0.00  0.00    +0.000 C 
ATOM      5  C   UNL     1       2.863   4.330  16.976  0.00  0.00    +0.000 C 
ATOM      6  C   UNL     1       1.785   4.798  17.968  0.00  0.00    +0.000 C 
ATOM      7  C   UNL     1       1.982   4.330  19.425  0.00  0.00    +0.000 C 
ATOM      8  C   UNL     1       0.682   3.673  19.947  0.00  0.00    +0.000 C 
ATOM      9  C   UNL     1       1.077   2.546  20.896  0.00  0.00    +0.000 C 
ATOM     10  C   UNL     1       2.588   2.627  21.024  0.00  0.00    +0.000 C 
ENDROOT
BRANCH   5  11
ATOM     11  C   UNL     1       4.257   4.972  16.995  0.00  0.00    +0.000 A 
ATOM     12  C   UNL     1       4.401   6.210  17.675  0.00  0.00    +0.000 A 
ATOM     13  C   UNL     1       5.571   6.967  17.611  0.00  0.00    +0.000 A 
ATOM     14  C   UNL     1       6.656   6.482  16.902  0.00  0.00    +0.000 A 
ATOM     15  C   UNL     1       6.605   5.224  16.331  0.00  0.00    +0.000 A 
ATOM     16  C   UNL     1       5.432   4.456  16.399  0.00  0.00    +0.000 A 
ATOM     17 CL   UNL     1       5.593   2.875  15.725  0.00  0.00    +0.000 Cl
BRANCH  14  18
ATOM     18  O   UNL     1       7.797   7.210  16.751  0.00  0.00    +0.000 OA
ATOM     19  H   UNL     1       7.871   7.834  17.492  0.00  0.00    +0.000 HD
ENDBRANCH  14  18
ENDBRANCH   5  11
BRANCH  10  20
ATOM     20  O   UNL     1       2.891   3.416  22.177  0.00  0.00    +0.000 OA
ATOM     21  H   UNL     1       3.779   3.176  22.493  0.00  0.00    +0.000 HD
ENDBRANCH  10  20
TORSDOF 3
ENDMDL
