MODEL 1
REMARK VINA RESULT:      -7.8      0.000      0.000
REMARK  Name = 
REMARK  8 active torsions:
REMARK  status: ('A' for Active; 'I' for Inactive)
REMARK    1  A    between atoms: C_1  and  C_2
REMARK    2  A    between atoms: C_2  and  O_3
REMARK    3  A    between atoms: C_2  and  C_15
REMARK    4  A    between atoms: O_3  and  C_4
REMARK    5  A    between atoms: C_4  and  C_6
REMARK    6  A    between atoms: C_7  and  C_8
REMARK    7  A    between atoms: N_17  and  C_18
REMARK    8  A    between atoms: C_23  and  C_24
REMARK                            x       y       z     vdW  Elec       q    Type
REMARK                         _______ _______ _______ _____ _____    ______ ____
ROOT
ATOM      1  C   UNL     1       7.275   4.813  15.511  0.00  0.00    +0.000 C 
ATOM      2  C   UNL     1       6.867   5.565  16.770  0.00  0.00    +0.000 C 
ENDROOT
BRANCH   2   3
ATOM      3  C   UNL     1       5.336   5.756  16.779  0.00  0.00    +0.000 C 
ATOM      4  O   UNL     1       4.792   6.673  16.168  0.00  0.00    +0.000 OA
ATOM      5  N   UNL     1       4.643   4.857  17.576  0.00  0.00    +0.000 N 
ATOM      6  H   UNL     1       5.157   4.021  17.831  0.00  0.00    +0.000 HD
BRANCH   5   7
ATOM      7  C   UNL     1       3.177   4.810  17.582  0.00  0.00    +0.000 C 
ATOM      8  C   UNL     1       2.673   3.431  17.127  0.00  0.00    +0.000 C 
ATOM      9  C   UNL     1       2.975   2.335  18.152  0.00  0.00    +0.000 C 
ATOM     10  C   UNL     1       2.439   2.682  19.540  0.00  0.00    +0.000 C 
ATOM     11  C   UNL     1       2.882   4.067  20.007  0.00  0.00    +0.000 C 
ATOM     12  C   UNL     1       2.547   5.137  18.958  0.00  0.00    +0.000 C 
ATOM     13  C   UNL     1       2.864   6.542  19.458  0.00  0.00    +0.000 C 
ENDBRANCH   5   7
ENDBRANCH   2   3
BRANCH   2  14
ATOM     14  O   UNL     1       7.498   6.861  16.808  0.00  0.00    +0.000 OA
BRANCH  14  15
ATOM     15  C   UNL     1       7.911   7.269  18.038  0.00  0.00    +0.000 C 
ATOM     16  O   UNL     1       7.971   6.590  19.047  0.00  0.00    +0.000 OA
BRANCH  15  17
ATOM     17  C   UNL     1       8.251   8.706  17.951  0.00  0.00    +0.000 C 
ATOM     18  C   UNL     1       8.987   9.280  18.916  0.00  0.00    +0.000 C 
BRANCH  18  19
ATOM     19  C   UNL     1       9.277  10.720  18.919  0.00  0.00    +0.000 A 
ATOM     20  C   UNL     1       9.605  11.317  17.692  0.00  0.00    +0.000 A 
ATOM     21  C   UNL     1       9.880  12.685  17.614  0.00  0.00    +0.000 A 
ATOM     22  C   UNL     1       9.825  13.473  18.761  0.00  0.00    +0.000 A 
ATOM     23  C   UNL     1       9.504  12.893  19.989  0.00  0.00    +0.000 A 
ATOM     24  C   UNL     1       9.234  11.522  20.071  0.00  0.00    +0.000 A 
ATOM     25 CL   UNL     1       8.852  10.865  21.624  0.00  0.00    +0.000 Cl
ENDBRANCH  18  19
ENDBRANCH  15  17
ENDBRANCH  14  15
ENDBRANCH   2  14
TORSDOF 6
ENDMDL
MODEL 2
REMARK VINA RESULT:      -7.8      1.830      2.720
REMARK  Name = 
REMARK  8 active torsions:
REMARK  status: ('A' for Active; 'I' for Inactive)
REMARK    1  A    between atoms: C_1  and  C_2
REMARK    2  A    between atoms: C_2  and  O_3
REMARK    3  A    between atoms: C_2  and  C_15
REMARK    4  A    between atoms: O_3  and  C_4
REMARK    5  A    between atoms: C_4  and  C_6
REMARK    6  A    between atoms: C_7  and  C_8
REMARK    7  A    between atoms: N_17  and  C_18
REMARK    8  A    between atoms: C_23  and  C_24
REMARK                            x       y       z     vdW  Elec       q    Type
REMARK                         _______ _______ _______ _____ _____    ______ ____
ROOT
ATOM      1  C   UNL     1       4.525   6.786  17.484  0.00  0.00    +0.000 C 
ATOM      2  C   UNL     1       5.787   5.970  17.728  0.00  0.00    +0.000 C 
ENDROOT
BRANCH   2   3
ATOM      3  C   UNL     1       5.443   4.743  18.598  0.00  0.00    +0.000 C 
ATOM      4  O   UNL     1       6.306   3.958  18.983  0.00  0.00    +0.000 OA
ATOM      5  N   UNL     1       4.089   4.570  18.849  0.00  0.00    +0.000 N 
ATOM      6  H   UNL     1       3.513   5.388  18.690  0.00  0.00    +0.000 HD
BRANCH   5   7
ATOM      7  C   UNL     1       3.608   3.540  19.775  0.00  0.00    +0.000 C 
ATOM      8  C   UNL     1       2.759   4.165  20.894  0.00  0.00    +0.000 C 
ATOM      9  C   UNL     1       1.422   4.701  20.377  0.00  0.00    +0.000 C 
ATOM     10  C   UNL     1       0.629   3.636  19.621  0.00  0.00    +0.000 C 
ATOM     11  C   UNL     1       1.456   2.959  18.530  0.00  0.00    +0.000 C 
ATOM     12  C   UNL     1       2.780   2.423  19.092  0.00  0.00    +0.000 C 
ATOM     13  C   UNL     1       3.562   1.632  18.050  0.00  0.00    +0.000 C 
ENDBRANCH   5   7
ENDBRANCH   2   3
BRANCH   2  14
ATOM     14  O   UNL     1       6.775   6.765  18.413  0.00  0.00    +0.000 OA
BRANCH  14  15
ATOM     15  C   UNL     1       7.591   7.496  17.608  0.00  0.00    +0.000 C 
ATOM     16  O   UNL     1       7.914   7.230  16.465  0.00  0.00    +0.000 OA
BRANCH  15  17
ATOM     17  C   UNL     1       8.055   8.673  18.376  0.00  0.00    +0.000 C 
ATOM     18  C   UNL     1       8.591   9.723  17.735  0.00  0.00    +0.000 C 
BRANCH  18  19
ATOM     19  C   UNL     1       9.143  10.876  18.458  0.00  0.00    +0.000 A 
ATOM     20  C   UNL     1      10.099  10.618  19.454  0.00  0.00    +0.000 A 
ATOM     21  C   UNL     1      10.680  11.664  20.176  0.00  0.00    +0.000 A 
ATOM     22  C   UNL     1      10.316  12.981  19.906  0.00  0.00    +0.000 A 
ATOM     23  C   UNL     1       9.365  13.254  18.922  0.00  0.00    +0.000 A 
ATOM     24  C   UNL     1       8.777  12.206  18.203  0.00  0.00    +0.000 A 
ATOM     25 CL   UNL     1       7.599  12.611  17.004  0.00  0.00    +0.000 Cl
ENDBRANCH  18  19
ENDBRANCH  15  17
ENDBRANCH  14  15
ENDBRANCH   2  14
TORSDOF 6
ENDMDL
MODEL 3
REMARK VINA RESULT:      -7.7      1.004      1.046
REMARK  Name = 
REMARK  8 active torsions:
REMARK  status: ('A' for Active; 'I' for Inactive)
REMARK    1  A    between atoms: C_1  and  C_2
REMARK    2  A    between atoms: C_2  and  O_3
REMARK    3  A    between atoms: C_2  and  C_15
REMARK    4  A    between atoms: O_3  and  C_4
REMARK    5  A    between atoms: C_4  and  C_6
REMARK    6  A    between atoms: C_7  and  C_8
REMARK    7  A    between atoms: N_17  and  C_18
REMARK    8  A    between atoms: C_23  and  C_24
REMARK                            x       y       z     vdW  Elec       q    Type
REMARK                         _______ _______ _______ _____ _____    ______ ____
ROOT
ATOM      1  C   UNL     1       6.893   5.114  15.744  0.00  0.00    +0.000 C 
ATOM      2  C   UNL     1       6.559   5.985  16.947  0.00  0.00    +0.000 C 
ENDROOT
BRANCH   2   3
ATOM      3  C   UNL     1       5.027   6.080  17.101  0.00  0.00    +0.000 C 
ATOM      4  O   UNL     1       4.401   7.082  16.763  0.00  0.00    +0.000 OA
ATOM      5  N   UNL     1       4.434   4.980  17.705  0.00  0.00    +0.000 N 
ATOM      6  H   UNL     1       4.999   4.139  17.719  0.00  0.00    +0.000 HD
BRANCH   5   7
ATOM      7  C   UNL     1       2.977   4.849  17.795  0.00  0.00    +0.000 C 
ATOM      8  C   UNL     1       2.521   3.465  17.305  0.00  0.00    +0.000 C 
ATOM      9  C   UNL     1       2.945   2.344  18.257  0.00  0.00    +0.000 C 
ATOM     10  C   UNL     1       2.478   2.597  19.689  0.00  0.00    +0.000 C 
ATOM     11  C   UNL     1       2.872   3.984  20.195  0.00  0.00    +0.000 C 
ATOM     12  C   UNL     1       2.415   5.078  19.220  0.00  0.00    +0.000 C 
ATOM     13  C   UNL     1       2.685   6.476  19.767  0.00  0.00    +0.000 C 
ENDBRANCH   5   7
ENDBRANCH   2   3
BRANCH   2  14
ATOM     14  O   UNL     1       7.093   7.312  16.769  0.00  0.00    +0.000 OA
BRANCH  14  15
ATOM     15  C   UNL     1       7.814   7.792  17.818  0.00  0.00    +0.000 C 
ATOM     16  O   UNL     1       8.317   7.140  18.714  0.00  0.00    +0.000 OA
BRANCH  15  17
ATOM     17  C   UNL     1       7.860   9.266  17.703  0.00  0.00    +0.000 C 
ATOM     18  C   UNL     1       8.859   9.953  18.279  0.00  0.00    +0.000 C 
BRANCH  18  19
ATOM     19  C   UNL     1       8.901  11.421  18.267  0.00  0.00    +0.000 A 
ATOM     20  C   UNL     1       7.974  12.089  17.452  0.00  0.00    +0.000 A 
ATOM     21  C   UNL     1       7.945  13.485  17.399  0.00  0.00    +0.000 A 
ATOM     22  C   UNL     1       8.838  14.230  18.164  0.00  0.00    +0.000 A 
ATOM     23  C   UNL     1       9.768  13.581  18.976  0.00  0.00    +0.000 A 
ATOM     24  C   UNL     1       9.804  12.182  19.026  0.00  0.00    +0.000 A 
ATOM     25 CL   UNL     1      10.987  11.440  20.046  0.00  0.00    +0.000 Cl
ENDBRANCH  18  19
ENDBRANCH  15  17
ENDBRANCH  14  15
ENDBRANCH   2  14
TORSDOF 6
ENDMDL
MODEL 4
REMARK VINA RESULT:      -7.4      0.984      1.507
REMARK  Name = 
REMARK  8 active torsions:
REMARK  status: ('A' for Active; 'I' for Inactive)
REMARK    1  A    between atoms: C_1  and  C_2
REMARK    2  A    between atoms: C_2  and  O_3
REMARK    3  A    between atoms: C_2  and  C_15
REMARK    4  A    between atoms: O_3  and  C_4
REMARK    5  A    between atoms: C_4  and  C_6
REMARK    6  A    between atoms: C_7  and  C_8
REMARK    7  A    between atoms: N_17  and  C_18
REMARK    8  A    between atoms: C_23  and  C_24
REMARK                            x       y       z     vdW  Elec       q    Type
REMARK                         _______ _______ _______ _____ _____    ______ ____
ROOT
ATOM      1  C   UNL     1       7.404   5.158  16.027  0.00  0.00    +0.000 C 
ATOM      2  C   UNL     1       6.641   5.923  17.099  0.00  0.00    +0.000 C 
ENDROOT
BRANCH   2   3
ATOM      3  C   UNL     1       5.133   5.898  16.770  0.00  0.00    +0.000 C 
ATOM      4  O   UNL     1       4.720   5.691  15.632  0.00  0.00    +0.000 OA
ATOM      5  N   UNL     1       4.300   6.189  17.841  0.00  0.00    +0.000 N 
ATOM      6  H   UNL     1       4.728   6.105  18.756  0.00  0.00    +0.000 HD
BRANCH   5   7
ATOM      7  C   UNL     1       2.843   6.067  17.733  0.00  0.00    +0.000 C 
ATOM      8  C   UNL     1       2.358   4.745  18.351  0.00  0.00    +0.000 C 
ATOM      9  C   UNL     1       2.511   4.726  19.874  0.00  0.00    +0.000 C 
ATOM     10  C   UNL     1       1.828   5.921  20.536  0.00  0.00    +0.000 C 
ATOM     11  C   UNL     1       2.250   7.252  19.915  0.00  0.00    +0.000 C 
ATOM     12  C   UNL     1       2.067   7.234  18.391  0.00  0.00    +0.000 C 
ATOM     13  C   UNL     1       2.361   8.593  17.767  0.00  0.00    +0.000 C 
ENDBRANCH   5   7
ENDBRANCH   2   3
BRANCH   2  14
ATOM     14  O   UNL     1       7.083   7.294  17.150  0.00  0.00    +0.000 OA
BRANCH  14  15
ATOM     15  C   UNL     1       7.969   7.580  18.142  0.00  0.00    +0.000 C 
ATOM     16  O   UNL     1       8.360   6.821  19.010  0.00  0.00    +0.000 OA
BRANCH  15  17
ATOM     17  C   UNL     1       8.363   9.000  18.005  0.00  0.00    +0.000 C 
ATOM     18  C   UNL     1       8.975   9.627  19.022  0.00  0.00    +0.000 C 
BRANCH  18  19
ATOM     19  C   UNL     1       9.306  11.056  18.967  0.00  0.00    +0.000 A 
ATOM     20  C   UNL     1       9.617  11.602  17.712  0.00  0.00    +0.000 A 
ATOM     21  C   UNL     1       9.929  12.957  17.579  0.00  0.00    +0.000 A 
ATOM     22  C   UNL     1       9.928  13.785  18.698  0.00  0.00    +0.000 A 
ATOM     23  C   UNL     1       9.625  13.257  19.954  0.00  0.00    +0.000 A 
ATOM     24  C   UNL     1       9.318  11.898  20.091  0.00  0.00    +0.000 A 
ATOM     25 CL   UNL     1       8.961  11.306  21.675  0.00  0.00    +0.000 Cl
ENDBRANCH  18  19
ENDBRANCH  15  17
ENDBRANCH  14  15
ENDBRANCH   2  14
TORSDOF 6
ENDMDL
MODEL 5
REMARK VINA RESULT:      -7.4      4.215      6.877
REMARK  Name = 
REMARK  8 active torsions:
REMARK  status: ('A' for Active; 'I' for Inactive)
REMARK    1  A    between atoms: C_1  and  C_2
REMARK    2  A    between atoms: C_2  and  O_3
REMARK    3  A    between atoms: C_2  and  C_15
REMARK    4  A    between atoms: O_3  and  C_4
REMARK    5  A    between atoms: C_4  and  C_6
REMARK    6  A    between atoms: C_7  and  C_8
REMARK    7  A    between atoms: N_17  and  C_18
REMARK    8  A    between atoms: C_23  and  C_24
REMARK                            x       y       z     vdW  Elec       q    Type
REMARK                         _______ _______ _______ _____ _____    ______ ____
ROOT
ATOM      1  C   UNL     1       2.888   1.938  18.387  0.00  0.00    +0.000 C 
ATOM      2  C   UNL     1       3.264   3.227  19.103  0.00  0.00    +0.000 C 
ENDROOT
BRANCH   2   3
ATOM      3  C   UNL     1       4.690   3.646  18.691  0.00  0.00    +0.000 C 
ATOM      4  O   UNL     1       5.610   3.706  19.503  0.00  0.00    +0.000 OA
ATOM      5  N   UNL     1       4.828   4.005  17.358  0.00  0.00    +0.000 N 
ATOM      6  H   UNL     1       4.081   3.693  16.747  0.00  0.00    +0.000 HD
BRANCH   5   7
ATOM      7  C   UNL     1       6.142   4.288  16.772  0.00  0.00    +0.000 C 
ATOM      8  C   UNL     1       6.320   3.539  15.442  0.00  0.00    +0.000 C 
ATOM      9  C   UNL     1       5.416   4.093  14.338  0.00  0.00    +0.000 C 
ATOM     10  C   UNL     1       5.598   5.597  14.146  0.00  0.00    +0.000 C 
ATOM     11  C   UNL     1       5.474   6.372  15.456  0.00  0.00    +0.000 C 
ATOM     12  C   UNL     1       6.407   5.794  16.530  0.00  0.00    +0.000 C 
ATOM     13  C   UNL     1       6.394   6.631  17.805  0.00  0.00    +0.000 C 
ENDBRANCH   5   7
ENDBRANCH   2   3
BRANCH   2  14
ATOM     14  O   UNL     1       3.229   3.037  20.532  0.00  0.00    +0.000 OA
BRANCH  14  15
ATOM     15  C   UNL     1       2.083   3.441  21.143  0.00  0.00    +0.000 C 
ATOM     16  O   UNL     1       1.484   2.855  22.026  0.00  0.00    +0.000 OA
BRANCH  15  17
ATOM     17  C   UNL     1       1.661   4.716  20.523  0.00  0.00    +0.000 C 
ATOM     18  C   UNL     1       2.243   5.867  20.895  0.00  0.00    +0.000 C 
BRANCH  18  19
ATOM     19  C   UNL     1       1.799   7.166  20.373  0.00  0.00    +0.000 A 
ATOM     20  C   UNL     1       1.060   7.993  21.234  0.00  0.00    +0.000 A 
ATOM     21  C   UNL     1       0.615   9.248  20.812  0.00  0.00    +0.000 A 
ATOM     22  C   UNL     1       0.910   9.696  19.527  0.00  0.00    +0.000 A 
ATOM     23  C   UNL     1       1.641   8.885  18.658  0.00  0.00    +0.000 A 
ATOM     24  C   UNL     1       2.081   7.623  19.076  0.00  0.00    +0.000 A 
ATOM     25 CL   UNL     1       2.974   6.664  17.948  0.00  0.00    +0.000 Cl
ENDBRANCH  18  19
ENDBRANCH  15  17
ENDBRANCH  14  15
ENDBRANCH   2  14
TORSDOF 6
ENDMDL
MODEL 6
REMARK VINA RESULT:      -7.3      4.371      6.614
REMARK  Name = 
REMARK  8 active torsions:
REMARK  status: ('A' for Active; 'I' for Inactive)
REMARK    1  A    between atoms: C_1  and  C_2
REMARK    2  A    between atoms: C_2  and  O_3
REMARK    3  A    between atoms: C_2  and  C_15
REMARK    4  A    between atoms: O_3  and  C_4
REMARK    5  A    between atoms: C_4  and  C_6
REMARK    6  A    between atoms: C_7  and  C_8
REMARK    7  A    between atoms: N_17  and  C_18
REMARK    8  A    between atoms: C_23  and  C_24
REMARK                            x       y       z     vdW  Elec       q    Type
REMARK                         _______ _______ _______ _____ _____    ______ ____
ROOT
ATOM      1  C   UNL     1       4.070   2.977  19.948  0.00  0.00    +0.000 C 
ATOM      2  C   UNL     1       2.884   2.762  19.018  0.00  0.00    +0.000 C 
ENDROOT
BRANCH   2   3
ATOM      3  C   UNL     1       3.110   3.548  17.710  0.00  0.00    +0.000 C 
ATOM      4  O   UNL     1       2.316   3.495  16.774  0.00  0.00    +0.000 OA
ATOM      5  N   UNL     1       4.302   4.258  17.657  0.00  0.00    +0.000 N 
ATOM      6  H   UNL     1       4.748   4.419  18.553  0.00  0.00    +0.000 HD
BRANCH   5   7
ATOM      7  C   UNL     1       4.602   5.168  16.548  0.00  0.00    +0.000 C 
ATOM      8  C   UNL     1       4.743   6.614  17.052  0.00  0.00    +0.000 C 
ATOM      9  C   UNL     1       5.999   6.813  17.902  0.00  0.00    +0.000 C 
ATOM     10  C   UNL     1       7.264   6.363  17.175  0.00  0.00    +0.000 C 
ATOM     11  C   UNL     1       7.145   4.945  16.619  0.00  0.00    +0.000 C 
ATOM     12  C   UNL     1       5.881   4.793  15.760  0.00  0.00    +0.000 C 
ATOM     13  C   UNL     1       5.809   3.425  15.092  0.00  0.00    +0.000 C 
ENDBRANCH   5   7
ENDBRANCH   2   3
BRANCH   2  14
ATOM     14  O   UNL     1       1.669   3.230  19.638  0.00  0.00    +0.000 OA
BRANCH  14  15
ATOM     15  C   UNL     1       1.839   4.141  20.633  0.00  0.00    +0.000 C 
ATOM     16  O   UNL     1       2.248   3.922  21.758  0.00  0.00    +0.000 OA
BRANCH  15  17
ATOM     17  C   UNL     1       1.408   5.461  20.120  0.00  0.00    +0.000 C 
ATOM     18  C   UNL     1       2.308   6.445  19.962  0.00  0.00    +0.000 C 
BRANCH  18  19
ATOM     19  C   UNL     1       1.915   7.796  19.540  0.00  0.00    +0.000 A 
ATOM     20  C   UNL     1       2.152   8.151  18.203  0.00  0.00    +0.000 A 
ATOM     21  C   UNL     1       1.793   9.414  17.725  0.00  0.00    +0.000 A 
ATOM     22  C   UNL     1       1.188  10.335  18.577  0.00  0.00    +0.000 A 
ATOM     23  C   UNL     1       0.949   9.998  19.910  0.00  0.00    +0.000 A 
ATOM     24  C   UNL     1       1.314   8.735  20.392  0.00  0.00    +0.000 A 
ATOM     25 CL   UNL     1       0.999   8.384  22.056  0.00  0.00    +0.000 Cl
ENDBRANCH  18  19
ENDBRANCH  15  17
ENDBRANCH  14  15
ENDBRANCH   2  14
TORSDOF 6
ENDMDL
MODEL 7
REMARK VINA RESULT:      -7.3      4.926      6.810
REMARK  Name = 
REMARK  8 active torsions:
REMARK  status: ('A' for Active; 'I' for Inactive)
REMARK    1  A    between atoms: C_1  and  C_2
REMARK    2  A    between atoms: C_2  and  O_3
REMARK    3  A    between atoms: C_2  and  C_15
REMARK    4  A    between atoms: O_3  and  C_4
REMARK    5  A    between atoms: C_4  and  C_6
REMARK    6  A    between atoms: C_7  and  C_8
REMARK    7  A    between atoms: N_17  and  C_18
REMARK    8  A    between atoms: C_23  and  C_24
REMARK                            x       y       z     vdW  Elec       q    Type
REMARK                         _______ _______ _______ _____ _____    ______ ____
ROOT
ATOM      1  C   UNL     1       4.672   6.732  16.507  0.00  0.00    +0.000 C 
ATOM      2  C   UNL     1       4.072   6.944  17.890  0.00  0.00    +0.000 C 
ENDROOT
BRANCH   2   3
ATOM      3  C   UNL     1       4.320   5.691  18.755  0.00  0.00    +0.000 C 
ATOM      4  O   UNL     1       5.389   5.498  19.327  0.00  0.00    +0.000 OA
ATOM      5  N   UNL     1       3.271   4.783  18.776  0.00  0.00    +0.000 N 
ATOM      6  H   UNL     1       2.376   5.150  18.474  0.00  0.00    +0.000 HD
BRANCH   5   7
ATOM      7  C   UNL     1       3.288   3.613  19.660  0.00  0.00    +0.000 C 
ATOM      8  C   UNL     1       2.448   3.870  20.922  0.00  0.00    +0.000 C 
ATOM      9  C   UNL     1       0.950   3.946  20.616  0.00  0.00    +0.000 C 
ATOM     10  C   UNL     1       0.451   2.710  19.870  0.00  0.00    +0.000 C 
ATOM     11  C   UNL     1       1.291   2.396  18.634  0.00  0.00    +0.000 C 
ATOM     12  C   UNL     1       2.784   2.313  18.987  0.00  0.00    +0.000 C 
ATOM     13  C   UNL     1       3.626   1.875  17.794  0.00  0.00    +0.000 C 
ENDBRANCH   5   7
ENDBRANCH   2   3
BRANCH   2  14
ATOM     14  O   UNL     1       2.651   7.169  17.793  0.00  0.00    +0.000 OA
BRANCH  14  15
ATOM     15  C   UNL     1       2.263   8.470  17.871  0.00  0.00    +0.000 C 
ATOM     16  O   UNL     1       2.534   9.359  17.086  0.00  0.00    +0.000 OA
BRANCH  15  17
ATOM     17  C   UNL     1       1.468   8.634  19.108  0.00  0.00    +0.000 C 
ATOM     18  C   UNL     1       1.127   9.863  19.528  0.00  0.00    +0.000 C 
BRANCH  18  19
ATOM     19  C   UNL     1       0.415  10.082  20.794  0.00  0.00    +0.000 A 
ATOM     20  C   UNL     1       0.726   9.233  21.868  0.00  0.00    +0.000 A 
ATOM     21  C   UNL     1       0.099   9.389  23.107  0.00  0.00    +0.000 A 
ATOM     22  C   UNL     1      -0.843  10.399  23.289  0.00  0.00    +0.000 A 
ATOM     23  C   UNL     1      -1.166  11.248  22.229  0.00  0.00    +0.000 A 
ATOM     24  C   UNL     1      -0.543  11.090  20.985  0.00  0.00    +0.000 A 
ATOM     25 CL   UNL     1      -0.996  12.169  19.712  0.00  0.00    +0.000 Cl
ENDBRANCH  18  19
ENDBRANCH  15  17
ENDBRANCH  14  15
ENDBRANCH   2  14
TORSDOF 6
ENDMDL
MODEL 8
REMARK VINA RESULT:      -7.3      4.153      6.890
REMARK  Name = 
REMARK  8 active torsions:
REMARK  status: ('A' for Active; 'I' for Inactive)
REMARK    1  A    between atoms: C_1  and  C_2
REMARK    2  A    between atoms: C_2  and  O_3
REMARK    3  A    between atoms: C_2  and  C_15
REMARK    4  A    between atoms: O_3  and  C_4
REMARK    5  A    between atoms: C_4  and  C_6
REMARK    6  A    between atoms: C_7  and  C_8
REMARK    7  A    between atoms: N_17  and  C_18
REMARK    8  A    between atoms: C_23  and  C_24
REMARK                            x       y       z     vdW  Elec       q    Type
REMARK                         _______ _______ _______ _____ _____    ______ ____
ROOT
ATOM      1  C   UNL     1       4.620   2.437  19.799  0.00  0.00    +0.000 C 
ATOM      2  C   UNL     1       3.323   3.123  19.391  0.00  0.00    +0.000 C 
ENDROOT
BRANCH   2   3
ATOM      3  C   UNL     1       3.488   3.734  17.984  0.00  0.00    +0.000 C 
ATOM      4  O   UNL     1       2.777   3.396  17.042  0.00  0.00    +0.000 OA
ATOM      5  N   UNL     1       4.535   4.638  17.862  0.00  0.00    +0.000 N 
ATOM      6  H   UNL     1       4.887   5.010  18.737  0.00  0.00    +0.000 HD
BRANCH   5   7
ATOM      7  C   UNL     1       4.737   5.414  16.635  0.00  0.00    +0.000 C 
ATOM      8  C   UNL     1       4.834   6.916  16.949  0.00  0.00    +0.000 C 
ATOM      9  C   UNL     1       6.121   7.270  17.699  0.00  0.00    +0.000 C 
ATOM     10  C   UNL     1       7.368   6.784  16.964  0.00  0.00    +0.000 C 
ATOM     11  C   UNL     1       7.288   5.304  16.593  0.00  0.00    +0.000 C 
ATOM     12  C   UNL     1       5.992   4.995  15.830  0.00  0.00    +0.000 C 
ATOM     13  C   UNL     1       5.951   3.552  15.340  0.00  0.00    +0.000 C 
ENDBRANCH   5   7
ENDBRANCH   2   3
BRANCH   2  14
ATOM     14  O   UNL     1       2.998   4.175  20.321  0.00  0.00    +0.000 OA
BRANCH  14  15
ATOM     15  C   UNL     1       1.720   4.163  20.787  0.00  0.00    +0.000 C 
ATOM     16  O   UNL     1       1.053   3.180  21.056  0.00  0.00    +0.000 OA
BRANCH  15  17
ATOM     17  C   UNL     1       1.257   5.565  20.884  0.00  0.00    +0.000 C 
ATOM     18  C   UNL     1       1.905   6.533  20.217  0.00  0.00    +0.000 C 
BRANCH  18  19
ATOM     19  C   UNL     1       1.538   7.948  20.351  0.00  0.00    +0.000 A 
ATOM     20  C   UNL     1       1.225   8.418  21.636  0.00  0.00    +0.000 A 
ATOM     21  C   UNL     1       0.879   9.756  21.844  0.00  0.00    +0.000 A 
ATOM     22  C   UNL     1       0.848  10.642  20.770  0.00  0.00    +0.000 A 
ATOM     23  C   UNL     1       1.152  10.189  19.485  0.00  0.00    +0.000 A 
ATOM     24  C   UNL     1       1.492   8.848  19.274  0.00  0.00    +0.000 A 
ATOM     25 CL   UNL     1       1.850   8.350  17.657  0.00  0.00    +0.000 Cl
ENDBRANCH  18  19
ENDBRANCH  15  17
ENDBRANCH  14  15
ENDBRANCH   2  14
TORSDOF 6
ENDMDL
MODEL 9
REMARK VINA RESULT:      -7.3      1.482      1.997
REMARK  Name = 
REMARK  8 active torsions:
REMARK  status: ('A' for Active; 'I' for Inactive)
REMARK    1  A    between atoms: C_1  and  C_2
REMARK    2  A    between atoms: C_2  and  O_3
REMARK    3  A    between atoms: C_2  and  C_15
REMARK    4  A    between atoms: O_3  and  C_4
REMARK    5  A    between atoms: C_4  and  C_6
REMARK    6  A    between atoms: C_7  and  C_8
REMARK    7  A    between atoms: N_17  and  C_18
REMARK    8  A    between atoms: C_23  and  C_24
REMARK                            x       y       z     vdW  Elec       q    Type
REMARK                         _______ _______ _______ _____ _____    ______ ____
ROOT
ATOM      1  C   UNL     1       7.247   5.456  16.305  0.00  0.00    +0.000 C 
ATOM      2  C   UNL     1       6.570   6.450  17.238  0.00  0.00    +0.000 C 
ENDROOT
BRANCH   2   3
ATOM      3  C   UNL     1       5.061   6.506  16.919  0.00  0.00    +0.000 C 
ATOM      4  O   UNL     1       4.644   6.762  15.792  0.00  0.00    +0.000 OA
ATOM      5  N   UNL     1       4.229   6.310  18.012  0.00  0.00    +0.000 N 
ATOM      6  H   UNL     1       4.668   5.879  18.818  0.00  0.00    +0.000 HD
BRANCH   5   7
ATOM      7  C   UNL     1       2.776   6.189  17.856  0.00  0.00    +0.000 C 
ATOM      8  C   UNL     1       2.264   4.888  18.496  0.00  0.00    +0.000 C 
ATOM      9  C   UNL     1       2.363   4.914  20.023  0.00  0.00    +0.000 C 
ATOM     10  C   UNL     1       1.662   6.130  20.624  0.00  0.00    +0.000 C 
ATOM     11  C   UNL     1       2.111   7.440  19.980  0.00  0.00    +0.000 C 
ATOM     12  C   UNL     1       1.982   7.377  18.451  0.00  0.00    +0.000 C 
ATOM     13  C   UNL     1       2.304   8.716  17.798  0.00  0.00    +0.000 C 
ENDBRANCH   5   7
ENDBRANCH   2   3
BRANCH   2  14
ATOM     14  O   UNL     1       7.131   7.767  17.063  0.00  0.00    +0.000 OA
BRANCH  14  15
ATOM     15  C   UNL     1       8.096   8.109  17.959  0.00  0.00    +0.000 C 
ATOM     16  O   UNL     1       8.534   7.414  18.857  0.00  0.00    +0.000 OA
BRANCH  15  17
ATOM     17  C   UNL     1       8.511   9.500  17.673  0.00  0.00    +0.000 C 
ATOM     18  C   UNL     1       8.946  10.288  18.669  0.00  0.00    +0.000 C 
BRANCH  18  19
ATOM     19  C   UNL     1       9.285  11.700  18.451  0.00  0.00    +0.000 A 
ATOM     20  C   UNL     1       8.315  12.514  17.845  0.00  0.00    +0.000 A 
ATOM     21  C   UNL     1       8.560  13.870  17.617  0.00  0.00    +0.000 A 
ATOM     22  C   UNL     1       9.777  14.431  17.998  0.00  0.00    +0.000 A 
ATOM     23  C   UNL     1      10.753  13.635  18.597  0.00  0.00    +0.000 A 
ATOM     24  C   UNL     1      10.512  12.274  18.820  0.00  0.00    +0.000 A 
ATOM     25 CL   UNL     1      11.767  11.341  19.559  0.00  0.00    +0.000 Cl
ENDBRANCH  18  19
ENDBRANCH  15  17
ENDBRANCH  14  15
ENDBRANCH   2  14
TORSDOF 6
ENDMDL
