MODEL 1
REMARK VINA RESULT:      -8.6      0.000      0.000
REMARK  Name = 
REMARK  8 active torsions:
REMARK  status: ('A' for Active; 'I' for Inactive)
REMARK    1  A    between atoms: C_1  and  C_2
REMARK    2  A    between atoms: C_5  and  C_6
REMARK    3  A    between atoms: C_7  and  C_8
REMARK    4  A    between atoms: N_10  and  C_11
REMARK    5  A    between atoms: C_11  and  C_12
REMARK    6  A    between atoms: C_12  and  C_13
REMARK    7  A    between atoms: C_13  and  N_14
REMARK    8  A    between atoms: N_14  and  C_15
REMARK                            x       y       z     vdW  Elec       q    Type
REMARK                         _______ _______ _______ _____ _____    ______ ____
ROOT
ATOM      1  C   UNL     1       5.894   4.739  15.097  0.00  0.00    +0.000 C 
ENDROOT
BRANCH   1   2
ATOM      2  C   UNL     1       7.257   4.949  15.761  0.00  0.00    +0.000 C 
BRANCH   2   5
ATOM      3  C   UNL     1       7.592   6.687  17.480  0.00  0.00    +0.000 C 
ATOM      4  O   UNL     1       7.517   5.901  18.416  0.00  0.00    +0.000 OA
ATOM      5  N   UNL     1       7.482   6.326  16.160  0.00  0.00    +0.000 N 
ATOM      6  H   UNL     1       7.520   7.037  15.441  0.00  0.00    +0.000 HD
BRANCH   3   8
ATOM      7  C   UNL     1       8.682   8.577  18.592  0.00  0.00    +0.000 C 
ATOM      8  C   UNL     1       7.810   8.145  17.667  0.00  0.00    +0.000 C 
BRANCH   7  13
ATOM      9  C   UNL     1       9.681  14.205  19.582  0.00  0.00    +0.000 C 
ATOM     10  C   UNL     1       9.438  12.749  19.318  0.00  0.00    +0.000 A 
ATOM     11  C   UNL     1       8.979  12.301  18.075  0.00  0.00    +0.000 A 
ATOM     12  C   UNL     1       8.749  10.939  17.853  0.00  0.00    +0.000 A 
ATOM     13  C   UNL     1       8.980   9.995  18.862  0.00  0.00    +0.000 A 
ATOM     14  C   UNL     1       9.425  10.450  20.109  0.00  0.00    +0.000 A 
ATOM     15  C   UNL     1       9.658  11.812  20.332  0.00  0.00    +0.000 A 
ENDBRANCH   7  13
ENDBRANCH   3   8
ENDBRANCH   2   5
ENDBRANCH   1   2
BRANCH   1  16
ATOM     16  C   UNL     1       5.044   3.753  15.894  0.00  0.00    +0.000 C 
BRANCH  16  17
ATOM     17  N   UNL     1       5.444   3.729  17.302  0.00  0.00    +0.000 N 
ATOM     18  H   UNL     1       6.254   4.321  17.461  0.00  0.00    +0.000 HD
BRANCH  17  19
ATOM     19  C   UNL     1       4.422   3.974  18.258  0.00  0.00    +0.000 A 
ATOM     20  C   UNL     1       4.119   3.018  19.233  0.00  0.00    +0.000 A 
ATOM     21  C   UNL     1       3.168   3.297  20.190  0.00  0.00    +0.000 A 
ATOM     22  N   UNL     1       2.520   4.469  20.280  0.00  0.00    +0.000 NA
ATOM     23  C   UNL     1       2.828   5.424  19.392  0.00  0.00    +0.000 A 
ATOM     24  C   UNL     1       2.171   6.635  19.528  0.00  0.00    +0.000 A 
ATOM     25  C   UNL     1       2.416   7.692  18.659  0.00  0.00    +0.000 A 
ATOM     26 CL   UNL     1       1.582   9.183  18.864  0.00  0.00    +0.000 Cl
ATOM     27  C   UNL     1       3.327   7.547  17.623  0.00  0.00    +0.000 A 
ATOM     28  C   UNL     1       4.001   6.334  17.469  0.00  0.00    +0.000 A 
ATOM     29  C   UNL     1       3.776   5.245  18.351  0.00  0.00    +0.000 A 
ENDBRANCH  17  19
ENDBRANCH  16  17
ENDBRANCH   1  16
TORSDOF 7
ENDMDL
MODEL 2
REMARK VINA RESULT:      -8.4      1.499      1.740
REMARK  Name = 
REMARK  8 active torsions:
REMARK  status: ('A' for Active; 'I' for Inactive)
REMARK    1  A    between atoms: C_1  and  C_2
REMARK    2  A    between atoms: C_5  and  C_6
REMARK    3  A    between atoms: C_7  and  C_8
REMARK    4  A    between atoms: N_10  and  C_11
REMARK    5  A    between atoms: C_11  and  C_12
REMARK    6  A    between atoms: C_12  and  C_13
REMARK    7  A    between atoms: C_13  and  N_14
REMARK    8  A    between atoms: N_14  and  C_15
REMARK                            x       y       z     vdW  Elec       q    Type
REMARK                         _______ _______ _______ _____ _____    ______ ____
ROOT
ATOM      1  C   UNL     1       7.566   4.614  17.634  0.00  0.00    +0.000 C 
ENDROOT
BRANCH   1   2
ATOM      2  C   UNL     1       7.214   5.580  18.767  0.00  0.00    +0.000 C 
BRANCH   2   5
ATOM      3  C   UNL     1       7.519   7.796  17.725  0.00  0.00    +0.000 C 
ATOM      4  O   UNL     1       6.595   7.650  16.935  0.00  0.00    +0.000 OA
ATOM      5  N   UNL     1       7.896   6.856  18.652  0.00  0.00    +0.000 N 
ATOM      6  H   UNL     1       8.693   7.033  19.249  0.00  0.00    +0.000 HD
BRANCH   3   8
ATOM      7  C   UNL     1       8.855   9.448  18.942  0.00  0.00    +0.000 C 
ATOM      8  C   UNL     1       8.355   9.023  17.770  0.00  0.00    +0.000 C 
BRANCH   7  13
ATOM      9  C   UNL     1      12.062  14.255  19.454  0.00  0.00    +0.000 C 
ATOM     10  C   UNL     1      11.247  13.003  19.320  0.00  0.00    +0.000 A 
ATOM     11  C   UNL     1      10.949  12.460  18.065  0.00  0.00    +0.000 A 
ATOM     12  C   UNL     1      10.178  11.297  17.961  0.00  0.00    +0.000 A 
ATOM     13  C   UNL     1       9.698  10.646  19.105  0.00  0.00    +0.000 A 
ATOM     14  C   UNL     1       9.987  11.201  20.358  0.00  0.00    +0.000 A 
ATOM     15  C   UNL     1      10.759  12.364  20.463  0.00  0.00    +0.000 A 
ENDBRANCH   7  13
ENDBRANCH   3   8
ENDBRANCH   2   5
ENDBRANCH   1   2
BRANCH   1  16
ATOM     16  C   UNL     1       6.311   4.156  16.895  0.00  0.00    +0.000 C 
BRANCH  16  17
ATOM     17  N   UNL     1       5.167   5.011  17.218  0.00  0.00    +0.000 N 
ATOM     18  H   UNL     1       4.655   5.267  16.379  0.00  0.00    +0.000 HD
BRANCH  17  19
ATOM     19  C   UNL     1       4.296   4.548  18.240  0.00  0.00    +0.000 A 
ATOM     20  C   UNL     1       4.378   3.228  18.697  0.00  0.00    +0.000 A 
ATOM     21  C   UNL     1       3.567   2.812  19.732  0.00  0.00    +0.000 A 
ATOM     22  N   UNL     1       2.707   3.616  20.375  0.00  0.00    +0.000 NA
ATOM     23  C   UNL     1       2.645   4.899  19.995  0.00  0.00    +0.000 A 
ATOM     24  C   UNL     1       1.774   5.715  20.698  0.00  0.00    +0.000 A 
ATOM     25  C   UNL     1       1.632   7.062  20.384  0.00  0.00    +0.000 A 
ATOM     26 CL   UNL     1       0.545   8.043  21.285  0.00  0.00    +0.000 Cl
ATOM     27  C   UNL     1       2.362   7.616  19.342  0.00  0.00    +0.000 A 
ATOM     28  C   UNL     1       3.245   6.810  18.621  0.00  0.00    +0.000 A 
ATOM     29  C   UNL     1       3.416   5.436  18.931  0.00  0.00    +0.000 A 
ENDBRANCH  17  19
ENDBRANCH  16  17
ENDBRANCH   1  16
TORSDOF 7
ENDMDL
MODEL 3
REMARK VINA RESULT:      -7.9      2.005      3.126
REMARK  Name = 
REMARK  8 active torsions:
REMARK  status: ('A' for Active; 'I' for Inactive)
REMARK    1  A    between atoms: C_1  and  C_2
REMARK    2  A    between atoms: C_5  and  C_6
REMARK    3  A    between atoms: C_7  and  C_8
REMARK    4  A    between atoms: N_10  and  C_11
REMARK    5  A    between atoms: C_11  and  C_12
REMARK    6  A    between atoms: C_12  and  C_13
REMARK    7  A    between atoms: C_13  and  N_14
REMARK    8  A    between atoms: N_14  and  C_15
REMARK                            x       y       z     vdW  Elec       q    Type
REMARK                         _______ _______ _______ _____ _____    ______ ____
ROOT
ATOM      1  C   UNL     1       6.513   5.406  18.597  0.00  0.00    +0.000 C 
ENDROOT
BRANCH   1   2
ATOM      2  C   UNL     1       8.002   5.719  18.762  0.00  0.00    +0.000 C 
BRANCH   2   5
ATOM      3  C   UNL     1       8.061   7.986  17.789  0.00  0.00    +0.000 C 
ATOM      4  O   UNL     1       7.634   7.626  16.700  0.00  0.00    +0.000 OA
ATOM      5  N   UNL     1       8.271   7.143  18.852  0.00  0.00    +0.000 N 
ATOM      6  H   UNL     1       8.660   7.507  19.712  0.00  0.00    +0.000 HD
BRANCH   3   8
ATOM      7  C   UNL     1       9.030   9.701  19.244  0.00  0.00    +0.000 C 
ATOM      8  C   UNL     1       8.411   9.398  18.092  0.00  0.00    +0.000 C 
BRANCH   7  13
ATOM      9  C   UNL     1      10.713  14.980  20.963  0.00  0.00    +0.000 C 
ATOM     10  C   UNL     1      10.262  13.620  20.520  0.00  0.00    +0.000 A 
ATOM     11  C   UNL     1       9.844  12.655  21.443  0.00  0.00    +0.000 A 
ATOM     12  C   UNL     1       9.437  11.389  21.010  0.00  0.00    +0.000 A 
ATOM     13  C   UNL     1       9.428  11.062  19.647  0.00  0.00    +0.000 A 
ATOM     14  C   UNL     1       9.860  12.026  18.729  0.00  0.00    +0.000 A 
ATOM     15  C   UNL     1      10.267  13.294  19.160  0.00  0.00    +0.000 A 
ENDBRANCH   7  13
ENDBRANCH   3   8
ENDBRANCH   2   5
ENDBRANCH   1   2
BRANCH   1  16
ATOM     16  C   UNL     1       6.243   4.723  17.258  0.00  0.00    +0.000 C 
BRANCH  16  17
ATOM     17  N   UNL     1       4.820   4.777  16.916  0.00  0.00    +0.000 N 
ATOM     18  H   UNL     1       4.477   3.862  16.642  0.00  0.00    +0.000 HD
BRANCH  17  19
ATOM     19  C   UNL     1       3.961   5.395  17.863  0.00  0.00    +0.000 A 
ATOM     20  C   UNL     1       3.622   6.747  17.737  0.00  0.00    +0.000 A 
ATOM     21  C   UNL     1       2.739   7.315  18.630  0.00  0.00    +0.000 A 
ATOM     22  N   UNL     1       2.133   6.635  19.616  0.00  0.00    +0.000 NA
ATOM     23  C   UNL     1       2.396   5.327  19.727  0.00  0.00    +0.000 A 
ATOM     24  C   UNL     1       1.731   4.642  20.731  0.00  0.00    +0.000 A 
ATOM     25  C   UNL     1       1.933   3.281  20.934  0.00  0.00    +0.000 A 
ATOM     26 CL   UNL     1       1.084   2.466  22.188  0.00  0.00    +0.000 Cl
ATOM     27  C   UNL     1       2.821   2.580  20.132  0.00  0.00    +0.000 A 
ATOM     28  C   UNL     1       3.501   3.252  19.114  0.00  0.00    +0.000 A 
ATOM     29  C   UNL     1       3.303   4.638  18.880  0.00  0.00    +0.000 A 
ENDBRANCH  17  19
ENDBRANCH  16  17
ENDBRANCH   1  16
TORSDOF 7
ENDMDL
MODEL 4
REMARK VINA RESULT:      -7.8      1.544      1.785
REMARK  Name = 
REMARK  8 active torsions:
REMARK  status: ('A' for Active; 'I' for Inactive)
REMARK    1  A    between atoms: C_1  and  C_2
REMARK    2  A    between atoms: C_5  and  C_6
REMARK    3  A    between atoms: C_7  and  C_8
REMARK    4  A    between atoms: N_10  and  C_11
REMARK    5  A    between atoms: C_11  and  C_12
REMARK    6  A    between atoms: C_12  and  C_13
REMARK    7  A    between atoms: C_13  and  N_14
REMARK    8  A    between atoms: N_14  and  C_15
REMARK                            x       y       z     vdW  Elec       q    Type
REMARK                         _______ _______ _______ _____ _____    ______ ____
ROOT
ATOM      1  C   UNL     1       5.869   4.966  15.743  0.00  0.00    +0.000 C 
ENDROOT
BRANCH   1   2
ATOM      2  C   UNL     1       6.289   5.596  17.072  0.00  0.00    +0.000 C 
BRANCH   2   5
ATOM      3  C   UNL     1       7.671   7.492  17.838  0.00  0.00    +0.000 C 
ATOM      4  O   UNL     1       8.060   6.916  18.847  0.00  0.00    +0.000 OA
ATOM      5  N   UNL     1       6.817   6.940  16.916  0.00  0.00    +0.000 N 
ATOM      6  H   UNL     1       6.511   7.490  16.124  0.00  0.00    +0.000 HD
BRANCH   3   8
ATOM      7  C   UNL     1       8.806   9.597  18.364  0.00  0.00    +0.000 C 
ATOM      8  C   UNL     1       8.081   8.878  17.492  0.00  0.00    +0.000 C 
BRANCH   7  13
ATOM      9  C   UNL     1      10.508  15.085  17.563  0.00  0.00    +0.000 C 
ATOM     10  C   UNL     1      10.066  13.664  17.753  0.00  0.00    +0.000 A 
ATOM     11  C   UNL     1       8.713  13.312  17.719  0.00  0.00    +0.000 A 
ATOM     12  C   UNL     1       8.321  11.982  17.909  0.00  0.00    +0.000 A 
ATOM     13  C   UNL     1       9.271  10.975  18.127  0.00  0.00    +0.000 A 
ATOM     14  C   UNL     1      10.623  11.335  18.174  0.00  0.00    +0.000 A 
ATOM     15  C   UNL     1      11.017  12.665  17.983  0.00  0.00    +0.000 A 
ENDBRANCH   7  13
ENDBRANCH   3   8
ENDBRANCH   2   5
ENDBRANCH   1   2
BRANCH   1  16
ATOM     16  C   UNL     1       4.986   3.742  15.973  0.00  0.00    +0.000 C 
BRANCH  16  17
ATOM     17  N   UNL     1       4.916   3.402  17.395  0.00  0.00    +0.000 N 
ATOM     18  H   UNL     1       5.506   4.017  17.947  0.00  0.00    +0.000 HD
BRANCH  17  19
ATOM     19  C   UNL     1       3.617   3.284  17.957  0.00  0.00    +0.000 A 
ATOM     20  C   UNL     1       2.911   2.078  17.865  0.00  0.00    +0.000 A 
ATOM     21  C   UNL     1       1.678   1.962  18.469  0.00  0.00    +0.000 A 
ATOM     22  N   UNL     1       1.106   2.937  19.192  0.00  0.00    +0.000 NA
ATOM     23  C   UNL     1       1.782   4.083  19.343  0.00  0.00    +0.000 A 
ATOM     24  C   UNL     1       1.184   5.060  20.122  0.00  0.00    +0.000 A 
ATOM     25  C   UNL     1       1.800   6.287  20.342  0.00  0.00    +0.000 A 
ATOM     26 CL   UNL     1       1.027   7.471  21.321  0.00  0.00    +0.000 Cl
ATOM     27  C   UNL     1       3.033   6.561  19.770  0.00  0.00    +0.000 A 
ATOM     28  C   UNL     1       3.653   5.590  18.981  0.00  0.00    +0.000 A 
ATOM     29  C   UNL     1       3.049   4.326  18.752  0.00  0.00    +0.000 A 
ENDBRANCH  17  19
ENDBRANCH  16  17
ENDBRANCH   1  16
TORSDOF 7
ENDMDL
MODEL 5
REMARK VINA RESULT:      -7.7      1.155      1.441
REMARK  Name = 
REMARK  8 active torsions:
REMARK  status: ('A' for Active; 'I' for Inactive)
REMARK    1  A    between atoms: C_1  and  C_2
REMARK    2  A    between atoms: C_5  and  C_6
REMARK    3  A    between atoms: C_7  and  C_8
REMARK    4  A    between atoms: N_10  and  C_11
REMARK    5  A    between atoms: C_11  and  C_12
REMARK    6  A    between atoms: C_12  and  C_13
REMARK    7  A    between atoms: C_13  and  N_14
REMARK    8  A    between atoms: N_14  and  C_15
REMARK                            x       y       z     vdW  Elec       q    Type
REMARK                         _______ _______ _______ _____ _____    ______ ____
ROOT
ATOM      1  C   UNL     1       5.697   5.340  15.879  0.00  0.00    +0.000 C 
ENDROOT
BRANCH   1   2
ATOM      2  C   UNL     1       7.138   5.476  16.375  0.00  0.00    +0.000 C 
BRANCH   2   5
ATOM      3  C   UNL     1       7.880   7.261  17.909  0.00  0.00    +0.000 C 
ATOM      4  O   UNL     1       7.932   6.522  18.885  0.00  0.00    +0.000 OA
ATOM      5  N   UNL     1       7.511   6.852  16.652  0.00  0.00    +0.000 N 
ATOM      6  H   UNL     1       7.457   7.527  15.901  0.00  0.00    +0.000 HD
BRANCH   3   8
ATOM      7  C   UNL     1       9.026   9.163  18.940  0.00  0.00    +0.000 C 
ATOM      8  C   UNL     1       8.211   8.708  17.975  0.00  0.00    +0.000 C 
BRANCH   7  13
ATOM      9  C   UNL     1      10.473  14.760  19.426  0.00  0.00    +0.000 C 
ATOM     10  C   UNL     1      10.116  13.309  19.300  0.00  0.00    +0.000 A 
ATOM     11  C   UNL     1      10.107  12.667  18.057  0.00  0.00    +0.000 A 
ATOM     12  C   UNL     1       9.760  11.315  17.960  0.00  0.00    +0.000 A 
ATOM     13  C   UNL     1       9.425  10.573  19.100  0.00  0.00    +0.000 A 
ATOM     14  C   UNL     1       9.421  11.224  20.340  0.00  0.00    +0.000 A 
ATOM     15  C   UNL     1       9.769  12.576  20.439  0.00  0.00    +0.000 A 
ENDBRANCH   7  13
ENDBRANCH   3   8
ENDBRANCH   2   5
ENDBRANCH   1   2
BRANCH   1  16
ATOM     16  C   UNL     1       4.714   5.924  16.890  0.00  0.00    +0.000 C 
BRANCH  16  17
ATOM     17  N   UNL     1       3.626   4.986  17.172  0.00  0.00    +0.000 N 
ATOM     18  H   UNL     1       3.902   4.033  16.955  0.00  0.00    +0.000 HD
BRANCH  17  19
ATOM     19  C   UNL     1       3.025   5.076  18.455  0.00  0.00    +0.000 A 
ATOM     20  C   UNL     1       3.084   3.996  19.343  0.00  0.00    +0.000 A 
ATOM     21  C   UNL     1       2.548   4.122  20.607  0.00  0.00    +0.000 A 
ATOM     22  N   UNL     1       1.993   5.250  21.074  0.00  0.00    +0.000 NA
ATOM     23  C   UNL     1       1.970   6.317  20.265  0.00  0.00    +0.000 A 
ATOM     24  C   UNL     1       1.423   7.480  20.783  0.00  0.00    +0.000 A 
ATOM     25  C   UNL     1       1.349   8.644  20.027  0.00  0.00    +0.000 A 
ATOM     26 CL   UNL     1       0.667  10.068  20.709  0.00  0.00    +0.000 Cl
ATOM     27  C   UNL     1       1.820   8.660  18.723  0.00  0.00    +0.000 A 
ATOM     28  C   UNL     1       2.376   7.499  18.182  0.00  0.00    +0.000 A 
ATOM     29  C   UNL     1       2.473   6.302  18.937  0.00  0.00    +0.000 A 
ENDBRANCH  17  19
ENDBRANCH  16  17
ENDBRANCH   1  16
TORSDOF 7
ENDMDL
MODEL 6
REMARK VINA RESULT:      -7.7      1.225      1.664
REMARK  Name = 
REMARK  8 active torsions:
REMARK  status: ('A' for Active; 'I' for Inactive)
REMARK    1  A    between atoms: C_1  and  C_2
REMARK    2  A    between atoms: C_5  and  C_6
REMARK    3  A    between atoms: C_7  and  C_8
REMARK    4  A    between atoms: N_10  and  C_11
REMARK    5  A    between atoms: C_11  and  C_12
REMARK    6  A    between atoms: C_12  and  C_13
REMARK    7  A    between atoms: C_13  and  N_14
REMARK    8  A    between atoms: N_14  and  C_15
REMARK                            x       y       z     vdW  Elec       q    Type
REMARK                         _______ _______ _______ _____ _____    ______ ____
ROOT
ATOM      1  C   UNL     1       6.075   4.658  15.652  0.00  0.00    +0.000 C 
ENDROOT
BRANCH   1   2
ATOM      2  C   UNL     1       5.530   6.023  16.077  0.00  0.00    +0.000 C 
BRANCH   2   5
ATOM      3  C   UNL     1       7.242   6.897  17.625  0.00  0.00    +0.000 C 
ATOM      4  O   UNL     1       7.020   6.054  18.486  0.00  0.00    +0.000 OA
ATOM      5  N   UNL     1       6.578   6.965  16.425  0.00  0.00    +0.000 N 
ATOM      6  H   UNL     1       6.791   7.712  15.776  0.00  0.00    +0.000 HD
BRANCH   3   8
ATOM      7  C   UNL     1       7.946   9.111  18.396  0.00  0.00    +0.000 C 
ATOM      8  C   UNL     1       8.267   7.960  17.783  0.00  0.00    +0.000 C 
BRANCH   7  13
ATOM      9  C   UNL     1      11.752  13.393  19.313  0.00  0.00    +0.000 C 
ATOM     10  C   UNL     1      10.756  12.295  19.084  0.00  0.00    +0.000 A 
ATOM     11  C   UNL     1      10.462  11.359  20.082  0.00  0.00    +0.000 A 
ATOM     12  C   UNL     1       9.537  10.336  19.845  0.00  0.00    +0.000 A 
ATOM     13  C   UNL     1       8.880  10.231  18.612  0.00  0.00    +0.000 A 
ATOM     14  C   UNL     1       9.188  11.161  17.612  0.00  0.00    +0.000 A 
ATOM     15  C   UNL     1      10.112  12.186  17.848  0.00  0.00    +0.000 A 
ENDBRANCH   7  13
ENDBRANCH   3   8
ENDBRANCH   2   5
ENDBRANCH   1   2
BRANCH   1  16
ATOM     16  C   UNL     1       5.286   3.526  16.305  0.00  0.00    +0.000 C 
BRANCH  16  17
ATOM     17  N   UNL     1       5.312   3.638  17.764  0.00  0.00    +0.000 N 
ATOM     18  H   UNL     1       5.746   4.509  18.055  0.00  0.00    +0.000 HD
BRANCH  17  19
ATOM     19  C   UNL     1       4.084   3.414  18.441  0.00  0.00    +0.000 A 
ATOM     20  C   UNL     1       3.618   2.111  18.653  0.00  0.00    +0.000 A 
ATOM     21  C   UNL     1       2.455   1.910  19.365  0.00  0.00    +0.000 A 
ATOM     22  N   UNL     1       1.738   2.900  19.919  0.00  0.00    +0.000 NA
ATOM     23  C   UNL     1       2.189   4.153  19.779  0.00  0.00    +0.000 A 
ATOM     24  C   UNL     1       1.449   5.152  20.390  0.00  0.00    +0.000 A 
ATOM     25  C   UNL     1       1.828   6.487  20.305  0.00  0.00    +0.000 A 
ATOM     26 CL   UNL     1       0.885   7.697  21.082  0.00  0.00    +0.000 Cl
ATOM     27  C   UNL     1       2.961   6.847  19.592  0.00  0.00    +0.000 A 
ATOM     28  C   UNL     1       3.722   5.855  18.969  0.00  0.00    +0.000 A 
ATOM     29  C   UNL     1       3.362   4.485  19.051  0.00  0.00    +0.000 A 
ENDBRANCH  17  19
ENDBRANCH  16  17
ENDBRANCH   1  16
TORSDOF 7
ENDMDL
MODEL 7
REMARK VINA RESULT:      -7.7      4.540      6.566
REMARK  Name = 
REMARK  8 active torsions:
REMARK  status: ('A' for Active; 'I' for Inactive)
REMARK    1  A    between atoms: C_1  and  C_2
REMARK    2  A    between atoms: C_5  and  C_6
REMARK    3  A    between atoms: C_7  and  C_8
REMARK    4  A    between atoms: N_10  and  C_11
REMARK    5  A    between atoms: C_11  and  C_12
REMARK    6  A    between atoms: C_12  and  C_13
REMARK    7  A    between atoms: C_13  and  N_14
REMARK    8  A    between atoms: N_14  and  C_15
REMARK                            x       y       z     vdW  Elec       q    Type
REMARK                         _______ _______ _______ _____ _____    ______ ____
ROOT
ATOM      1  C   UNL     1       2.267   1.733  18.661  0.00  0.00    +0.000 C 
ENDROOT
BRANCH   1   2
ATOM      2  C   UNL     1       1.481   2.192  19.890  0.00  0.00    +0.000 C 
BRANCH   2   5
ATOM      3  C   UNL     1       1.810   4.409  20.924  0.00  0.00    +0.000 C 
ATOM      4  O   UNL     1       2.488   3.975  21.848  0.00  0.00    +0.000 OA
ATOM      5  N   UNL     1       1.280   3.630  19.926  0.00  0.00    +0.000 N 
ATOM      6  H   UNL     1       0.699   4.053  19.214  0.00  0.00    +0.000 HD
BRANCH   3   8
ATOM      7  C   UNL     1       2.043   6.569  19.795  0.00  0.00    +0.000 C 
ATOM      8  C   UNL     1       1.475   5.849  20.776  0.00  0.00    +0.000 C 
BRANCH   7  13
ATOM      9  C   UNL     1       0.934  12.151  18.669  0.00  0.00    +0.000 C 
ATOM     10  C   UNL     1       1.237  10.712  18.963  0.00  0.00    +0.000 A 
ATOM     11  C   UNL     1       1.839   9.885  18.009  0.00  0.00    +0.000 A 
ATOM     12  C   UNL     1       2.104   8.542  18.300  0.00  0.00    +0.000 A 
ATOM     13  C   UNL     1       1.783   7.999  19.551  0.00  0.00    +0.000 A 
ATOM     14  C   UNL     1       1.167   8.827  20.498  0.00  0.00    +0.000 A 
ATOM     15  C   UNL     1       0.903  10.171  20.208  0.00  0.00    +0.000 A 
ENDBRANCH   7  13
ENDBRANCH   3   8
ENDBRANCH   2   5
ENDBRANCH   1   2
BRANCH   1  16
ATOM     16  C   UNL     1       3.657   2.362  18.635  0.00  0.00    +0.000 C 
BRANCH  16  17
ATOM     17  N   UNL     1       3.721   3.465  17.674  0.00  0.00    +0.000 N 
ATOM     18  H   UNL     1       2.939   4.102  17.798  0.00  0.00    +0.000 HD
BRANCH  17  19
ATOM     19  C   UNL     1       4.954   4.164  17.588  0.00  0.00    +0.000 A 
ATOM     20  C   UNL     1       5.634   4.548  18.749  0.00  0.00    +0.000 A 
ATOM     21  C   UNL     1       6.859   5.171  18.648  0.00  0.00    +0.000 A 
ATOM     22  N   UNL     1       7.483   5.408  17.484  0.00  0.00    +0.000 NA
ATOM     23  C   UNL     1       6.880   5.003  16.358  0.00  0.00    +0.000 A 
ATOM     24  C   UNL     1       7.561   5.229  15.173  0.00  0.00    +0.000 A 
ATOM     25  C   UNL     1       7.024   4.850  13.947  0.00  0.00    +0.000 A 
ATOM     26 CL   UNL     1       7.903   5.143  12.499  0.00  0.00    +0.000 Cl
ATOM     27  C   UNL     1       5.781   4.239  13.889  0.00  0.00    +0.000 A 
ATOM     28  C   UNL     1       5.079   4.002  15.073  0.00  0.00    +0.000 A 
ATOM     29  C   UNL     1       5.610   4.370  16.336  0.00  0.00    +0.000 A 
ENDBRANCH  17  19
ENDBRANCH  16  17
ENDBRANCH   1  16
TORSDOF 7
ENDMDL
MODEL 8
REMARK VINA RESULT:      -7.7      1.672      2.433
REMARK  Name = 
REMARK  8 active torsions:
REMARK  status: ('A' for Active; 'I' for Inactive)
REMARK    1  A    between atoms: C_1  and  C_2
REMARK    2  A    between atoms: C_5  and  C_6
REMARK    3  A    between atoms: C_7  and  C_8
REMARK    4  A    between atoms: N_10  and  C_11
REMARK    5  A    between atoms: C_11  and  C_12
REMARK    6  A    between atoms: C_12  and  C_13
REMARK    7  A    between atoms: C_13  and  N_14
REMARK    8  A    between atoms: N_14  and  C_15
REMARK                            x       y       z     vdW  Elec       q    Type
REMARK                         _______ _______ _______ _____ _____    ______ ____
ROOT
ATOM      1  C   UNL     1       5.632   5.093  17.204  0.00  0.00    +0.000 C 
ENDROOT
BRANCH   1   2
ATOM      2  C   UNL     1       7.026   5.408  16.657  0.00  0.00    +0.000 C 
BRANCH   2   5
ATOM      3  C   UNL     1       7.919   7.315  17.944  0.00  0.00    +0.000 C 
ATOM      4  O   UNL     1       8.152   6.646  18.943  0.00  0.00    +0.000 OA
ATOM      5  N   UNL     1       7.378   6.811  16.787  0.00  0.00    +0.000 N 
ATOM      6  H   UNL     1       7.180   7.432  16.014  0.00  0.00    +0.000 HD
BRANCH   3   8
ATOM      7  C   UNL     1       8.933   9.364  18.821  0.00  0.00    +0.000 C 
ATOM      8  C   UNL     1       8.194   8.773  17.868  0.00  0.00    +0.000 C 
BRANCH   7  13
ATOM      9  C   UNL     1      10.456  14.961  18.931  0.00  0.00    +0.000 C 
ATOM     10  C   UNL     1      10.050  13.517  18.915  0.00  0.00    +0.000 A 
ATOM     11  C   UNL     1      10.544  12.612  19.861  0.00  0.00    +0.000 A 
ATOM     12  C   UNL     1      10.161  11.267  19.822  0.00  0.00    +0.000 A 
ATOM     13  C   UNL     1       9.272  10.798  18.846  0.00  0.00    +0.000 A 
ATOM     14  C   UNL     1       8.792  11.705  17.892  0.00  0.00    +0.000 A 
ATOM     15  C   UNL     1       9.173  13.051  17.931  0.00  0.00    +0.000 A 
ENDBRANCH   7  13
ENDBRANCH   3   8
ENDBRANCH   2   5
ENDBRANCH   1   2
BRANCH   1  16
ATOM     16  C   UNL     1       4.826   6.371  17.416  0.00  0.00    +0.000 C 
BRANCH  16  17
ATOM     17  N   UNL     1       3.388   6.098  17.402  0.00  0.00    +0.000 N 
ATOM     18  H   UNL     1       3.203   5.136  17.133  0.00  0.00    +0.000 HD
BRANCH  17  19
ATOM     19  C   UNL     1       2.659   6.465  18.564  0.00  0.00    +0.000 A 
ATOM     20  C   UNL     1       2.533   5.571  19.633  0.00  0.00    +0.000 A 
ATOM     21  C   UNL     1       1.874   5.966  20.778  0.00  0.00    +0.000 A 
ATOM     22  N   UNL     1       1.364   7.193  20.961  0.00  0.00    +0.000 NA
ATOM     23  C   UNL     1       1.515   8.086  19.975  0.00  0.00    +0.000 A 
ATOM     24  C   UNL     1       1.009   9.356  20.202  0.00  0.00    +0.000 A 
ATOM     25  C   UNL     1       1.112  10.358  19.244  0.00  0.00    +0.000 A 
ATOM     26 CL   UNL     1       0.476  11.923  19.567  0.00  0.00    +0.000 Cl
ATOM     27  C   UNL     1       1.723  10.099  18.026  0.00  0.00    +0.000 A 
ATOM     28  C   UNL     1       2.241   8.826  17.777  0.00  0.00    +0.000 A 
ATOM     29  C   UNL     1       2.157   7.790  18.744  0.00  0.00    +0.000 A 
ENDBRANCH  17  19
ENDBRANCH  16  17
ENDBRANCH   1  16
TORSDOF 7
ENDMDL
MODEL 9
REMARK VINA RESULT:      -7.5      3.540      6.416
REMARK  Name = 
REMARK  8 active torsions:
REMARK  status: ('A' for Active; 'I' for Inactive)
REMARK    1  A    between atoms: C_1  and  C_2
REMARK    2  A    between atoms: C_5  and  C_6
REMARK    3  A    between atoms: C_7  and  C_8
REMARK    4  A    between atoms: N_10  and  C_11
REMARK    5  A    between atoms: C_11  and  C_12
REMARK    6  A    between atoms: C_12  and  C_13
REMARK    7  A    between atoms: C_13  and  N_14
REMARK    8  A    between atoms: N_14  and  C_15
REMARK                            x       y       z     vdW  Elec       q    Type
REMARK                         _______ _______ _______ _____ _____    ______ ____
ROOT
ATOM      1  C   UNL     1       2.714   1.733  18.449  0.00  0.00    +0.000 C 
ENDROOT
BRANCH   1   2
ATOM      2  C   UNL     1       1.765   2.093  19.593  0.00  0.00    +0.000 C 
BRANCH   2   5
ATOM      3  C   UNL     1       1.736   4.334  20.627  0.00  0.00    +0.000 C 
ATOM      4  O   UNL     1       2.375   3.986  21.611  0.00  0.00    +0.000 OA
ATOM      5  N   UNL     1       1.392   3.496  19.595  0.00  0.00    +0.000 N 
ATOM      6  H   UNL     1       0.831   3.847  18.830  0.00  0.00    +0.000 HD
BRANCH   3   8
ATOM      7  C   UNL     1       2.109   6.694  20.093  0.00  0.00    +0.000 C 
ATOM      8  C   UNL     1       1.246   5.724  20.433  0.00  0.00    +0.000 C 
BRANCH   7  13
ATOM      9  C   UNL     1       0.538  12.184  19.069  0.00  0.00    +0.000 C 
ATOM     10  C   UNL     1       0.960  10.770  19.334  0.00  0.00    +0.000 A 
ATOM     11  C   UNL     1       1.467   9.958  18.314  0.00  0.00    +0.000 A 
ATOM     12  C   UNL     1       1.846   8.638  18.581  0.00  0.00    +0.000 A 
ATOM     13  C   UNL     1       1.737   8.103  19.871  0.00  0.00    +0.000 A 
ATOM     14  C   UNL     1       1.216   8.915  20.886  0.00  0.00    +0.000 A 
ATOM     15  C   UNL     1       0.837  10.237  20.621  0.00  0.00    +0.000 A 
ENDBRANCH   7  13
ENDBRANCH   3   8
ENDBRANCH   2   5
ENDBRANCH   1   2
BRANCH   1  16
ATOM     16  C   UNL     1       3.323   2.987  17.827  0.00  0.00    +0.000 C 
BRANCH  16  17
ATOM     17  N   UNL     1       4.755   2.812  17.579  0.00  0.00    +0.000 N 
ATOM     18  H   UNL     1       4.957   1.869  17.260  0.00  0.00    +0.000 HD
BRANCH  17  19
ATOM     19  C   UNL     1       5.381   3.786  16.757  0.00  0.00    +0.000 A 
ATOM     20  C   UNL     1       5.124   3.824  15.382  0.00  0.00    +0.000 A 
ATOM     21  C   UNL     1       5.693   4.814  14.609  0.00  0.00    +0.000 A 
ATOM     22  N   UNL     1       6.466   5.794  15.100  0.00  0.00    +0.000 NA
ATOM     23  C   UNL     1       6.686   5.814  16.421  0.00  0.00    +0.000 A 
ATOM     24  C   UNL     1       7.460   6.855  16.908  0.00  0.00    +0.000 A 
ATOM     25  C   UNL     1       7.750   6.969  18.262  0.00  0.00    +0.000 A 
ATOM     26 CL   UNL     1       8.709   8.280  18.827  0.00  0.00    +0.000 Cl
ATOM     27  C   UNL     1       7.272   6.027  19.160  0.00  0.00    +0.000 A 
ATOM     28  C   UNL     1       6.490   4.969  18.691  0.00  0.00    +0.000 A 
ATOM     29  C   UNL     1       6.171   4.838  17.314  0.00  0.00    +0.000 A 
ENDBRANCH  17  19
ENDBRANCH  16  17
ENDBRANCH   1  16
TORSDOF 7
ENDMDL
