MODEL 1
REMARK VINA RESULT:      -8.7      0.000      0.000
REMARK  Name = 
REMARK  10 active torsions:
REMARK  status: ('A' for Active; 'I' for Inactive)
REMARK    1  A    between atoms: C_1  and  C_2
REMARK    2  A    between atoms: C_8  and  C_9
REMARK    3  A    between atoms: C_13  and  O_14
REMARK    4  A    between atoms: O_14  and  C_15
REMARK    5  A    between atoms: C_15  and  C_16
REMARK    6  A    between atoms: C_16  and  N_17
REMARK    7  A    between atoms: C_16  and  C_18
REMARK    8  A    between atoms: C_18  and  C_19
REMARK    9  A    between atoms: C_23  and  O_24
REMARK   10  A    between atoms: O_24  and  C_25
REMARK                            x       y       z     vdW  Elec       q    Type
REMARK                         _______ _______ _______ _____ _____    ______ ____
ROOT
ATOM      1  O   UNL     1       2.706   4.915  20.241  0.00  0.00    +0.000 OA
ENDROOT
BRANCH   1   6
ATOM      2  C   UNL     1       1.379   8.397  20.205  0.00  0.00    +0.000 A 
ATOM      3  C   UNL     1       1.792   8.670  18.899  0.00  0.00    +0.000 A 
ATOM      4  N   UNL     1       2.464   7.810  18.097  0.00  0.00    +0.000 NA
ATOM      5  C   UNL     1       2.729   6.590  18.613  0.00  0.00    +0.000 A 
ATOM      6  C   UNL     1       2.370   6.189  19.891  0.00  0.00    +0.000 A 
ATOM      7  C   UNL     1       1.702   7.115  20.691  0.00  0.00    +0.000 A 
BRANCH   2  15
ATOM      8  C   UNL     1      -0.982  13.664  19.840  0.00  0.00    +0.000 C 
ATOM      9  C   UNL     1      -1.011  12.849  21.079  0.00  0.00    +0.000 A 
ATOM     10  N   UNL     1      -1.615  13.308  22.182  0.00  0.00    +0.000 NA
ATOM     11  N   UNL     1      -1.452  12.314  23.073  0.00  0.00    +0.000 N 
ATOM     12  C   UNL     1      -0.776  11.229  22.587  0.00  0.00    +0.000 A 
ATOM     13  C   UNL     1      -0.422  10.012  23.169  0.00  0.00    +0.000 A 
ATOM     14  C   UNL     1       0.275   9.097  22.364  0.00  0.00    +0.000 A 
ATOM     15  C   UNL     1       0.633   9.376  21.030  0.00  0.00    +0.000 A 
ATOM     16  C   UNL     1       0.259  10.629  20.497  0.00  0.00    +0.000 A 
ATOM     17  C   UNL     1      -0.461  11.555  21.277  0.00  0.00    +0.000 A 
ATOM     18  H   UNL     1      -1.832  12.439  24.004  0.00  0.00    +0.000 HD
ENDBRANCH   2  15
ENDBRANCH   1   6
BRANCH   1  19
ATOM     19  C   UNL     1       2.678   3.927  19.204  0.00  0.00    +0.000 C 
BRANCH  19  20
ATOM     20  C   UNL     1       4.129   3.648  18.759  0.00  0.00    +0.000 C 
BRANCH  20  21
ATOM     21  N   UNL     1       4.764   2.687  19.683  0.00  0.00    +0.000 NA
ATOM     22  H   UNL     1       4.756   3.058  20.632  0.00  0.00    +0.000 HD
ATOM     23  H   UNL     1       5.751   2.615  19.427  0.00  0.00    +0.000 HD
ENDBRANCH  20  21
BRANCH  20  24
ATOM     24  C   UNL     1       4.140   3.146  17.301  0.00  0.00    +0.000 C 
BRANCH  24  25
ATOM     25  C   UNL     1       5.127   3.854  16.409  0.00  0.00    +0.000 A 
ATOM     26  C   UNL     1       5.168   3.576  15.034  0.00  0.00    +0.000 A 
ATOM     27  C   UNL     1       6.087   4.217  14.210  0.00  0.00    +0.000 A 
ATOM     28  C   UNL     1       6.959   5.161  14.749  0.00  0.00    +0.000 A 
ATOM     29  C   UNL     1       6.917   5.472  16.111  0.00  0.00    +0.000 A 
ATOM     30  C   UNL     1       6.037   4.783  16.944  0.00  0.00    +0.000 A 
BRANCH  29  31
ATOM     31  O   UNL     1       7.810   6.420  16.509  0.00  0.00    +0.000 OA
BRANCH  31  32
ATOM     32  C   UNL     1       7.435   7.345  17.519  0.00  0.00    +0.000 C 
ATOM     33  F   UNL     1       6.143   7.737  17.468  0.00  0.00    +0.000 F 
ATOM     34  F   UNL     1       7.677   6.805  18.732  0.00  0.00    +0.000 F 
ATOM     35  F   UNL     1       8.201   8.453  17.392  0.00  0.00    +0.000 F 
ENDBRANCH  31  32
ENDBRANCH  29  31
ENDBRANCH  24  25
ENDBRANCH  20  24
ENDBRANCH  19  20
ENDBRANCH   1  19
TORSDOF 9
ENDMDL
MODEL 2
REMARK VINA RESULT:      -8.6      2.713      4.100
REMARK  Name = 
REMARK  10 active torsions:
REMARK  status: ('A' for Active; 'I' for Inactive)
REMARK    1  A    between atoms: C_1  and  C_2
REMARK    2  A    between atoms: C_8  and  C_9
REMARK    3  A    between atoms: C_13  and  O_14
REMARK    4  A    between atoms: O_14  and  C_15
REMARK    5  A    between atoms: C_15  and  C_16
REMARK    6  A    between atoms: C_16  and  N_17
REMARK    7  A    between atoms: C_16  and  C_18
REMARK    8  A    between atoms: C_18  and  C_19
REMARK    9  A    between atoms: C_23  and  O_24
REMARK   10  A    between atoms: O_24  and  C_25
REMARK                            x       y       z     vdW  Elec       q    Type
REMARK                         _______ _______ _______ _____ _____    ______ ____
ROOT
ATOM      1  O   UNL     1       5.656   3.915  19.734  0.00  0.00    +0.000 OA
ENDROOT
BRANCH   1   6
ATOM      2  C   UNL     1       2.641   5.981  19.004  0.00  0.00    +0.000 A 
ATOM      3  C   UNL     1       1.908   4.930  18.444  0.00  0.00    +0.000 A 
ATOM      4  N   UNL     1       2.355   3.660  18.293  0.00  0.00    +0.000 NA
ATOM      5  C   UNL     1       3.603   3.406  18.742  0.00  0.00    +0.000 A 
ATOM      6  C   UNL     1       4.432   4.354  19.323  0.00  0.00    +0.000 A 
ATOM      7  C   UNL     1       3.941   5.653  19.436  0.00  0.00    +0.000 A 
BRANCH   2  15
ATOM      8  C   UNL     1       0.253   9.420  22.994  0.00  0.00    +0.000 C 
ATOM      9  C   UNL     1       0.476   9.843  21.590  0.00  0.00    +0.000 A 
ATOM     10  N   UNL     1       0.140  11.075  21.189  0.00  0.00    +0.000 NA
ATOM     11  N   UNL     1       0.493  11.097  19.892  0.00  0.00    +0.000 N 
ATOM     12  C   UNL     1       1.053   9.933  19.443  0.00  0.00    +0.000 A 
ATOM     13  C   UNL     1       1.558   9.560  18.197  0.00  0.00    +0.000 A 
ATOM     14  C   UNL     1       2.082   8.262  18.083  0.00  0.00    +0.000 A 
ATOM     15  C   UNL     1       2.092   7.348  19.155  0.00  0.00    +0.000 A 
ATOM     16  C   UNL     1       1.556   7.777  20.389  0.00  0.00    +0.000 A 
ATOM     17  C   UNL     1       1.046   9.082  20.536  0.00  0.00    +0.000 A 
ATOM     18  H   UNL     1       0.326  11.946  19.364  0.00  0.00    +0.000 HD
ENDBRANCH   2  15
ENDBRANCH   1   6
BRANCH   1  19
ATOM     19  C   UNL     1       6.783   4.292  18.935  0.00  0.00    +0.000 C 
BRANCH  19  20
ATOM     20  C   UNL     1       7.403   5.569  19.541  0.00  0.00    +0.000 C 
BRANCH  20  21
ATOM     21  N   UNL     1       8.576   5.218  20.365  0.00  0.00    +0.000 NA
ATOM     22  H   UNL     1       8.666   5.873  21.141  0.00  0.00    +0.000 HD
ATOM     23  H   UNL     1       9.411   5.357  19.793  0.00  0.00    +0.000 HD
ENDBRANCH  20  21
BRANCH  20  24
ATOM     24  C   UNL     1       7.760   6.560  18.414  0.00  0.00    +0.000 C 
BRANCH  24  25
ATOM     25  C   UNL     1       6.887   6.449  17.191  0.00  0.00    +0.000 A 
ATOM     26  C   UNL     1       5.643   7.097  17.145  0.00  0.00    +0.000 A 
ATOM     27  C   UNL     1       4.828   6.986  16.024  0.00  0.00    +0.000 A 
ATOM     28  C   UNL     1       5.259   6.242  14.926  0.00  0.00    +0.000 A 
ATOM     29  C   UNL     1       6.506   5.611  14.941  0.00  0.00    +0.000 A 
ATOM     30  C   UNL     1       7.292   5.675  16.089  0.00  0.00    +0.000 A 
BRANCH  29  31
ATOM     31  O   UNL     1       6.814   4.930  13.803  0.00  0.00    +0.000 OA
BRANCH  31  32
ATOM     32  C   UNL     1       6.132   3.718  13.513  0.00  0.00    +0.000 C 
ATOM     33  F   UNL     1       6.697   2.975  12.537  0.00  0.00    +0.000 F 
ATOM     34  F   UNL     1       6.051   2.971  14.635  0.00  0.00    +0.000 F 
ATOM     35  F   UNL     1       4.874   4.019  13.118  0.00  0.00    +0.000 F 
ENDBRANCH  31  32
ENDBRANCH  29  31
ENDBRANCH  24  25
ENDBRANCH  20  24
ENDBRANCH  19  20
ENDBRANCH   1  19
TORSDOF 9
ENDMDL
MODEL 3
REMARK VINA RESULT:      -8.5      3.090      4.397
REMARK  Name = 
REMARK  10 active torsions:
REMARK  status: ('A' for Active; 'I' for Inactive)
REMARK    1  A    between atoms: C_1  and  C_2
REMARK    2  A    between atoms: C_8  and  C_9
REMARK    3  A    between atoms: C_13  and  O_14
REMARK    4  A    between atoms: O_14  and  C_15
REMARK    5  A    between atoms: C_15  and  C_16
REMARK    6  A    between atoms: C_16  and  N_17
REMARK    7  A    between atoms: C_16  and  C_18
REMARK    8  A    between atoms: C_18  and  C_19
REMARK    9  A    between atoms: C_23  and  O_24
REMARK   10  A    between atoms: O_24  and  C_25
REMARK                            x       y       z     vdW  Elec       q    Type
REMARK                         _______ _______ _______ _____ _____    ______ ____
ROOT
ATOM      1  O   UNL     1       6.208   4.361  19.458  0.00  0.00    +0.000 OA
ENDROOT
BRANCH   1   6
ATOM      2  C   UNL     1       2.867   5.998  19.245  0.00  0.00    +0.000 A 
ATOM      3  C   UNL     1       2.155   4.802  19.113  0.00  0.00    +0.000 A 
ATOM      4  N   UNL     1       2.707   3.565  19.075  0.00  0.00    +0.000 NA
ATOM      5  C   UNL     1       4.051   3.504  19.193  0.00  0.00    +0.000 A 
ATOM      6  C   UNL     1       4.873   4.612  19.336  0.00  0.00    +0.000 A 
ATOM      7  C   UNL     1       4.265   5.866  19.345  0.00  0.00    +0.000 A 
BRANCH   2  15
ATOM      8  C   UNL     1       0.096   9.470  22.948  0.00  0.00    +0.000 C 
ATOM      9  C   UNL     1       0.323   9.822  21.525  0.00  0.00    +0.000 A 
ATOM     10  N   UNL     1      -0.101  10.994  21.037  0.00  0.00    +0.000 NA
ATOM     11  N   UNL     1       0.285  10.964  19.750  0.00  0.00    +0.000 N 
ATOM     12  C   UNL     1       0.951   9.824  19.390  0.00  0.00    +0.000 A 
ATOM     13  C   UNL     1       1.519   9.417  18.183  0.00  0.00    +0.000 A 
ATOM     14  C   UNL     1       2.149   8.162  18.165  0.00  0.00    +0.000 A 
ATOM     15  C   UNL     1       2.204   7.321  19.294  0.00  0.00    +0.000 A 
ATOM     16  C   UNL     1       1.601   7.781  20.486  0.00  0.00    +0.000 A 
ATOM     17  C   UNL     1       0.982   9.045  20.536  0.00  0.00    +0.000 A 
ATOM     18  H   UNL     1       0.065  11.761  19.165  0.00  0.00    +0.000 HD
ENDBRANCH   2  15
ENDBRANCH   1   6
BRANCH   1  19
ATOM     19  C   UNL     1       7.037   5.448  19.887  0.00  0.00    +0.000 C 
BRANCH  19  20
ATOM     20  C   UNL     1       7.463   6.255  18.642  0.00  0.00    +0.000 C 
BRANCH  20  21
ATOM     21  N   UNL     1       8.521   7.219  19.004  0.00  0.00    +0.000 NA
ATOM     22  H   UNL     1       8.102   8.089  19.331  0.00  0.00    +0.000 HD
ATOM     23  H   UNL     1       9.024   7.464  18.149  0.00  0.00    +0.000 HD
ENDBRANCH  20  21
BRANCH  20  24
ATOM     24  C   UNL     1       7.913   5.291  17.525  0.00  0.00    +0.000 C 
BRANCH  24  25
ATOM     25  C   UNL     1       6.945   5.178  16.376  0.00  0.00    +0.000 A 
ATOM     26  C   UNL     1       5.936   6.137  16.200  0.00  0.00    +0.000 A 
ATOM     27  C   UNL     1       5.032   6.030  15.149  0.00  0.00    +0.000 A 
ATOM     28  C   UNL     1       5.142   4.971  14.247  0.00  0.00    +0.000 A 
ATOM     29  C   UNL     1       6.156   4.020  14.389  0.00  0.00    +0.000 A 
ATOM     30  C   UNL     1       7.022   4.098  15.478  0.00  0.00    +0.000 A 
BRANCH  29  31
ATOM     31  O   UNL     1       6.163   3.047  13.436  0.00  0.00    +0.000 OA
BRANCH  31  32
ATOM     32  C   UNL     1       6.439   3.400  12.088  0.00  0.00    +0.000 C 
ATOM     33  F   UNL     1       5.346   3.689  11.349  0.00  0.00    +0.000 F 
ATOM     34  F   UNL     1       7.272   4.461  12.065  0.00  0.00    +0.000 F 
ATOM     35  F   UNL     1       7.067   2.360  11.493  0.00  0.00    +0.000 F 
ENDBRANCH  31  32
ENDBRANCH  29  31
ENDBRANCH  24  25
ENDBRANCH  20  24
ENDBRANCH  19  20
ENDBRANCH   1  19
TORSDOF 9
ENDMDL
MODEL 4
REMARK VINA RESULT:      -8.4      1.413      1.763
REMARK  Name = 
REMARK  10 active torsions:
REMARK  status: ('A' for Active; 'I' for Inactive)
REMARK    1  A    between atoms: C_1  and  C_2
REMARK    2  A    between atoms: C_8  and  C_9
REMARK    3  A    between atoms: C_13  and  O_14
REMARK    4  A    between atoms: O_14  and  C_15
REMARK    5  A    between atoms: C_15  and  C_16
REMARK    6  A    between atoms: C_16  and  N_17
REMARK    7  A    between atoms: C_16  and  C_18
REMARK    8  A    between atoms: C_18  and  C_19
REMARK    9  A    between atoms: C_23  and  O_24
REMARK   10  A    between atoms: O_24  and  C_25
REMARK                            x       y       z     vdW  Elec       q    Type
REMARK                         _______ _______ _______ _____ _____    ______ ____
ROOT
ATOM      1  O   UNL     1       3.161   5.830  19.934  0.00  0.00    +0.000 OA
ENDROOT
BRANCH   1   6
ATOM      2  C   UNL     1       1.414   9.016  19.107  0.00  0.00    +0.000 A 
ATOM      3  C   UNL     1       1.961   9.124  17.825  0.00  0.00    +0.000 A 
ATOM      4  N   UNL     1       2.840   8.252  17.276  0.00  0.00    +0.000 NA
ATOM      5  C   UNL     1       3.188   7.191  18.036  0.00  0.00    +0.000 A 
ATOM      6  C   UNL     1       2.714   6.962  19.319  0.00  0.00    +0.000 A 
ATOM      7  C   UNL     1       1.831   7.898  19.855  0.00  0.00    +0.000 A 
BRANCH   2  15
ATOM      8  C   UNL     1      -3.627  11.517  17.774  0.00  0.00    +0.000 C 
ATOM      9  C   UNL     1      -2.880  11.817  19.020  0.00  0.00    +0.000 A 
ATOM     10  N   UNL     1      -3.367  12.688  19.912  0.00  0.00    +0.000 NA
ATOM     11  N   UNL     1      -2.445  12.692  20.891  0.00  0.00    +0.000 N 
ATOM     12  C   UNL     1      -1.389  11.850  20.671  0.00  0.00    +0.000 A 
ATOM     13  C   UNL     1      -0.258  11.554  21.431  0.00  0.00    +0.000 A 
ATOM     14  C   UNL     1       0.640  10.614  20.900  0.00  0.00    +0.000 A 
ATOM     15  C   UNL     1       0.445   9.997  19.649  0.00  0.00    +0.000 A 
ATOM     16  C   UNL     1      -0.712  10.345  18.918  0.00  0.00    +0.000 A 
ATOM     17  C   UNL     1      -1.640  11.267  19.439  0.00  0.00    +0.000 A 
ATOM     18  H   UNL     1      -2.599  13.293  21.691  0.00  0.00    +0.000 HD
ENDBRANCH   2  15
ENDBRANCH   1   6
BRANCH   1  19
ATOM     19  C   UNL     1       2.515   4.601  19.584  0.00  0.00    +0.000 C 
BRANCH  19  20
ATOM     20  C   UNL     1       3.603   3.546  19.292  0.00  0.00    +0.000 C 
BRANCH  20  21
ATOM     21  N   UNL     1       3.365   2.337  20.105  0.00  0.00    +0.000 NA
ATOM     22  H   UNL     1       4.253   1.909  20.361  0.00  0.00    +0.000 HD
ATOM     23  H   UNL     1       2.893   1.652  19.512  0.00  0.00    +0.000 HD
ENDBRANCH  20  21
BRANCH  20  24
ATOM     24  C   UNL     1       3.634   3.234  17.781  0.00  0.00    +0.000 C 
BRANCH  24  25
ATOM     25  C   UNL     1       4.759   3.900  17.033  0.00  0.00    +0.000 A 
ATOM     26  C   UNL     1       4.786   3.886  15.630  0.00  0.00    +0.000 A 
ATOM     27  C   UNL     1       5.830   4.488  14.936  0.00  0.00    +0.000 A 
ATOM     28  C   UNL     1       6.849   5.131  15.640  0.00  0.00    +0.000 A 
ATOM     29  C   UNL     1       6.827   5.179  17.036  0.00  0.00    +0.000 A 
ATOM     30  C   UNL     1       5.811   4.523  17.729  0.00  0.00    +0.000 A 
BRANCH  29  31
ATOM     31  O   UNL     1       7.870   5.849  17.601  0.00  0.00    +0.000 OA
BRANCH  31  32
ATOM     32  C   UNL     1       7.768   7.252  17.798  0.00  0.00    +0.000 C 
ATOM     33  F   UNL     1       8.396   7.710  18.902  0.00  0.00    +0.000 F 
ATOM     34  F   UNL     1       8.265   7.892  16.718  0.00  0.00    +0.000 F 
ATOM     35  F   UNL     1       6.459   7.574  17.911  0.00  0.00    +0.000 F 
ENDBRANCH  31  32
ENDBRANCH  29  31
ENDBRANCH  24  25
ENDBRANCH  20  24
ENDBRANCH  19  20
ENDBRANCH   1  19
TORSDOF 9
ENDMDL
MODEL 5
REMARK VINA RESULT:      -8.4      4.270      9.703
REMARK  Name = 
REMARK  10 active torsions:
REMARK  status: ('A' for Active; 'I' for Inactive)
REMARK    1  A    between atoms: C_1  and  C_2
REMARK    2  A    between atoms: C_8  and  C_9
REMARK    3  A    between atoms: C_13  and  O_14
REMARK    4  A    between atoms: O_14  and  C_15
REMARK    5  A    between atoms: C_15  and  C_16
REMARK    6  A    between atoms: C_16  and  N_17
REMARK    7  A    between atoms: C_16  and  C_18
REMARK    8  A    between atoms: C_18  and  C_19
REMARK    9  A    between atoms: C_23  and  O_24
REMARK   10  A    between atoms: O_24  and  C_25
REMARK                            x       y       z     vdW  Elec       q    Type
REMARK                         _______ _______ _______ _____ _____    ______ ____
ROOT
ATOM      1  O   UNL     1       1.055   7.370  20.681  0.00  0.00    +0.000 OA
ENDROOT
BRANCH   1   6
ATOM      2  C   UNL     1       3.709   5.382  18.980  0.00  0.00    +0.000 A 
ATOM      3  C   UNL     1       3.351   4.169  19.576  0.00  0.00    +0.000 A 
ATOM      4  N   UNL     1       2.347   4.005  20.471  0.00  0.00    +0.000 NA
ATOM      5  C   UNL     1       1.637   5.110  20.785  0.00  0.00    +0.000 A 
ATOM      6  C   UNL     1       1.883   6.371  20.263  0.00  0.00    +0.000 A 
ATOM      7  C   UNL     1       2.941   6.498  19.364  0.00  0.00    +0.000 A 
BRANCH   2  15
ATOM      8  C   UNL     1       5.063   3.783  13.590  0.00  0.00    +0.000 C 
ATOM      9  C   UNL     1       5.978   4.567  14.455  0.00  0.00    +0.000 A 
ATOM     10  N   UNL     1       7.176   4.957  14.002  0.00  0.00    +0.000 NA
ATOM     11  N   UNL     1       7.703   5.637  15.035  0.00  0.00    +0.000 N 
ATOM     12  C   UNL     1       6.889   5.710  16.133  0.00  0.00    +0.000 A 
ATOM     13  C   UNL     1       7.051   6.324  17.375  0.00  0.00    +0.000 A 
ATOM     14  C   UNL     1       5.989   6.210  18.286  0.00  0.00    +0.000 A 
ATOM     15  C   UNL     1       4.809   5.496  17.996  0.00  0.00    +0.000 A 
ATOM     16  C   UNL     1       4.707   4.884  16.727  0.00  0.00    +0.000 A 
ATOM     17  C   UNL     1       5.748   5.004  15.786  0.00  0.00    +0.000 A 
ATOM     18  H   UNL     1       8.629   6.032  14.926  0.00  0.00    +0.000 HD
ENDBRANCH   2  15
ENDBRANCH   1   6
BRANCH   1  19
ATOM     19  C   UNL     1       1.474   8.714  20.420  0.00  0.00    +0.000 C 
BRANCH  19  20
ATOM     20  C   UNL     1       0.400   9.674  20.974  0.00  0.00    +0.000 C 
BRANCH  20  21
ATOM     21  N   UNL     1       0.731  10.057  22.360  0.00  0.00    +0.000 NA
ATOM     22  H   UNL     1       0.353   9.370  23.011  0.00  0.00    +0.000 HD
ATOM     23  H   UNL     1       0.241  10.929  22.568  0.00  0.00    +0.000 HD
ENDBRANCH  20  21
BRANCH  20  24
ATOM     24  C   UNL     1       0.271  10.901  20.047  0.00  0.00    +0.000 C 
BRANCH  24  25
ATOM     25  C   UNL     1      -1.102  11.089  19.454  0.00  0.00    +0.000 A 
ATOM     26  C   UNL     1      -1.948  12.102  19.928  0.00  0.00    +0.000 A 
ATOM     27  C   UNL     1      -3.221  12.270  19.393  0.00  0.00    +0.000 A 
ATOM     28  C   UNL     1      -3.652  11.438  18.360  0.00  0.00    +0.000 A 
ATOM     29  C   UNL     1      -2.815  10.439  17.856  0.00  0.00    +0.000 A 
ATOM     30  C   UNL     1      -1.564  10.236  18.436  0.00  0.00    +0.000 A 
BRANCH  29  31
ATOM     31  O   UNL     1      -3.348   9.705  16.840  0.00  0.00    +0.000 OA
BRANCH  31  32
ATOM     32  C   UNL     1      -3.146  10.129  15.499  0.00  0.00    +0.000 C 
ATOM     33  F   UNL     1      -4.282  10.299  14.788  0.00  0.00    +0.000 F 
ATOM     34  F   UNL     1      -2.455  11.288  15.496  0.00  0.00    +0.000 F 
ATOM     35  F   UNL     1      -2.404   9.194  14.862  0.00  0.00    +0.000 F 
ENDBRANCH  31  32
ENDBRANCH  29  31
ENDBRANCH  24  25
ENDBRANCH  20  24
ENDBRANCH  19  20
ENDBRANCH   1  19
TORSDOF 9
ENDMDL
MODEL 6
REMARK VINA RESULT:      -8.3      3.137      4.562
REMARK  Name = 
REMARK  10 active torsions:
REMARK  status: ('A' for Active; 'I' for Inactive)
REMARK    1  A    between atoms: C_1  and  C_2
REMARK    2  A    between atoms: C_8  and  C_9
REMARK    3  A    between atoms: C_13  and  O_14
REMARK    4  A    between atoms: O_14  and  C_15
REMARK    5  A    between atoms: C_15  and  C_16
REMARK    6  A    between atoms: C_16  and  N_17
REMARK    7  A    between atoms: C_16  and  C_18
REMARK    8  A    between atoms: C_18  and  C_19
REMARK    9  A    between atoms: C_23  and  O_24
REMARK   10  A    between atoms: O_24  and  C_25
REMARK                            x       y       z     vdW  Elec       q    Type
REMARK                         _______ _______ _______ _____ _____    ______ ____
ROOT
ATOM      1  O   UNL     1       3.220   6.893  17.544  0.00  0.00    +0.000 OA
ENDROOT
BRANCH   1   6
ATOM      2  C   UNL     1       1.125   9.152  19.641  0.00  0.00    +0.000 A 
ATOM      3  C   UNL     1       1.106   8.303  20.751  0.00  0.00    +0.000 A 
ATOM      4  N   UNL     1       1.703   7.089  20.815  0.00  0.00    +0.000 NA
ATOM      5  C   UNL     1       2.380   6.694  19.715  0.00  0.00    +0.000 A 
ATOM      6  C   UNL     1       2.482   7.442  18.552  0.00  0.00    +0.000 A 
ATOM      7  C   UNL     1       1.832   8.674  18.521  0.00  0.00    +0.000 A 
BRANCH   2  15
ATOM      8  C   UNL     1      -2.647  12.272  22.721  0.00  0.00    +0.000 C 
ATOM      9  C   UNL     1      -2.016  12.768  21.474  0.00  0.00    +0.000 A 
ATOM     10  N   UNL     1      -2.291  13.994  21.012  0.00  0.00    +0.000 NA
ATOM     11  N   UNL     1      -1.543  14.092  19.899  0.00  0.00    +0.000 N 
ATOM     12  C   UNL     1      -0.789  12.982  19.629  0.00  0.00    +0.000 A 
ATOM     13  C   UNL     1       0.113  12.693  18.605  0.00  0.00    +0.000 A 
ATOM     14  C   UNL     1       0.734  11.434  18.638  0.00  0.00    +0.000 A 
ATOM     15  C   UNL     1       0.463  10.477  19.636  0.00  0.00    +0.000 A 
ATOM     16  C   UNL     1      -0.468  10.821  20.641  0.00  0.00    +0.000 A 
ATOM     17  C   UNL     1      -1.087  12.086  20.643  0.00  0.00    +0.000 A 
ATOM     18  H   UNL     1      -1.590  14.951  19.364  0.00  0.00    +0.000 HD
ENDBRANCH   2  15
ENDBRANCH   1   6
BRANCH   1  19
ATOM     19  C   UNL     1       4.607   7.244  17.489  0.00  0.00    +0.000 C 
BRANCH  19  20
ATOM     20  C   UNL     1       5.388   6.046  16.907  0.00  0.00    +0.000 C 
BRANCH  20  21
ATOM     21  N   UNL     1       6.670   6.509  16.339  0.00  0.00    +0.000 NA
ATOM     22  H   UNL     1       7.401   6.465  17.048  0.00  0.00    +0.000 HD
ATOM     23  H   UNL     1       6.570   7.500  16.111  0.00  0.00    +0.000 HD
ENDBRANCH  20  21
BRANCH  20  24
ATOM     24  C   UNL     1       5.588   4.975  17.998  0.00  0.00    +0.000 C 
BRANCH  24  25
ATOM     25  C   UNL     1       4.439   4.011  18.139  0.00  0.00    +0.000 A 
ATOM     26  C   UNL     1       3.793   3.504  17.001  0.00  0.00    +0.000 A 
ATOM     27  C   UNL     1       2.723   2.625  17.127  0.00  0.00    +0.000 A 
ATOM     28  C   UNL     1       2.301   2.226  18.395  0.00  0.00    +0.000 A 
ATOM     29  C   UNL     1       2.946   2.699  19.541  0.00  0.00    +0.000 A 
ATOM     30  C   UNL     1       3.979   3.626  19.411  0.00  0.00    +0.000 A 
BRANCH  29  31
ATOM     31  O   UNL     1       2.448   2.223  20.715  0.00  0.00    +0.000 OA
BRANCH  31  32
ATOM     32  C   UNL     1       1.619   3.062  21.507  0.00  0.00    +0.000 C 
ATOM     33  F   UNL     1       0.875   2.409  22.425  0.00  0.00    +0.000 F 
ATOM     34  F   UNL     1       2.384   3.977  22.140  0.00  0.00    +0.000 F 
ATOM     35  F   UNL     1       0.768   3.721  20.687  0.00  0.00    +0.000 F 
ENDBRANCH  31  32
ENDBRANCH  29  31
ENDBRANCH  24  25
ENDBRANCH  20  24
ENDBRANCH  19  20
ENDBRANCH   1  19
TORSDOF 9
ENDMDL
MODEL 7
REMARK VINA RESULT:      -8.3      3.586      4.764
REMARK  Name = 
REMARK  10 active torsions:
REMARK  status: ('A' for Active; 'I' for Inactive)
REMARK    1  A    between atoms: C_1  and  C_2
REMARK    2  A    between atoms: C_8  and  C_9
REMARK    3  A    between atoms: C_13  and  O_14
REMARK    4  A    between atoms: O_14  and  C_15
REMARK    5  A    between atoms: C_15  and  C_16
REMARK    6  A    between atoms: C_16  and  N_17
REMARK    7  A    between atoms: C_16  and  C_18
REMARK    8  A    between atoms: C_18  and  C_19
REMARK    9  A    between atoms: C_23  and  O_24
REMARK   10  A    between atoms: O_24  and  C_25
REMARK                            x       y       z     vdW  Elec       q    Type
REMARK                         _______ _______ _______ _____ _____    ______ ____
ROOT
ATOM      1  O   UNL     1       5.050   4.010  18.842  0.00  0.00    +0.000 OA
ENDROOT
BRANCH   1   6
ATOM      2  C   UNL     1       2.250   6.182  19.997  0.00  0.00    +0.000 A 
ATOM      3  C   UNL     1       1.616   5.178  20.735  0.00  0.00    +0.000 A 
ATOM      4  N   UNL     1       2.043   3.897  20.838  0.00  0.00    +0.000 NA
ATOM      5  C   UNL     1       3.183   3.590  20.184  0.00  0.00    +0.000 A 
ATOM      6  C   UNL     1       3.913   4.491  19.422  0.00  0.00    +0.000 A 
ATOM      7  C   UNL     1       3.423   5.792  19.323  0.00  0.00    +0.000 A 
BRANCH   2  15
ATOM      8  C   UNL     1      -0.572  10.056  23.232  0.00  0.00    +0.000 C 
ATOM      9  C   UNL     1      -0.121  10.335  21.847  0.00  0.00    +0.000 A 
ATOM     10  N   UNL     1      -0.342  11.530  21.286  0.00  0.00    +0.000 NA
ATOM     11  N   UNL     1       0.204  11.415  20.063  0.00  0.00    +0.000 N 
ATOM     12  C   UNL     1       0.778  10.198  19.816  0.00  0.00    +0.000 A 
ATOM     13  C   UNL     1       1.450   9.692  18.704  0.00  0.00    +0.000 A 
ATOM     14  C   UNL     1       1.931   8.376  18.792  0.00  0.00    +0.000 A 
ATOM     15  C   UNL     1       1.741   7.571  19.933  0.00  0.00    +0.000 A 
ATOM     16  C   UNL     1       1.042   8.133  21.025  0.00  0.00    +0.000 A 
ATOM     17  C   UNL     1       0.570   9.459  20.969  0.00  0.00    +0.000 A 
ATOM     18  H   UNL     1       0.155  12.212  19.440  0.00  0.00    +0.000 HD
ENDBRANCH   2  15
ENDBRANCH   1   6
BRANCH   1  19
ATOM     19  C   UNL     1       5.905   4.962  18.201  0.00  0.00    +0.000 C 
BRANCH  19  20
ATOM     20  C   UNL     1       5.730   4.822  16.674  0.00  0.00    +0.000 C 
BRANCH  20  21
ATOM     21  N   UNL     1       5.042   6.012  16.134  0.00  0.00    +0.000 NA
ATOM     22  H   UNL     1       5.270   6.831  16.696  0.00  0.00    +0.000 HD
ATOM     23  H   UNL     1       4.037   5.871  16.252  0.00  0.00    +0.000 HD
ENDBRANCH  20  21
BRANCH  20  24
ATOM     24  C   UNL     1       7.103   4.594  16.010  0.00  0.00    +0.000 C 
BRANCH  24  25
ATOM     25  C   UNL     1       7.057   4.496  14.507  0.00  0.00    +0.000 A 
ATOM     26  C   UNL     1       7.763   5.412  13.713  0.00  0.00    +0.000 A 
ATOM     27  C   UNL     1       7.712   5.334  12.326  0.00  0.00    +0.000 A 
ATOM     28  C   UNL     1       6.970   4.322  11.717  0.00  0.00    +0.000 A 
ATOM     29  C   UNL     1       6.279   3.384  12.489  0.00  0.00    +0.000 A 
ATOM     30  C   UNL     1       6.285   3.503  13.877  0.00  0.00    +0.000 A 
BRANCH  29  31
ATOM     31  O   UNL     1       5.606   2.441  11.774  0.00  0.00    +0.000 OA
BRANCH  31  32
ATOM     32  C   UNL     1       6.335   1.401  11.139  0.00  0.00    +0.000 C 
ATOM     33  F   UNL     1       6.202   1.363   9.795  0.00  0.00    +0.000 F 
ATOM     34  F   UNL     1       7.645   1.524  11.442  0.00  0.00    +0.000 F 
ATOM     35  F   UNL     1       5.901   0.215  11.624  0.00  0.00    +0.000 F 
ENDBRANCH  31  32
ENDBRANCH  29  31
ENDBRANCH  24  25
ENDBRANCH  20  24
ENDBRANCH  19  20
ENDBRANCH   1  19
TORSDOF 9
ENDMDL
MODEL 8
REMARK VINA RESULT:      -8.3      2.146      2.820
REMARK  Name = 
REMARK  10 active torsions:
REMARK  status: ('A' for Active; 'I' for Inactive)
REMARK    1  A    between atoms: C_1  and  C_2
REMARK    2  A    between atoms: C_8  and  C_9
REMARK    3  A    between atoms: C_13  and  O_14
REMARK    4  A    between atoms: O_14  and  C_15
REMARK    5  A    between atoms: C_15  and  C_16
REMARK    6  A    between atoms: C_16  and  N_17
REMARK    7  A    between atoms: C_16  and  C_18
REMARK    8  A    between atoms: C_18  and  C_19
REMARK    9  A    between atoms: C_23  and  O_24
REMARK   10  A    between atoms: O_24  and  C_25
REMARK                            x       y       z     vdW  Elec       q    Type
REMARK                         _______ _______ _______ _____ _____    ______ ____
ROOT
ATOM      1  O   UNL     1       2.868   6.688  19.144  0.00  0.00    +0.000 OA
ENDROOT
BRANCH   1   6
ATOM      2  C   UNL     1       0.819   9.715  19.871  0.00  0.00    +0.000 A 
ATOM      3  C   UNL     1       1.031  10.306  18.622  0.00  0.00    +0.000 A 
ATOM      4  N   UNL     1       1.790   9.783  17.630  0.00  0.00    +0.000 NA
ATOM      5  C   UNL     1       2.364   8.587  17.880  0.00  0.00    +0.000 A 
ATOM      6  C   UNL     1       2.230   7.891  19.072  0.00  0.00    +0.000 A 
ATOM      7  C   UNL     1       1.460   8.478  20.075  0.00  0.00    +0.000 A 
BRANCH   2  15
ATOM      8  C   UNL     1      -2.722  14.219  20.657  0.00  0.00    +0.000 C 
ATOM      9  C   UNL     1      -2.423  13.231  21.721  0.00  0.00    +0.000 A 
ATOM     10  N   UNL     1      -2.989  13.338  22.930  0.00  0.00    +0.000 NA
ATOM     11  N   UNL     1      -2.501  12.284  23.607  0.00  0.00    +0.000 N 
ATOM     12  C   UNL     1      -1.652  11.495  22.881  0.00  0.00    +0.000 A 
ATOM     13  C   UNL     1      -0.962  10.325  23.201  0.00  0.00    +0.000 A 
ATOM     14  C   UNL     1      -0.167   9.756  22.193  0.00  0.00    +0.000 A 
ATOM     15  C   UNL     1      -0.036  10.330  20.913  0.00  0.00    +0.000 A 
ATOM     16  C   UNL     1      -0.747  11.521  20.650  0.00  0.00    +0.000 A 
ATOM     17  C   UNL     1      -1.570  12.099  21.636  0.00  0.00    +0.000 A 
ATOM     18  H   UNL     1      -2.792  12.157  24.569  0.00  0.00    +0.000 HD
ENDBRANCH   2  15
ENDBRANCH   1   6
BRANCH   1  19
ATOM     19  C   UNL     1       2.652   5.772  18.065  0.00  0.00    +0.000 C 
BRANCH  19  20
ATOM     20  C   UNL     1       2.205   4.418  18.659  0.00  0.00    +0.000 C 
BRANCH  20  21
ATOM     21  N   UNL     1       1.342   3.706  17.696  0.00  0.00    +0.000 NA
ATOM     22  H   UNL     1       1.688   2.759  17.552  0.00  0.00    +0.000 HD
ATOM     23  H   UNL     1       1.436   4.171  16.790  0.00  0.00    +0.000 HD
ENDBRANCH  20  21
BRANCH  20  24
ATOM     24  C   UNL     1       3.443   3.588  19.054  0.00  0.00    +0.000 C 
BRANCH  24  25
ATOM     25  C   UNL     1       4.696   3.944  18.296  0.00  0.00    +0.000 A 
ATOM     26  C   UNL     1       5.716   4.683  18.915  0.00  0.00    +0.000 A 
ATOM     27  C   UNL     1       6.867   5.025  18.215  0.00  0.00    +0.000 A 
ATOM     28  C   UNL     1       7.021   4.612  16.892  0.00  0.00    +0.000 A 
ATOM     29  C   UNL     1       6.029   3.854  16.264  0.00  0.00    +0.000 A 
ATOM     30  C   UNL     1       4.851   3.565  16.950  0.00  0.00    +0.000 A 
BRANCH  29  31
ATOM     31  O   UNL     1       6.307   3.502  14.979  0.00  0.00    +0.000 OA
BRANCH  31  32
ATOM     32  C   UNL     1       6.120   4.456  13.943  0.00  0.00    +0.000 C 
ATOM     33  F   UNL     1       7.253   5.066  13.531  0.00  0.00    +0.000 F 
ATOM     34  F   UNL     1       5.539   3.857  12.882  0.00  0.00    +0.000 F 
ATOM     35  F   UNL     1       5.282   5.418  14.394  0.00  0.00    +0.000 F 
ENDBRANCH  31  32
ENDBRANCH  29  31
ENDBRANCH  24  25
ENDBRANCH  20  24
ENDBRANCH  19  20
ENDBRANCH   1  19
TORSDOF 9
ENDMDL
MODEL 9
REMARK VINA RESULT:      -8.3      3.728      5.148
REMARK  Name = 
REMARK  10 active torsions:
REMARK  status: ('A' for Active; 'I' for Inactive)
REMARK    1  A    between atoms: C_1  and  C_2
REMARK    2  A    between atoms: C_8  and  C_9
REMARK    3  A    between atoms: C_13  and  O_14
REMARK    4  A    between atoms: O_14  and  C_15
REMARK    5  A    between atoms: C_15  and  C_16
REMARK    6  A    between atoms: C_16  and  N_17
REMARK    7  A    between atoms: C_16  and  C_18
REMARK    8  A    between atoms: C_18  and  C_19
REMARK    9  A    between atoms: C_23  and  O_24
REMARK   10  A    between atoms: O_24  and  C_25
REMARK                            x       y       z     vdW  Elec       q    Type
REMARK                         _______ _______ _______ _____ _____    ______ ____
ROOT
ATOM      1  O   UNL     1       1.796   9.910  18.410  0.00  0.00    +0.000 OA
ENDROOT
BRANCH   1   6
ATOM      2  C   UNL     1      -1.566  11.375  19.071  0.00  0.00    +0.000 A 
ATOM      3  C   UNL     1      -1.221  11.915  20.313  0.00  0.00    +0.000 A 
ATOM      4  N   UNL     1      -0.006  11.800  20.903  0.00  0.00    +0.000 NA
ATOM      5  C   UNL     1       0.935  11.123  20.212  0.00  0.00    +0.000 A 
ATOM      6  C   UNL     1       0.726  10.544  18.969  0.00  0.00    +0.000 A 
ATOM      7  C   UNL     1      -0.545  10.665  18.410  0.00  0.00    +0.000 A 
BRANCH   2  15
ATOM      8  C   UNL     1      -6.875  13.211  20.449  0.00  0.00    +0.000 C 
ATOM      9  C   UNL     1      -6.522  12.691  19.105  0.00  0.00    +0.000 A 
ATOM     10  N   UNL     1      -7.440  12.643  18.132  0.00  0.00    +0.000 NA
ATOM     11  N   UNL     1      -6.767  12.140  17.082  0.00  0.00    +0.000 N 
ATOM     12  C   UNL     1      -5.449  11.872  17.337  0.00  0.00    +0.000 A 
ATOM     13  C   UNL     1      -4.427  11.370  16.531  0.00  0.00    +0.000 A 
ATOM     14  C   UNL     1      -3.161  11.226  17.121  0.00  0.00    +0.000 A 
ATOM     15  C   UNL     1      -2.909  11.547  18.470  0.00  0.00    +0.000 A 
ATOM     16  C   UNL     1      -3.986  12.039  19.241  0.00  0.00    +0.000 A 
ATOM     17  C   UNL     1      -5.259  12.214  18.666  0.00  0.00    +0.000 A 
ATOM     18  H   UNL     1      -7.267  12.005  16.212  0.00  0.00    +0.000 HD
ENDBRANCH   2  15
ENDBRANCH   1   6
BRANCH   1  19
ATOM     19  C   UNL     1       1.618   8.540  18.037  0.00  0.00    +0.000 C 
BRANCH  19  20
ATOM     20  C   UNL     1       2.508   7.668  18.949  0.00  0.00    +0.000 C 
BRANCH  20  21
ATOM     21  N   UNL     1       1.913   7.579  20.298  0.00  0.00    +0.000 NA
ATOM     22  H   UNL     1       0.954   7.924  20.279  0.00  0.00    +0.000 HD
ATOM     23  H   UNL     1       2.423   8.224  20.905  0.00  0.00    +0.000 HD
ENDBRANCH  20  21
BRANCH  20  24
ATOM     24  C   UNL     1       2.707   6.279  18.309  0.00  0.00    +0.000 C 
BRANCH  24  25
ATOM     25  C   UNL     1       4.147   5.917  18.050  0.00  0.00    +0.000 A 
ATOM     26  C   UNL     1       4.961   5.451  19.094  0.00  0.00    +0.000 A 
ATOM     27  C   UNL     1       6.294   5.129  18.862  0.00  0.00    +0.000 A 
ATOM     28  C   UNL     1       6.821   5.248  17.576  0.00  0.00    +0.000 A 
ATOM     29  C   UNL     1       6.020   5.684  16.518  0.00  0.00    +0.000 A 
ATOM     30  C   UNL     1       4.702   6.064  16.767  0.00  0.00    +0.000 A 
BRANCH  29  31
ATOM     31  O   UNL     1       6.649   5.743  15.312  0.00  0.00    +0.000 OA
BRANCH  31  32
ATOM     32  C   UNL     1       6.470   4.682  14.384  0.00  0.00    +0.000 C 
ATOM     33  F   UNL     1       6.749   3.455  14.875  0.00  0.00    +0.000 F 
ATOM     34  F   UNL     1       5.196   4.690  13.937  0.00  0.00    +0.000 F 
ATOM     35  F   UNL     1       7.288   4.893  13.328  0.00  0.00    +0.000 F 
ENDBRANCH  31  32
ENDBRANCH  29  31
ENDBRANCH  24  25
ENDBRANCH  20  24
ENDBRANCH  19  20
ENDBRANCH   1  19
TORSDOF 9
ENDMDL
