MODEL 1
REMARK VINA RESULT:      -6.4      0.000      0.000
REMARK  Name = 
REMARK  2 active torsions:
REMARK  status: ('A' for Active; 'I' for Inactive)
REMARK    1  A    between atoms: S_2  and  C_4
REMARK    2  A    between atoms: S_2  and  N_9
REMARK                            x       y       z     vdW  Elec       q    Type
REMARK                         _______ _______ _______ _____ _____    ______ ____
ROOT
ATOM      1  O   UNL     1       2.463   3.359  16.791  0.00  0.00    +0.000 OA
ATOM      2  S   UNL     1       2.799   4.351  17.789  0.00  0.00    +0.000 S 
ATOM      3  O   UNL     1       2.162   5.647  17.833  0.00  0.00    +0.000 OA
ENDROOT
BRANCH   2   4
ATOM      4  N   UNL     1       4.464   4.563  17.772  0.00  0.00    +0.000 NA
ATOM      5  C   UNL     1       5.208   4.152  16.546  0.00  0.00    +0.000 C 
ATOM      6  C   UNL     1       6.724   4.410  16.720  0.00  0.00    +0.000 C 
ATOM      7  C   UNL     1       7.147   5.837  16.335  0.00  0.00    +0.000 C 
ATOM      8  C   UNL     1       7.321   6.542  17.673  0.00  0.00    +0.000 C 
ATOM      9  C   UNL     1       6.556   5.630  18.613  0.00  0.00    +0.000 C 
ATOM     10  C   UNL     1       5.016   5.774  18.425  0.00  0.00    +0.000 C 
ATOM     11  O   UNL     1       7.014   4.337  18.137  0.00  0.00    +0.000 OA
ENDBRANCH   2   4
BRANCH   2  12
ATOM     12  C   UNL     1       2.369   3.636  19.311  0.00  0.00    +0.000 A 
ATOM     13  C   UNL     1       1.050   3.612  19.857  0.00  0.00    +0.000 A 
ATOM     14  C   UNL     1       1.010   2.989  21.085  0.00  0.00    +0.000 A 
ATOM     15  S   UNL     1       2.555   2.434  21.574  0.00  0.00    +0.000 S 
ATOM     16  C   UNL     1       3.286   3.030  20.144  0.00  0.00    +0.000 A 
ENDBRANCH   2  12
TORSDOF 2
ENDMDL
MODEL 2
REMARK VINA RESULT:      -6.4      1.006      1.171
REMARK  Name = 
REMARK  2 active torsions:
REMARK  status: ('A' for Active; 'I' for Inactive)
REMARK    1  A    between atoms: S_2  and  C_4
REMARK    2  A    between atoms: S_2  and  N_9
REMARK                            x       y       z     vdW  Elec       q    Type
REMARK                         _______ _______ _______ _____ _____    ______ ____
ROOT
ATOM      1  O   UNL     1       3.721   1.536  17.749  0.00  0.00    +0.000 OA
ATOM      2  S   UNL     1       3.481   2.962  17.704  0.00  0.00    +0.000 S 
ATOM      3  O   UNL     1       2.638   3.570  16.701  0.00  0.00    +0.000 OA
ENDROOT
BRANCH   2   4
ATOM      4  N   UNL     1       4.969   3.740  17.710  0.00  0.00    +0.000 NA
ATOM      5  C   UNL     1       5.716   3.827  16.421  0.00  0.00    +0.000 C 
ATOM      6  C   UNL     1       7.062   4.563  16.624  0.00  0.00    +0.000 C 
ATOM      7  C   UNL     1       6.944   6.091  16.503  0.00  0.00    +0.000 C 
ATOM      8  C   UNL     1       6.965   6.577  17.946  0.00  0.00    +0.000 C 
ATOM      9  C   UNL     1       6.627   5.311  18.711  0.00  0.00    +0.000 C 
ATOM     10  C   UNL     1       5.121   4.939  18.568  0.00  0.00    +0.000 C 
ATOM     11  O   UNL     1       7.463   4.359  18.001  0.00  0.00    +0.000 OA
ENDBRANCH   2   4
BRANCH   2  12
ATOM     12  C   UNL     1       2.677   3.340  19.195  0.00  0.00    +0.000 A 
ATOM     13  C   UNL     1       1.670   4.341  19.347  0.00  0.00    +0.000 A 
ATOM     14  C   UNL     1       1.221   4.429  20.646  0.00  0.00    +0.000 A 
ATOM     15  S   UNL     1       2.008   3.308  21.675  0.00  0.00    +0.000 S 
ATOM     16  C   UNL     1       2.958   2.702  20.385  0.00  0.00    +0.000 A 
ENDBRANCH   2  12
TORSDOF 2
ENDMDL
MODEL 3
REMARK VINA RESULT:      -6.3      2.003      5.570
REMARK  Name = 
REMARK  2 active torsions:
REMARK  status: ('A' for Active; 'I' for Inactive)
REMARK    1  A    between atoms: S_2  and  C_4
REMARK    2  A    between atoms: S_2  and  N_9
REMARK                            x       y       z     vdW  Elec       q    Type
REMARK                         _______ _______ _______ _____ _____    ______ ____
ROOT
ATOM      1  O   UNL     1       5.928   5.439  19.188  0.00  0.00    +0.000 OA
ATOM      2  S   UNL     1       4.881   5.512  18.193  0.00  0.00    +0.000 S 
ATOM      3  O   UNL     1       4.214   6.751  17.866  0.00  0.00    +0.000 OA
ENDROOT
BRANCH   2   4
ATOM      4  N   UNL     1       3.724   4.354  18.567  0.00  0.00    +0.000 NA
ATOM      5  C   UNL     1       4.102   3.276  19.527  0.00  0.00    +0.000 C 
ATOM      6  C   UNL     1       2.919   2.300  19.739  0.00  0.00    +0.000 C 
ATOM      7  C   UNL     1       1.944   2.753  20.838  0.00  0.00    +0.000 C 
ATOM      8  C   UNL     1       0.762   3.324  20.067  0.00  0.00    +0.000 C 
ATOM      9  C   UNL     1       1.363   3.561  18.695  0.00  0.00    +0.000 C 
ATOM     10  C   UNL     1       2.315   4.795  18.691  0.00  0.00    +0.000 C 
ATOM     11  O   UNL     1       2.115   2.330  18.534  0.00  0.00    +0.000 OA
ENDBRANCH   2   4
BRANCH   2  12
ATOM     12  C   UNL     1       5.633   5.049  16.699  0.00  0.00    +0.000 A 
ATOM     13  C   UNL     1       6.924   5.483  16.267  0.00  0.00    +0.000 A 
ATOM     14  C   UNL     1       7.256   4.966  15.034  0.00  0.00    +0.000 A 
ATOM     15  S   UNL     1       6.021   3.962  14.403  0.00  0.00    +0.000 S 
ATOM     16  C   UNL     1       5.030   4.219  15.777  0.00  0.00    +0.000 A 
ENDBRANCH   2  12
TORSDOF 2
ENDMDL
MODEL 4
REMARK VINA RESULT:      -6.3      1.490      1.735
REMARK  Name = 
REMARK  2 active torsions:
REMARK  status: ('A' for Active; 'I' for Inactive)
REMARK    1  A    between atoms: S_2  and  C_4
REMARK    2  A    between atoms: S_2  and  N_9
REMARK                            x       y       z     vdW  Elec       q    Type
REMARK                         _______ _______ _______ _____ _____    ______ ____
ROOT
ATOM      1  O   UNL     1       3.836   1.686  18.042  0.00  0.00    +0.000 OA
ATOM      2  S   UNL     1       3.516   3.058  17.713  0.00  0.00    +0.000 S 
ATOM      3  O   UNL     1       2.552   3.401  16.694  0.00  0.00    +0.000 OA
ENDROOT
BRANCH   2   4
ATOM      4  N   UNL     1       4.954   3.867  17.398  0.00  0.00    +0.000 NA
ATOM      5  C   UNL     1       4.980   4.821  16.251  0.00  0.00    +0.000 C 
ATOM      6  C   UNL     1       6.384   5.458  16.108  0.00  0.00    +0.000 C 
ATOM      7  C   UNL     1       6.576   6.709  16.980  0.00  0.00    +0.000 C 
ATOM      8  C   UNL     1       7.403   6.214  18.158  0.00  0.00    +0.000 C 
ATOM      9  C   UNL     1       7.199   4.713  18.079  0.00  0.00    +0.000 C 
ATOM     10  C   UNL     1       5.772   4.302  18.553  0.00  0.00    +0.000 C 
ATOM     11  O   UNL     1       7.342   4.514  16.648  0.00  0.00    +0.000 OA
ENDBRANCH   2   4
BRANCH   2  12
ATOM     12  C   UNL     1       2.834   3.730  19.161  0.00  0.00    +0.000 A 
ATOM     13  C   UNL     1       2.779   3.064  20.422  0.00  0.00    +0.000 A 
ATOM     14  C   UNL     1       2.170   3.834  21.387  0.00  0.00    +0.000 A 
ATOM     15  S   UNL     1       1.670   5.354  20.776  0.00  0.00    +0.000 S 
ATOM     16  C   UNL     1       2.263   4.985  19.212  0.00  0.00    +0.000 A 
ENDBRANCH   2  12
TORSDOF 2
ENDMDL
MODEL 5
REMARK VINA RESULT:      -6.3      2.019      5.522
REMARK  Name = 
REMARK  2 active torsions:
REMARK  status: ('A' for Active; 'I' for Inactive)
REMARK    1  A    between atoms: S_2  and  C_4
REMARK    2  A    between atoms: S_2  and  N_9
REMARK                            x       y       z     vdW  Elec       q    Type
REMARK                         _______ _______ _______ _____ _____    ______ ____
ROOT
ATOM      1  O   UNL     1       6.352   4.672  19.181  0.00  0.00    +0.000 OA
ATOM      2  S   UNL     1       5.256   5.152  18.367  0.00  0.00    +0.000 S 
ATOM      3  O   UNL     1       4.846   6.537  18.365  0.00  0.00    +0.000 OA
ENDROOT
BRANCH   2   4
ATOM      4  N   UNL     1       3.917   4.187  18.676  0.00  0.00    +0.000 NA
ATOM      5  C   UNL     1       4.093   3.021  19.588  0.00  0.00    +0.000 C 
ATOM      6  C   UNL     1       2.761   2.247  19.743  0.00  0.00    +0.000 C 
ATOM      7  C   UNL     1       1.857   2.808  20.853  0.00  0.00    +0.000 C 
ATOM      8  C   UNL     1       0.799   3.603  20.100  0.00  0.00    +0.000 C 
ATOM      9  C   UNL     1       1.454   3.797  18.745  0.00  0.00    +0.000 C 
ATOM     10  C   UNL     1       2.599   4.852  18.808  0.00  0.00    +0.000 C 
ATOM     11  O   UNL     1       1.993   2.465  18.534  0.00  0.00    +0.000 OA
ENDBRANCH   2   4
BRANCH   2  12
ATOM     12  C   UNL     1       5.746   4.871  16.725  0.00  0.00    +0.000 A 
ATOM     13  C   UNL     1       4.983   4.148  15.759  0.00  0.00    +0.000 A 
ATOM     14  C   UNL     1       5.627   4.073  14.543  0.00  0.00    +0.000 A 
ATOM     15  S   UNL     1       7.142   4.871  14.568  0.00  0.00    +0.000 S 
ATOM     16  C   UNL     1       6.945   5.318  16.210  0.00  0.00    +0.000 A 
ENDBRANCH   2  12
TORSDOF 2
ENDMDL
MODEL 6
REMARK VINA RESULT:      -6.2      1.368      1.897
REMARK  Name = 
REMARK  2 active torsions:
REMARK  status: ('A' for Active; 'I' for Inactive)
REMARK    1  A    between atoms: S_2  and  C_4
REMARK    2  A    between atoms: S_2  and  N_9
REMARK                            x       y       z     vdW  Elec       q    Type
REMARK                         _______ _______ _______ _____ _____    ______ ____
ROOT
ATOM      1  O   UNL     1       3.648   1.618  17.777  0.00  0.00    +0.000 OA
ATOM      2  S   UNL     1       3.088   2.947  17.660  0.00  0.00    +0.000 S 
ATOM      3  O   UNL     1       2.047   3.263  16.711  0.00  0.00    +0.000 OA
ENDROOT
BRANCH   2   4
ATOM      4  N   UNL     1       4.355   4.031  17.462  0.00  0.00    +0.000 NA
ATOM      5  C   UNL     1       5.330   4.176  18.581  0.00  0.00    +0.000 C 
ATOM      6  C   UNL     1       6.414   5.222  18.224  0.00  0.00    +0.000 C 
ATOM      7  C   UNL     1       7.600   4.629  17.446  0.00  0.00    +0.000 C 
ATOM      8  C   UNL     1       7.343   5.050  16.006  0.00  0.00    +0.000 C 
ATOM      9  C   UNL     1       5.870   5.410  16.039  0.00  0.00    +0.000 C 
ATOM     10  C   UNL     1       4.971   4.140  16.118  0.00  0.00    +0.000 C 
ATOM     11  O   UNL     1       5.821   6.154  17.285  0.00  0.00    +0.000 OA
ENDBRANCH   2   4
BRANCH   2  12
ATOM     12  C   UNL     1       2.348   3.270  19.197  0.00  0.00    +0.000 A 
ATOM     13  C   UNL     1       1.800   4.529  19.590  0.00  0.00    +0.000 A 
ATOM     14  C   UNL     1       1.291   4.494  20.869  0.00  0.00    +0.000 A 
ATOM     15  S   UNL     1       1.471   2.951  21.591  0.00  0.00    +0.000 S 
ATOM     16  C   UNL     1       2.236   2.322  20.193  0.00  0.00    +0.000 A 
ENDBRANCH   2  12
TORSDOF 2
ENDMDL
MODEL 7
REMARK VINA RESULT:      -6.1      2.374      5.173
REMARK  Name = 
REMARK  2 active torsions:
REMARK  status: ('A' for Active; 'I' for Inactive)
REMARK    1  A    between atoms: S_2  and  C_4
REMARK    2  A    between atoms: S_2  and  N_9
REMARK                            x       y       z     vdW  Elec       q    Type
REMARK                         _______ _______ _______ _____ _____    ______ ____
ROOT
ATOM      1  O   UNL     1       5.178   6.473  15.303  0.00  0.00    +0.000 OA
ATOM      2  S   UNL     1       5.518   5.269  16.030  0.00  0.00    +0.000 S 
ATOM      3  O   UNL     1       6.217   4.167  15.413  0.00  0.00    +0.000 OA
ENDROOT
BRANCH   2   4
ATOM      4  N   UNL     1       4.121   4.689  16.760  0.00  0.00    +0.000 NA
ATOM      5  C   UNL     1       4.082   3.249  17.145  0.00  0.00    +0.000 C 
ATOM      6  C   UNL     1       2.719   2.897  17.788  0.00  0.00    +0.000 C 
ATOM      7  C   UNL     1       2.672   3.165  19.302  0.00  0.00    +0.000 C 
ATOM      8  C   UNL     1       1.894   4.468  19.420  0.00  0.00    +0.000 C 
ATOM      9  C   UNL     1       1.989   5.023  18.012  0.00  0.00    +0.000 C 
ATOM     10  C   UNL     1       3.414   5.580  17.710  0.00  0.00    +0.000 C 
ATOM     11  O   UNL     1       1.737   3.815  17.248  0.00  0.00    +0.000 OA
ENDBRANCH   2   4
BRANCH   2  12
ATOM     12  C   UNL     1       6.600   5.783  17.287  0.00  0.00    +0.000 A 
ATOM     13  C   UNL     1       7.231   7.063  17.347  0.00  0.00    +0.000 A 
ATOM     14  C   UNL     1       8.046   7.184  18.450  0.00  0.00    +0.000 A 
ATOM     15  S   UNL     1       8.050   5.765  19.408  0.00  0.00    +0.000 S 
ATOM     16  C   UNL     1       6.960   4.977  18.346  0.00  0.00    +0.000 A 
ENDBRANCH   2  12
TORSDOF 2
ENDMDL
MODEL 8
REMARK VINA RESULT:      -6.1      2.930      5.911
REMARK  Name = 
REMARK  2 active torsions:
REMARK  status: ('A' for Active; 'I' for Inactive)
REMARK    1  A    between atoms: S_2  and  C_4
REMARK    2  A    between atoms: S_2  and  N_9
REMARK                            x       y       z     vdW  Elec       q    Type
REMARK                         _______ _______ _______ _____ _____    ______ ____
ROOT
ATOM      1  O   UNL     1       7.919   4.228  16.987  0.00  0.00    +0.000 OA
ATOM      2  S   UNL     1       7.089   5.234  16.359  0.00  0.00    +0.000 S 
ATOM      3  O   UNL     1       7.494   6.617  16.264  0.00  0.00    +0.000 OA
ENDROOT
BRANCH   2   4
ATOM      4  N   UNL     1       5.563   5.159  17.055  0.00  0.00    +0.000 NA
ATOM      5  C   UNL     1       5.306   4.085  18.057  0.00  0.00    +0.000 C 
ATOM      6  C   UNL     1       3.850   4.166  18.576  0.00  0.00    +0.000 C 
ATOM      7  C   UNL     1       3.679   5.128  19.763  0.00  0.00    +0.000 C 
ATOM      8  C   UNL     1       3.061   6.373  19.141  0.00  0.00    +0.000 C 
ATOM      9  C   UNL     1       3.371   6.178  17.668  0.00  0.00    +0.000 C 
ATOM     10  C   UNL     1       4.877   6.436  17.361  0.00  0.00    +0.000 C 
ATOM     11  O   UNL     1       3.051   4.769  17.529  0.00  0.00    +0.000 OA
ENDBRANCH   2   4
BRANCH   2  12
ATOM     12  C   UNL     1       6.943   4.740  14.701  0.00  0.00    +0.000 A 
ATOM     13  C   UNL     1       7.715   5.267  13.622  0.00  0.00    +0.000 A 
ATOM     14  C   UNL     1       7.374   4.697  12.416  0.00  0.00    +0.000 A 
ATOM     15  S   UNL     1       6.132   3.530  12.585  0.00  0.00    +0.000 S 
ATOM     16  C   UNL     1       6.041   3.787  14.276  0.00  0.00    +0.000 A 
ENDBRANCH   2  12
TORSDOF 2
ENDMDL
MODEL 9
REMARK VINA RESULT:      -6.1      1.901      2.256
REMARK  Name = 
REMARK  2 active torsions:
REMARK  status: ('A' for Active; 'I' for Inactive)
REMARK    1  A    between atoms: S_2  and  C_4
REMARK    2  A    between atoms: S_2  and  N_9
REMARK                            x       y       z     vdW  Elec       q    Type
REMARK                         _______ _______ _______ _____ _____    ______ ____
ROOT
ATOM      1  O   UNL     1       5.040   2.297  20.156  0.00  0.00    +0.000 OA
ATOM      2  S   UNL     1       4.182   2.597  19.031  0.00  0.00    +0.000 S 
ATOM      3  O   UNL     1       3.464   1.569  18.313  0.00  0.00    +0.000 OA
ENDROOT
BRANCH   2   4
ATOM      4  N   UNL     1       5.062   3.514  17.934  0.00  0.00    +0.000 NA
ATOM      5  C   UNL     1       4.356   4.018  16.720  0.00  0.00    +0.000 C 
ATOM      6  C   UNL     1       5.325   4.827  15.826  0.00  0.00    +0.000 C 
ATOM      7  C   UNL     1       5.423   6.310  16.220  0.00  0.00    +0.000 C 
ATOM      8  C   UNL     1       6.742   6.403  16.975  0.00  0.00    +0.000 C 
ATOM      9  C   UNL     1       7.008   4.951  17.328  0.00  0.00    +0.000 C 
ATOM     10  C   UNL     1       6.071   4.457  18.470  0.00  0.00    +0.000 C 
ATOM     11  O   UNL     1       6.661   4.320  16.067  0.00  0.00    +0.000 OA
ENDBRANCH   2   4
BRANCH   2  12
ATOM     12  C   UNL     1       2.919   3.601  19.671  0.00  0.00    +0.000 A 
ATOM     13  C   UNL     1       1.564   3.190  19.854  0.00  0.00    +0.000 A 
ATOM     14  C   UNL     1       0.782   4.201  20.368  0.00  0.00    +0.000 A 
ATOM     15  S   UNL     1       1.679   5.637  20.630  0.00  0.00    +0.000 S 
ATOM     16  C   UNL     1       3.119   4.912  20.051  0.00  0.00    +0.000 A 
ENDBRANCH   2  12
TORSDOF 2
ENDMDL
