MODEL 1
REMARK VINA RESULT:      -6.4      0.000      0.000
REMARK  Name = 
REMARK  12 active torsions:
REMARK  status: ('A' for Active; 'I' for Inactive)
REMARK    1  A    between atoms: C_1  and  C_2
REMARK    2  A    between atoms: N_4  and  C_5
REMARK    3  A    between atoms: C_5  and  C_6
REMARK    4  A    between atoms: C_5  and  C_7
REMARK    5  A    between atoms: C_7  and  O_8
REMARK    6  A    between atoms: C_15  and  N_16
REMARK    7  A    between atoms: C_17  and  C_19
REMARK    8  A    between atoms: C_24  and  C_25
REMARK    9  A    between atoms: C_25  and  N_26
REMARK   10  A    between atoms: N_26  and  C_27
REMARK   11  A    between atoms: N_26  and  C_28
REMARK   12  A    between atoms: C_28  and  C_29
REMARK                            x       y       z     vdW  Elec       q    Type
REMARK                         _______ _______ _______ _____ _____    ______ ____
ROOT
ATOM      1  C   UNL     1      -1.277  13.101  23.035  0.00  0.00    +0.000 C 
ATOM      2  C   UNL     1      -2.575  12.538  22.412  0.00  0.00    +0.000 C 
ATOM      3  C   UNL     1      -3.751  12.846  23.336  0.00  0.00    +0.000 C 
ATOM      4  N   UNL     1      -4.256  14.199  23.235  0.00  0.00    +0.000 N 
ATOM      5  C   UNL     1      -5.283  14.507  22.342  0.00  0.00    +0.000 C 
ATOM      6  O   UNL     1      -5.808  15.609  22.251  0.00  0.00    +0.000 OA
ATOM      7  C   UNL     1      -5.784  13.394  21.502  0.00  0.00    +0.000 A 
ATOM      8  C   UNL     1      -7.056  12.902  21.798  0.00  0.00    +0.000 A 
ATOM      9  C   UNL     1      -7.542  11.807  21.096  0.00  0.00    +0.000 A 
ATOM     10  C   UNL     1      -6.788  11.252  20.063  0.00  0.00    +0.000 A 
ATOM     11  C   UNL     1      -5.531  11.764  19.711  0.00  0.00    +0.000 A 
ATOM     12  C   UNL     1      -4.989  12.798  20.506  0.00  0.00    +0.000 A 
ATOM     13  O   UNL     1      -3.777  13.356  20.219  0.00  0.00    +0.000 OA
ATOM     14  C   UNL     1      -2.578  12.896  20.902  0.00  0.00    +0.000 C 
ENDROOT
BRANCH  11  15
ATOM     15  N   UNL     1      -4.816  11.290  18.573  0.00  0.00    +0.000 N 
ATOM     16  C   UNL     1      -4.951  11.709  17.261  0.00  0.00    +0.000 C 
ATOM     17  O   UNL     1      -5.646  12.621  16.846  0.00  0.00    +0.000 OA
ATOM     18  H   UNL     1      -4.124  10.584  18.787  0.00  0.00    +0.000 HD
BRANCH  16  19
ATOM     19  C   UNL     1      -4.158  10.893  16.277  0.00  0.00    +0.000 C 
ATOM     20  C   UNL     1      -2.681  11.200  16.112  0.00  0.00    +0.000 C 
ATOM     21  C   UNL     1      -3.108   9.909  16.744  0.00  0.00    +0.000 C 
ENDBRANCH  16  19
ENDBRANCH  11  15
BRANCH   4  22
ATOM     22  C   UNL     1      -3.641  15.235  24.091  0.00  0.00    +0.000 C 
ATOM     23  C   UNL     1      -2.664  16.144  23.344  0.00  0.00    +0.000 C 
BRANCH  22  24
ATOM     24  C   UNL     1      -3.025  14.664  25.383  0.00  0.00    +0.000 C 
BRANCH  24  25
ATOM     25  O   UNL     1      -2.030  15.541  25.920  0.00  0.00    +0.000 OA
ATOM     26  H   UNL     1      -1.487  15.875  25.187  0.00  0.00    +0.000 HD
ENDBRANCH  24  25
ENDBRANCH  22  24
ENDBRANCH   4  22
BRANCH  14  27
ATOM     27  C   UNL     1      -1.937  11.780  20.009  0.00  0.00    +0.000 C 
BRANCH  27  28
ATOM     28  N   UNL     1      -0.578  11.213  20.199  0.00  0.00    +0.000 NA
ATOM     29  C   UNL     1      -0.203  10.214  19.181  0.00  0.00    +0.000 C 
BRANCH  28  30
ATOM     30  C   UNL     1       0.419  12.304  20.034  0.00  0.00    +0.000 C 
BRANCH  30  31
ATOM     31  C   UNL     1       0.527  12.962  18.641  0.00  0.00    +0.000 C 
ATOM     32  C   UNL     1      -0.058  14.379  18.606  0.00  0.00    +0.000 C 
ATOM     33  C   UNL     1       0.726  15.347  19.490  0.00  0.00    +0.000 C 
ATOM     34  C   UNL     1       2.222  15.342  19.172  0.00  0.00    +0.000 C 
ATOM     35  C   UNL     1       2.835  13.946  19.078  0.00  0.00    +0.000 C 
ATOM     36  C   UNL     1       2.002  13.006  18.211  0.00  0.00    +0.000 C 
ENDBRANCH  30  31
ENDBRANCH  28  30
ENDBRANCH  27  28
ENDBRANCH  14  27
TORSDOF 9
ENDMDL
MODEL 2
REMARK VINA RESULT:      -6.2      2.239      6.561
REMARK  Name = 
REMARK  12 active torsions:
REMARK  status: ('A' for Active; 'I' for Inactive)
REMARK    1  A    between atoms: C_1  and  C_2
REMARK    2  A    between atoms: N_4  and  C_5
REMARK    3  A    between atoms: C_5  and  C_6
REMARK    4  A    between atoms: C_5  and  C_7
REMARK    5  A    between atoms: C_7  and  O_8
REMARK    6  A    between atoms: C_15  and  N_16
REMARK    7  A    between atoms: C_17  and  C_19
REMARK    8  A    between atoms: C_24  and  C_25
REMARK    9  A    between atoms: C_25  and  N_26
REMARK   10  A    between atoms: N_26  and  C_27
REMARK   11  A    between atoms: N_26  and  C_28
REMARK   12  A    between atoms: C_28  and  C_29
REMARK                            x       y       z     vdW  Elec       q    Type
REMARK                         _______ _______ _______ _____ _____    ______ ____
ROOT
ATOM      1  C   UNL     1      -0.327  14.521  20.409  0.00  0.00    +0.000 C 
ATOM      2  C   UNL     1      -1.296  13.865  19.398  0.00  0.00    +0.000 C 
ATOM      3  C   UNL     1      -0.489  13.202  18.284  0.00  0.00    +0.000 C 
ATOM      4  N   UNL     1       0.066  11.910  18.632  0.00  0.00    +0.000 N 
ATOM      5  C   UNL     1      -0.652  10.741  18.380  0.00  0.00    +0.000 C 
ATOM      6  O   UNL     1      -0.221   9.612  18.582  0.00  0.00    +0.000 OA
ATOM      7  C   UNL     1      -1.997  10.906  17.782  0.00  0.00    +0.000 A 
ATOM      8  C   UNL     1      -2.147  10.524  16.449  0.00  0.00    +0.000 A 
ATOM      9  C   UNL     1      -3.364  10.733  15.814  0.00  0.00    +0.000 A 
ATOM     10  C   UNL     1      -4.440  11.259  16.528  0.00  0.00    +0.000 A 
ATOM     11  C   UNL     1      -4.329  11.599  17.884  0.00  0.00    +0.000 A 
ATOM     12  C   UNL     1      -3.058  11.498  18.491  0.00  0.00    +0.000 A 
ATOM     13  O   UNL     1      -2.873  11.801  19.810  0.00  0.00    +0.000 OA
ATOM     14  C   UNL     1      -2.393  13.115  20.201  0.00  0.00    +0.000 C 
ENDROOT
BRANCH  11  15
ATOM     15  N   UNL     1      -5.457  12.009  18.653  0.00  0.00    +0.000 N 
ATOM     16  C   UNL     1      -6.576  11.260  18.968  0.00  0.00    +0.000 C 
ATOM     17  O   UNL     1      -6.770  10.082  18.718  0.00  0.00    +0.000 OA
ATOM     18  H   UNL     1      -5.389  12.952  19.012  0.00  0.00    +0.000 HD
BRANCH  16  19
ATOM     19  C   UNL     1      -7.657  12.042  19.662  0.00  0.00    +0.000 C 
ATOM     20  C   UNL     1      -7.727  11.984  21.177  0.00  0.00    +0.000 C 
ATOM     21  C   UNL     1      -7.326  13.260  20.497  0.00  0.00    +0.000 C 
ENDBRANCH  16  19
ENDBRANCH  11  15
BRANCH   4  22
ATOM     22  C   UNL     1       1.398  11.877  19.272  0.00  0.00    +0.000 C 
ATOM     23  C   UNL     1       1.344  11.898  20.799  0.00  0.00    +0.000 C 
BRANCH  22  24
ATOM     24  C   UNL     1       2.363  12.940  18.713  0.00  0.00    +0.000 C 
BRANCH  24  25
ATOM     25  O   UNL     1       2.825  12.592  17.405  0.00  0.00    +0.000 OA
ATOM     26  H   UNL     1       2.980  11.634  17.378  0.00  0.00    +0.000 HD
ENDBRANCH  24  25
ENDBRANCH  22  24
ENDBRANCH   4  22
BRANCH  14  27
ATOM     27  C   UNL     1      -3.652  14.002  20.485  0.00  0.00    +0.000 C 
BRANCH  27  28
ATOM     28  N   UNL     1      -3.659  15.232  21.318  0.00  0.00    +0.000 NA
ATOM     29  C   UNL     1      -3.530  16.478  20.540  0.00  0.00    +0.000 C 
BRANCH  28  30
ATOM     30  C   UNL     1      -4.980  15.346  21.989  0.00  0.00    +0.000 C 
BRANCH  30  31
ATOM     31  C   UNL     1      -4.987  15.458  23.529  0.00  0.00    +0.000 C 
ATOM     32  C   UNL     1      -6.369  15.804  24.094  0.00  0.00    +0.000 C 
ATOM     33  C   UNL     1      -7.389  14.696  23.840  0.00  0.00    +0.000 C 
ATOM     34  C   UNL     1      -6.900  13.332  24.330  0.00  0.00    +0.000 C 
ATOM     35  C   UNL     1      -5.478  12.985  23.892  0.00  0.00    +0.000 C 
ATOM     36  C   UNL     1      -4.501  14.132  24.137  0.00  0.00    +0.000 C 
ENDBRANCH  30  31
ENDBRANCH  28  30
ENDBRANCH  27  28
ENDBRANCH  14  27
TORSDOF 9
ENDMDL
MODEL 3
REMARK VINA RESULT:      -6.1      0.993      1.160
REMARK  Name = 
REMARK  12 active torsions:
REMARK  status: ('A' for Active; 'I' for Inactive)
REMARK    1  A    between atoms: C_1  and  C_2
REMARK    2  A    between atoms: N_4  and  C_5
REMARK    3  A    between atoms: C_5  and  C_6
REMARK    4  A    between atoms: C_5  and  C_7
REMARK    5  A    between atoms: C_7  and  O_8
REMARK    6  A    between atoms: C_15  and  N_16
REMARK    7  A    between atoms: C_17  and  C_19
REMARK    8  A    between atoms: C_24  and  C_25
REMARK    9  A    between atoms: C_25  and  N_26
REMARK   10  A    between atoms: N_26  and  C_27
REMARK   11  A    between atoms: N_26  and  C_28
REMARK   12  A    between atoms: C_28  and  C_29
REMARK                            x       y       z     vdW  Elec       q    Type
REMARK                         _______ _______ _______ _____ _____    ______ ____
ROOT
ATOM      1  C   UNL     1      -1.414  13.575  23.383  0.00  0.00    +0.000 C 
ATOM      2  C   UNL     1      -2.704  13.033  22.725  0.00  0.00    +0.000 C 
ATOM      3  C   UNL     1      -3.916  13.537  23.503  0.00  0.00    +0.000 C 
ATOM      4  N   UNL     1      -4.301  14.900  23.199  0.00  0.00    +0.000 N 
ATOM      5  C   UNL     1      -5.230  15.166  22.192  0.00  0.00    +0.000 C 
ATOM      6  O   UNL     1      -5.655  16.283  21.926  0.00  0.00    +0.000 OA
ATOM      7  C   UNL     1      -5.755  13.995  21.452  0.00  0.00    +0.000 A 
ATOM      8  C   UNL     1      -7.081  13.637  21.695  0.00  0.00    +0.000 A 
ATOM      9  C   UNL     1      -7.601  12.499  21.091  0.00  0.00    +0.000 A 
ATOM     10  C   UNL     1      -6.819  11.767  20.199  0.00  0.00    +0.000 A 
ATOM     11  C   UNL     1      -5.502  12.140  19.896  0.00  0.00    +0.000 A 
ATOM     12  C   UNL     1      -4.939  13.224  20.604  0.00  0.00    +0.000 A 
ATOM     13  O   UNL     1      -3.667  13.653  20.357  0.00  0.00    +0.000 OA
ATOM     14  C   UNL     1      -2.564  13.198  21.187  0.00  0.00    +0.000 C 
ENDROOT
BRANCH  11  15
ATOM     15  N   UNL     1      -4.744  11.477  18.887  0.00  0.00    +0.000 N 
ATOM     16  C   UNL     1      -4.822  11.665  17.518  0.00  0.00    +0.000 C 
ATOM     17  O   UNL     1      -5.492  12.492  16.924  0.00  0.00    +0.000 OA
ATOM     18  H   UNL     1      -4.068  10.817  19.247  0.00  0.00    +0.000 HD
BRANCH  16  19
ATOM     19  C   UNL     1      -3.996  10.691  16.722  0.00  0.00    +0.000 C 
ATOM     20  C   UNL     1      -2.530  11.011  16.492  0.00  0.00    +0.000 C 
ATOM     21  C   UNL     1      -2.913   9.864  17.380  0.00  0.00    +0.000 C 
ENDBRANCH  16  19
ENDBRANCH  11  15
BRANCH   4  22
ATOM     22  C   UNL     1      -3.669  15.988  23.974  0.00  0.00    +0.000 C 
ATOM     23  C   UNL     1      -4.637  16.718  24.905  0.00  0.00    +0.000 C 
BRANCH  22  24
ATOM     24  C   UNL     1      -2.865  16.967  23.095  0.00  0.00    +0.000 C 
BRANCH  24  25
ATOM     25  O   UNL     1      -3.587  18.181  22.869  0.00  0.00    +0.000 OA
ATOM     26  H   UNL     1      -3.212  18.872  23.438  0.00  0.00    +0.000 HD
ENDBRANCH  24  25
ENDBRANCH  22  24
ENDBRANCH   4  22
BRANCH  14  27
ATOM     27  C   UNL     1      -1.951  11.935  20.492  0.00  0.00    +0.000 C 
BRANCH  27  28
ATOM     28  N   UNL     1      -0.615  11.362  20.792  0.00  0.00    +0.000 NA
ATOM     29  C   UNL     1      -0.326  10.114  20.061  0.00  0.00    +0.000 C 
BRANCH  28  30
ATOM     30  C   UNL     1       0.427  12.315  20.327  0.00  0.00    +0.000 C 
BRANCH  30  31
ATOM     31  C   UNL     1       0.528  12.571  18.808  0.00  0.00    +0.000 C 
ATOM     32  C   UNL     1      -0.105  13.901  18.385  0.00  0.00    +0.000 C 
ATOM     33  C   UNL     1       0.635  15.102  18.971  0.00  0.00    +0.000 C 
ATOM     34  C   UNL     1       2.134  15.064  18.669  0.00  0.00    +0.000 C 
ATOM     35  C   UNL     1       2.796  13.719  18.962  0.00  0.00    +0.000 C 
ATOM     36  C   UNL     1       2.006  12.547  18.384  0.00  0.00    +0.000 C 
ENDBRANCH  30  31
ENDBRANCH  28  30
ENDBRANCH  27  28
ENDBRANCH  14  27
TORSDOF 9
ENDMDL
MODEL 4
REMARK VINA RESULT:      -6.0      1.543      2.714
REMARK  Name = 
REMARK  12 active torsions:
REMARK  status: ('A' for Active; 'I' for Inactive)
REMARK    1  A    between atoms: C_1  and  C_2
REMARK    2  A    between atoms: N_4  and  C_5
REMARK    3  A    between atoms: C_5  and  C_6
REMARK    4  A    between atoms: C_5  and  C_7
REMARK    5  A    between atoms: C_7  and  O_8
REMARK    6  A    between atoms: C_15  and  N_16
REMARK    7  A    between atoms: C_17  and  C_19
REMARK    8  A    between atoms: C_24  and  C_25
REMARK    9  A    between atoms: C_25  and  N_26
REMARK   10  A    between atoms: N_26  and  C_27
REMARK   11  A    between atoms: N_26  and  C_28
REMARK   12  A    between atoms: C_28  and  C_29
REMARK                            x       y       z     vdW  Elec       q    Type
REMARK                         _______ _______ _______ _____ _____    ______ ____
ROOT
ATOM      1  C   UNL     1      -1.290  14.349  23.033  0.00  0.00    +0.000 C 
ATOM      2  C   UNL     1      -2.592  13.629  22.609  0.00  0.00    +0.000 C 
ATOM      3  C   UNL     1      -3.698  13.960  23.607  0.00  0.00    +0.000 C 
ATOM      4  N   UNL     1      -4.316  15.255  23.411  0.00  0.00    +0.000 N 
ATOM      5  C   UNL     1      -5.443  15.385  22.598  0.00  0.00    +0.000 C 
ATOM      6  O   UNL     1      -6.061  16.430  22.440  0.00  0.00    +0.000 OA
ATOM      7  C   UNL     1      -5.929  14.150  21.940  0.00  0.00    +0.000 A 
ATOM      8  C   UNL     1      -7.125  13.609  22.414  0.00  0.00    +0.000 A 
ATOM      9  C   UNL     1      -7.584  12.409  21.889  0.00  0.00    +0.000 A 
ATOM     10  C   UNL     1      -6.887  11.790  20.852  0.00  0.00    +0.000 A 
ATOM     11  C   UNL     1      -5.713  12.344  20.321  0.00  0.00    +0.000 A 
ATOM     12  C   UNL     1      -5.185  13.499  20.939  0.00  0.00    +0.000 A 
ATOM     13  O   UNL     1      -4.052  14.101  20.472  0.00  0.00    +0.000 OA
ATOM     14  C   UNL     1      -2.763  13.808  21.076  0.00  0.00    +0.000 C 
ENDROOT
BRANCH  11  15
ATOM     15  N   UNL     1      -5.070  11.791  19.175  0.00  0.00    +0.000 N 
ATOM     16  C   UNL     1      -5.324  12.083  17.847  0.00  0.00    +0.000 C 
ATOM     17  O   UNL     1      -6.085  12.929  17.409  0.00  0.00    +0.000 OA
ATOM     18  H   UNL     1      -4.337  11.130  19.394  0.00  0.00    +0.000 HD
BRANCH  16  19
ATOM     19  C   UNL     1      -4.579  11.206  16.878  0.00  0.00    +0.000 C 
ATOM     20  C   UNL     1      -3.079  11.397  16.742  0.00  0.00    +0.000 C 
ATOM     21  C   UNL     1      -3.618  10.143  17.365  0.00  0.00    +0.000 C 
ENDBRANCH  16  19
ENDBRANCH  11  15
BRANCH   4  22
ATOM     22  C   UNL     1      -3.710  16.424  24.081  0.00  0.00    +0.000 C 
ATOM     23  C   UNL     1      -4.622  17.075  25.121  0.00  0.00    +0.000 C 
BRANCH  22  24
ATOM     24  C   UNL     1      -3.133  17.455  23.092  0.00  0.00    +0.000 C 
BRANCH  24  25
ATOM     25  O   UNL     1      -4.003  18.581  22.944  0.00  0.00    +0.000 OA
ATOM     26  H   UNL     1      -4.745  18.479  23.562  0.00  0.00    +0.000 HD
ENDBRANCH  24  25
ENDBRANCH  22  24
ENDBRANCH   4  22
BRANCH  14  27
ATOM     27  C   UNL     1      -2.120  12.642  20.252  0.00  0.00    +0.000 C 
BRANCH  27  28
ATOM     28  N   UNL     1      -0.987  12.792  19.303  0.00  0.00    +0.000 NA
ATOM     29  C   UNL     1      -0.165  13.992  19.545  0.00  0.00    +0.000 C 
BRANCH  28  30
ATOM     30  C   UNL     1      -0.051  11.654  19.495  0.00  0.00    +0.000 C 
BRANCH  30  31
ATOM     31  C   UNL     1      -0.602  10.233  19.248  0.00  0.00    +0.000 C 
ATOM     32  C   UNL     1      -0.052   9.595  17.967  0.00  0.00    +0.000 C 
ATOM     33  C   UNL     1       1.455   9.356  18.044  0.00  0.00    +0.000 C 
ATOM     34  C   UNL     1       1.854   8.563  19.289  0.00  0.00    +0.000 C 
ATOM     35  C   UNL     1       1.237   9.085  20.586  0.00  0.00    +0.000 C 
ATOM     36  C   UNL     1      -0.263   9.339  20.452  0.00  0.00    +0.000 C 
ENDBRANCH  30  31
ENDBRANCH  28  30
ENDBRANCH  27  28
ENDBRANCH  14  27
TORSDOF 9
ENDMDL
MODEL 5
REMARK VINA RESULT:      -6.0      2.083      5.918
REMARK  Name = 
REMARK  12 active torsions:
REMARK  status: ('A' for Active; 'I' for Inactive)
REMARK    1  A    between atoms: C_1  and  C_2
REMARK    2  A    between atoms: N_4  and  C_5
REMARK    3  A    between atoms: C_5  and  C_6
REMARK    4  A    between atoms: C_5  and  C_7
REMARK    5  A    between atoms: C_7  and  O_8
REMARK    6  A    between atoms: C_15  and  N_16
REMARK    7  A    between atoms: C_17  and  C_19
REMARK    8  A    between atoms: C_24  and  C_25
REMARK    9  A    between atoms: C_25  and  N_26
REMARK   10  A    between atoms: N_26  and  C_27
REMARK   11  A    between atoms: N_26  and  C_28
REMARK   12  A    between atoms: C_28  and  C_29
REMARK                            x       y       z     vdW  Elec       q    Type
REMARK                         _______ _______ _______ _____ _____    ______ ____
ROOT
ATOM      1  C   UNL     1      -0.370  14.581  20.522  0.00  0.00    +0.000 C 
ATOM      2  C   UNL     1      -1.361  13.938  19.525  0.00  0.00    +0.000 C 
ATOM      3  C   UNL     1      -0.584  13.358  18.347  0.00  0.00    +0.000 C 
ATOM      4  N   UNL     1       0.031  12.073  18.608  0.00  0.00    +0.000 N 
ATOM      5  C   UNL     1      -0.656  10.890  18.332  0.00  0.00    +0.000 C 
ATOM      6  O   UNL     1      -0.178   9.770  18.460  0.00  0.00    +0.000 OA
ATOM      7  C   UNL     1      -2.033  11.034  17.802  0.00  0.00    +0.000 A 
ATOM      8  C   UNL     1      -2.230  10.708  16.460  0.00  0.00    +0.000 A 
ATOM      9  C   UNL     1      -3.481  10.901  15.889  0.00  0.00    +0.000 A 
ATOM     10  C   UNL     1      -4.541  11.354  16.675  0.00  0.00    +0.000 A 
ATOM     11  C   UNL     1      -4.380  11.635  18.039  0.00  0.00    +0.000 A 
ATOM     12  C   UNL     1      -3.080  11.553  18.585  0.00  0.00    +0.000 A 
ATOM     13  O   UNL     1      -2.846  11.800  19.906  0.00  0.00    +0.000 OA
ATOM     14  C   UNL     1      -2.394  13.112  20.338  0.00  0.00    +0.000 C 
ENDROOT
BRANCH  11  15
ATOM     15  N   UNL     1      -5.485  11.967  18.875  0.00  0.00    +0.000 N 
ATOM     16  C   UNL     1      -6.508  11.131  19.288  0.00  0.00    +0.000 C 
ATOM     17  O   UNL     1      -6.611   9.934  19.082  0.00  0.00    +0.000 OA
ATOM     18  H   UNL     1      -5.479  12.923  19.205  0.00  0.00    +0.000 HD
BRANCH  16  19
ATOM     19  C   UNL     1      -7.605  11.837  20.037  0.00  0.00    +0.000 C 
ATOM     20  C   UNL     1      -7.465  11.990  21.541  0.00  0.00    +0.000 C 
ATOM     21  C   UNL     1      -7.378  13.199  20.656  0.00  0.00    +0.000 C 
ENDBRANCH  16  19
ENDBRANCH  11  15
BRANCH   4  22
ATOM     22  C   UNL     1       1.391  12.058  19.185  0.00  0.00    +0.000 C 
ATOM     23  C   UNL     1       1.408  11.918  20.708  0.00  0.00    +0.000 C 
BRANCH  22  24
ATOM     24  C   UNL     1       2.264  13.233  18.704  0.00  0.00    +0.000 C 
BRANCH  24  25
ATOM     25  O   UNL     1       3.047  13.775  19.772  0.00  0.00    +0.000 OA
ATOM     26  H   UNL     1       2.509  13.771  20.581  0.00  0.00    +0.000 HD
ENDBRANCH  24  25
ENDBRANCH  22  24
ENDBRANCH   4  22
BRANCH  14  27
ATOM     27  C   UNL     1      -3.669  13.938  20.721  0.00  0.00    +0.000 C 
BRANCH  27  28
ATOM     28  N   UNL     1      -4.203  14.094  22.097  0.00  0.00    +0.000 NA
ATOM     29  C   UNL     1      -4.133  12.862  22.905  0.00  0.00    +0.000 C 
BRANCH  28  30
ATOM     30  C   UNL     1      -3.353  15.069  22.830  0.00  0.00    +0.000 C 
BRANCH  30  31
ATOM     31  C   UNL     1      -2.687  14.587  24.137  0.00  0.00    +0.000 C 
ATOM     32  C   UNL     1      -1.156  14.633  24.077  0.00  0.00    +0.000 C 
ATOM     33  C   UNL     1      -0.627  16.060  23.944  0.00  0.00    +0.000 C 
ATOM     34  C   UNL     1      -1.181  16.987  25.027  0.00  0.00    +0.000 C 
ATOM     35  C   UNL     1      -2.695  16.896  25.212  0.00  0.00    +0.000 C 
ATOM     36  C   UNL     1      -3.180  15.452  25.309  0.00  0.00    +0.000 C 
ENDBRANCH  30  31
ENDBRANCH  28  30
ENDBRANCH  27  28
ENDBRANCH  14  27
TORSDOF 9
ENDMDL
MODEL 6
REMARK VINA RESULT:      -5.9      2.059      5.757
REMARK  Name = 
REMARK  12 active torsions:
REMARK  status: ('A' for Active; 'I' for Inactive)
REMARK    1  A    between atoms: C_1  and  C_2
REMARK    2  A    between atoms: N_4  and  C_5
REMARK    3  A    between atoms: C_5  and  C_6
REMARK    4  A    between atoms: C_5  and  C_7
REMARK    5  A    between atoms: C_7  and  O_8
REMARK    6  A    between atoms: C_15  and  N_16
REMARK    7  A    between atoms: C_17  and  C_19
REMARK    8  A    between atoms: C_24  and  C_25
REMARK    9  A    between atoms: C_25  and  N_26
REMARK   10  A    between atoms: N_26  and  C_27
REMARK   11  A    between atoms: N_26  and  C_28
REMARK   12  A    between atoms: C_28  and  C_29
REMARK                            x       y       z     vdW  Elec       q    Type
REMARK                         _______ _______ _______ _____ _____    ______ ____
ROOT
ATOM      1  C   UNL     1      -2.969  12.123  19.387  0.00  0.00    +0.000 C 
ATOM      2  C   UNL     1      -3.752  13.018  20.375  0.00  0.00    +0.000 C 
ATOM      3  C   UNL     1      -5.172  13.221  19.853  0.00  0.00    +0.000 C 
ATOM      4  N   UNL     1      -6.069  12.111  20.104  0.00  0.00    +0.000 N 
ATOM      5  C   UNL     1      -6.838  12.072  21.267  0.00  0.00    +0.000 C 
ATOM      6  O   UNL     1      -7.667  11.206  21.516  0.00  0.00    +0.000 OA
ATOM      7  C   UNL     1      -6.655  13.194  22.218  0.00  0.00    +0.000 A 
ATOM      8  C   UNL     1      -7.702  14.110  22.323  0.00  0.00    +0.000 A 
ATOM      9  C   UNL     1      -7.551  15.225  23.138  0.00  0.00    +0.000 A 
ATOM     10  C   UNL     1      -6.389  15.383  23.892  0.00  0.00    +0.000 A 
ATOM     11  C   UNL     1      -5.347  14.446  23.846  0.00  0.00    +0.000 A 
ATOM     12  C   UNL     1      -5.453  13.380  22.925  0.00  0.00    +0.000 A 
ATOM     13  O   UNL     1      -4.485  12.422  22.830  0.00  0.00    +0.000 OA
ATOM     14  C   UNL     1      -3.450  12.524  21.815  0.00  0.00    +0.000 C 
ENDROOT
BRANCH  11  15
ATOM     15  N   UNL     1      -4.218  14.531  24.712  0.00  0.00    +0.000 N 
ATOM     16  C   UNL     1      -3.433  15.642  24.963  0.00  0.00    +0.000 C 
ATOM     17  O   UNL     1      -3.609  16.778  24.555  0.00  0.00    +0.000 OA
ATOM     18  H   UNL     1      -4.008  13.670  25.200  0.00  0.00    +0.000 HD
BRANCH  16  19
ATOM     19  C   UNL     1      -2.222  15.354  25.807  0.00  0.00    +0.000 C 
ATOM     20  C   UNL     1      -0.850  15.513  25.177  0.00  0.00    +0.000 C 
ATOM     21  C   UNL     1      -1.294  16.464  26.248  0.00  0.00    +0.000 C 
ENDBRANCH  16  19
ENDBRANCH  11  15
BRANCH   4  22
ATOM     22  C   UNL     1      -6.127  11.026  19.103  0.00  0.00    +0.000 C 
ATOM     23  C   UNL     1      -6.989  11.361  17.886  0.00  0.00    +0.000 C 
BRANCH  22  24
ATOM     24  C   UNL     1      -6.497   9.660  19.714  0.00  0.00    +0.000 C 
BRANCH  24  25
ATOM     25  O   UNL     1      -7.678   9.121  19.113  0.00  0.00    +0.000 OA
ATOM     26  H   UNL     1      -7.720   9.424  18.191  0.00  0.00    +0.000 HD
ENDBRANCH  24  25
ENDBRANCH  22  24
ENDBRANCH   4  22
BRANCH  14  27
ATOM     27  C   UNL     1      -2.232  13.262  22.469  0.00  0.00    +0.000 C 
BRANCH  27  28
ATOM     28  N   UNL     1      -0.926  12.632  22.788  0.00  0.00    +0.000 NA
ATOM     29  C   UNL     1      -1.002  11.173  22.988  0.00  0.00    +0.000 C 
BRANCH  28  30
ATOM     30  C   UNL     1      -0.017  12.801  21.624  0.00  0.00    +0.000 C 
BRANCH  30  31
ATOM     31  C   UNL     1       0.290  14.244  21.168  0.00  0.00    +0.000 C 
ATOM     32  C   UNL     1       1.725  14.676  21.489  0.00  0.00    +0.000 C 
ATOM     33  C   UNL     1       2.759  13.859  20.717  0.00  0.00    +0.000 C 
ATOM     34  C   UNL     1       2.490  13.857  19.211  0.00  0.00    +0.000 C 
ATOM     35  C   UNL     1       1.042  13.546  18.836  0.00  0.00    +0.000 C 
ATOM     36  C   UNL     1       0.045  14.363  19.655  0.00  0.00    +0.000 C 
ENDBRANCH  30  31
ENDBRANCH  28  30
ENDBRANCH  27  28
ENDBRANCH  14  27
TORSDOF 9
ENDMDL
MODEL 7
REMARK VINA RESULT:      -5.9      2.171      6.162
REMARK  Name = 
REMARK  12 active torsions:
REMARK  status: ('A' for Active; 'I' for Inactive)
REMARK    1  A    between atoms: C_1  and  C_2
REMARK    2  A    between atoms: N_4  and  C_5
REMARK    3  A    between atoms: C_5  and  C_6
REMARK    4  A    between atoms: C_5  and  C_7
REMARK    5  A    between atoms: C_7  and  O_8
REMARK    6  A    between atoms: C_15  and  N_16
REMARK    7  A    between atoms: C_17  and  C_19
REMARK    8  A    between atoms: C_24  and  C_25
REMARK    9  A    between atoms: C_25  and  N_26
REMARK   10  A    between atoms: N_26  and  C_27
REMARK   11  A    between atoms: N_26  and  C_28
REMARK   12  A    between atoms: C_28  and  C_29
REMARK                            x       y       z     vdW  Elec       q    Type
REMARK                         _______ _______ _______ _____ _____    ______ ____
ROOT
ATOM      1  C   UNL     1      -0.116  14.686  20.424  0.00  0.00    +0.000 C 
ATOM      2  C   UNL     1      -1.230  14.063  19.552  0.00  0.00    +0.000 C 
ATOM      3  C   UNL     1      -0.594  13.269  18.414  0.00  0.00    +0.000 C 
ATOM      4  N   UNL     1      -0.116  11.955  18.791  0.00  0.00    +0.000 N 
ATOM      5  C   UNL     1      -0.949  10.841  18.683  0.00  0.00    +0.000 C 
ATOM      6  O   UNL     1      -0.595   9.692  18.916  0.00  0.00    +0.000 OA
ATOM      7  C   UNL     1      -2.328  11.091  18.203  0.00  0.00    +0.000 A 
ATOM      8  C   UNL     1      -2.640  10.648  16.917  0.00  0.00    +0.000 A 
ATOM      9  C   UNL     1      -3.892  10.928  16.386  0.00  0.00    +0.000 A 
ATOM     10  C   UNL     1      -4.845  11.587  17.161  0.00  0.00    +0.000 A 
ATOM     11  C   UNL     1      -4.574  11.991  18.476  0.00  0.00    +0.000 A 
ATOM     12  C   UNL     1      -3.262  11.813  18.968  0.00  0.00    +0.000 A 
ATOM     13  O   UNL     1      -2.924  12.172  20.241  0.00  0.00    +0.000 OA
ATOM     14  C   UNL     1      -2.301  13.459  20.500  0.00  0.00    +0.000 C 
ENDROOT
BRANCH  11  15
ATOM     15  N   UNL     1      -5.583  12.542  19.319  0.00  0.00    +0.000 N 
ATOM     16  C   UNL     1      -6.497  11.853  20.096  0.00  0.00    +0.000 C 
ATOM     17  O   UNL     1      -6.557  10.648  20.271  0.00  0.00    +0.000 OA
ATOM     18  H   UNL     1      -5.590  13.553  19.346  0.00  0.00    +0.000 HD
BRANCH  16  19
ATOM     19  C   UNL     1      -7.531  12.733  20.744  0.00  0.00    +0.000 C 
ATOM     20  C   UNL     1      -7.186  13.393  22.067  0.00  0.00    +0.000 C 
ATOM     21  C   UNL     1      -7.337  14.231  20.832  0.00  0.00    +0.000 C 
ENDBRANCH  16  19
ENDBRANCH  11  15
BRANCH   4  22
ATOM     22  C   UNL     1       1.265  11.840  19.304  0.00  0.00    +0.000 C 
ATOM     23  C   UNL     1       1.354  11.862  20.830  0.00  0.00    +0.000 C 
BRANCH  22  24
ATOM     24  C   UNL     1       2.237  12.845  18.655  0.00  0.00    +0.000 C 
BRANCH  24  25
ATOM     25  O   UNL     1       2.610  12.435  17.337  0.00  0.00    +0.000 OA
ATOM     26  H   UNL     1       3.450  12.865  17.107  0.00  0.00    +0.000 HD
ENDBRANCH  24  25
ENDBRANCH  22  24
ENDBRANCH   4  22
BRANCH  14  27
ATOM     27  C   UNL     1      -3.449  14.469  20.843  0.00  0.00    +0.000 C 
BRANCH  27  28
ATOM     28  N   UNL     1      -3.274  15.933  21.013  0.00  0.00    +0.000 NA
ATOM     29  C   UNL     1      -4.534  16.695  20.936  0.00  0.00    +0.000 C 
BRANCH  28  30
ATOM     30  C   UNL     1      -2.763  16.196  22.384  0.00  0.00    +0.000 C 
BRANCH  30  31
ATOM     31  C   UNL     1      -3.317  15.319  23.528  0.00  0.00    +0.000 C 
ATOM     32  C   UNL     1      -2.245  14.434  24.172  0.00  0.00    +0.000 C 
ATOM     33  C   UNL     1      -1.168  15.255  24.878  0.00  0.00    +0.000 C 
ATOM     34  C   UNL     1      -1.759  16.250  25.879  0.00  0.00    +0.000 C 
ATOM     35  C   UNL     1      -2.915  17.081  25.323  0.00  0.00    +0.000 C 
ATOM     36  C   UNL     1      -3.949  16.222  24.600  0.00  0.00    +0.000 C 
ENDBRANCH  30  31
ENDBRANCH  28  30
ENDBRANCH  27  28
ENDBRANCH  14  27
TORSDOF 9
ENDMDL
MODEL 8
REMARK VINA RESULT:      -5.8      1.321      2.528
REMARK  Name = 
REMARK  12 active torsions:
REMARK  status: ('A' for Active; 'I' for Inactive)
REMARK    1  A    between atoms: C_1  and  C_2
REMARK    2  A    between atoms: N_4  and  C_5
REMARK    3  A    between atoms: C_5  and  C_6
REMARK    4  A    between atoms: C_5  and  C_7
REMARK    5  A    between atoms: C_7  and  O_8
REMARK    6  A    between atoms: C_15  and  N_16
REMARK    7  A    between atoms: C_17  and  C_19
REMARK    8  A    between atoms: C_24  and  C_25
REMARK    9  A    between atoms: C_25  and  N_26
REMARK   10  A    between atoms: N_26  and  C_27
REMARK   11  A    between atoms: N_26  and  C_28
REMARK   12  A    between atoms: C_28  and  C_29
REMARK                            x       y       z     vdW  Elec       q    Type
REMARK                         _______ _______ _______ _____ _____    ______ ____
ROOT
ATOM      1  C   UNL     1      -1.232  13.466  23.134  0.00  0.00    +0.000 C 
ATOM      2  C   UNL     1      -2.588  13.103  22.486  0.00  0.00    +0.000 C 
ATOM      3  C   UNL     1      -3.700  13.269  23.518  0.00  0.00    +0.000 C 
ATOM      4  N   UNL     1      -4.132  14.636  23.722  0.00  0.00    +0.000 N 
ATOM      5  C   UNL     1      -5.180  15.166  22.969  0.00  0.00    +0.000 C 
ATOM      6  O   UNL     1      -5.647  16.287  23.131  0.00  0.00    +0.000 OA
ATOM      7  C   UNL     1      -5.782  14.272  21.952  0.00  0.00    +0.000 A 
ATOM      8  C   UNL     1      -7.065  13.789  22.214  0.00  0.00    +0.000 A 
ATOM      9  C   UNL     1      -7.644  12.883  21.336  0.00  0.00    +0.000 A 
ATOM     10  C   UNL     1      -6.971  12.517  20.171  0.00  0.00    +0.000 A 
ATOM     11  C   UNL     1      -5.705  13.032  19.858  0.00  0.00    +0.000 A 
ATOM     12  C   UNL     1      -5.070  13.857  20.812  0.00  0.00    +0.000 A 
ATOM     13  O   UNL     1      -3.842  14.405  20.575  0.00  0.00    +0.000 OA
ATOM     14  C   UNL     1      -2.641  13.762  21.081  0.00  0.00    +0.000 C 
ENDROOT
BRANCH  11  15
ATOM     15  N   UNL     1      -5.072  12.768  18.608  0.00  0.00    +0.000 N 
ATOM     16  C   UNL     1      -5.030  11.566  17.925  0.00  0.00    +0.000 C 
ATOM     17  O   UNL     1      -5.598  10.529  18.221  0.00  0.00    +0.000 OA
ATOM     18  H   UNL     1      -4.632  13.577  18.191  0.00  0.00    +0.000 HD
BRANCH  16  19
ATOM     19  C   UNL     1      -4.144  11.587  16.710  0.00  0.00    +0.000 C 
ATOM     20  C   UNL     1      -2.811  10.865  16.779  0.00  0.00    +0.000 C 
ATOM     21  C   UNL     1      -3.902  10.334  15.897  0.00  0.00    +0.000 C 
ENDBRANCH  16  19
ENDBRANCH  11  15
BRANCH   4  22
ATOM     22  C   UNL     1      -3.420  15.446  24.731  0.00  0.00    +0.000 C 
ATOM     23  C   UNL     1      -2.456  16.468  24.127  0.00  0.00    +0.000 C 
BRANCH  22  24
ATOM     24  C   UNL     1      -2.747  14.594  25.825  0.00  0.00    +0.000 C 
BRANCH  24  25
ATOM     25  O   UNL     1      -1.651  15.288  26.429  0.00  0.00    +0.000 OA
ATOM     26  H   UNL     1      -0.923  14.659  26.559  0.00  0.00    +0.000 HD
ENDBRANCH  24  25
ENDBRANCH  22  24
ENDBRANCH   4  22
BRANCH  14  27
ATOM     27  C   UNL     1      -2.106  12.822  19.947  0.00  0.00    +0.000 C 
BRANCH  27  28
ATOM     28  N   UNL     1      -0.799  12.975  19.260  0.00  0.00    +0.000 NA
ATOM     29  C   UNL     1      -0.014  14.133  19.726  0.00  0.00    +0.000 C 
BRANCH  28  30
ATOM     30  C   UNL     1       0.049  11.797  19.582  0.00  0.00    +0.000 C 
BRANCH  30  31
ATOM     31  C   UNL     1      -0.569  10.398  19.366  0.00  0.00    +0.000 C 
ATOM     32  C   UNL     1       0.107   9.618  18.232  0.00  0.00    +0.000 C 
ATOM     33  C   UNL     1       1.565   9.289  18.549  0.00  0.00    +0.000 C 
ATOM     34  C   UNL     1       1.720   8.583  19.897  0.00  0.00    +0.000 C 
ATOM     35  C   UNL     1       0.968   9.255  21.044  0.00  0.00    +0.000 C 
ATOM     36  C   UNL     1      -0.474   9.592  20.671  0.00  0.00    +0.000 C 
ENDBRANCH  30  31
ENDBRANCH  28  30
ENDBRANCH  27  28
ENDBRANCH  14  27
TORSDOF 9
ENDMDL
MODEL 9
REMARK VINA RESULT:      -5.7      9.445     12.897
REMARK  Name = 
REMARK  12 active torsions:
REMARK  status: ('A' for Active; 'I' for Inactive)
REMARK    1  A    between atoms: C_1  and  C_2
REMARK    2  A    between atoms: N_4  and  C_5
REMARK    3  A    between atoms: C_5  and  C_6
REMARK    4  A    between atoms: C_5  and  C_7
REMARK    5  A    between atoms: C_7  and  O_8
REMARK    6  A    between atoms: C_15  and  N_16
REMARK    7  A    between atoms: C_17  and  C_19
REMARK    8  A    between atoms: C_24  and  C_25
REMARK    9  A    between atoms: C_25  and  N_26
REMARK   10  A    between atoms: N_26  and  C_27
REMARK   11  A    between atoms: N_26  and  C_28
REMARK   12  A    between atoms: C_28  and  C_29
REMARK                            x       y       z     vdW  Elec       q    Type
REMARK                         _______ _______ _______ _____ _____    ______ ____
ROOT
ATOM      1  C   UNL     1       5.021  13.979  22.024  0.00  0.00    +0.000 C 
ATOM      2  C   UNL     1       6.305  14.765  22.376  0.00  0.00    +0.000 C 
ATOM      3  C   UNL     1       6.324  15.053  23.874  0.00  0.00    +0.000 C 
ATOM      4  N   UNL     1       6.747  13.938  24.696  0.00  0.00    +0.000 N 
ATOM      5  C   UNL     1       8.092  13.775  25.029  0.00  0.00    +0.000 C 
ATOM      6  O   UNL     1       8.516  12.900  25.774  0.00  0.00    +0.000 OA
ATOM      7  C   UNL     1       9.036  14.772  24.472  0.00  0.00    +0.000 A 
ATOM      8  C   UNL     1       9.588  15.689  25.368  0.00  0.00    +0.000 A 
ATOM      9  C   UNL     1      10.415  16.696  24.888  0.00  0.00    +0.000 A 
ATOM     10  C   UNL     1      10.739  16.743  23.533  0.00  0.00    +0.000 A 
ATOM     11  C   UNL     1      10.242  15.799  22.623  0.00  0.00    +0.000 A 
ATOM     12  C   UNL     1       9.306  14.852  23.094  0.00  0.00    +0.000 A 
ATOM     13  O   UNL     1       8.786  13.895  22.271  0.00  0.00    +0.000 OA
ATOM     14  C   UNL     1       7.495  14.098  21.634  0.00  0.00    +0.000 C 
ENDROOT
BRANCH  11  15
ATOM     15  N   UNL     1      10.674  15.761  21.265  0.00  0.00    +0.000 N 
ATOM     16  C   UNL     1      10.871  16.834  20.415  0.00  0.00    +0.000 C 
ATOM     17  O   UNL     1      10.792  18.019  20.692  0.00  0.00    +0.000 OA
ATOM     18  H   UNL     1      10.873  14.830  20.923  0.00  0.00    +0.000 HD
BRANCH  16  19
ATOM     19  C   UNL     1      11.178  16.439  18.996  0.00  0.00    +0.000 C 
ATOM     20  C   UNL     1      10.295  16.986  17.889  0.00  0.00    +0.000 C 
ATOM     21  C   UNL     1      11.719  17.446  18.004  0.00  0.00    +0.000 C 
ENDBRANCH  16  19
ENDBRANCH  11  15
BRANCH   4  22
ATOM     22  C   UNL     1       5.718  12.980  25.150  0.00  0.00    +0.000 C 
ATOM     23  C   UNL     1       5.402  13.083  26.642  0.00  0.00    +0.000 C 
BRANCH  22  24
ATOM     24  C   UNL     1       6.012  11.529  24.721  0.00  0.00    +0.000 C 
BRANCH  24  25
ATOM     25  O   UNL     1       5.148  10.602  25.385  0.00  0.00    +0.000 OA
ATOM     26  H   UNL     1       4.292  11.034  25.535  0.00  0.00    +0.000 HD
ENDBRANCH  24  25
ENDBRANCH  22  24
ENDBRANCH   4  22
BRANCH  14  27
ATOM     27  C   UNL     1       7.767  14.731  20.227  0.00  0.00    +0.000 C 
BRANCH  27  28
ATOM     28  N   UNL     1       7.744  13.990  18.940  0.00  0.00    +0.000 NA
ATOM     29  C   UNL     1       7.327  14.812  17.789  0.00  0.00    +0.000 C 
BRANCH  28  30
ATOM     30  C   UNL     1       9.129  13.564  18.611  0.00  0.00    +0.000 C 
BRANCH  30  31
ATOM     31  C   UNL     1       9.398  12.047  18.501  0.00  0.00    +0.000 C 
ATOM     32  C   UNL     1      10.604  11.718  17.615  0.00  0.00    +0.000 C 
ATOM     33  C   UNL     1      11.912  12.242  18.206  0.00  0.00    +0.000 C 
ATOM     34  C   UNL     1      12.124  11.780  19.648  0.00  0.00    +0.000 C 
ATOM     35  C   UNL     1      10.907  11.976  20.552  0.00  0.00    +0.000 C 
ATOM     36  C   UNL     1       9.620  11.466  19.907  0.00  0.00    +0.000 C 
ENDBRANCH  30  31
ENDBRANCH  28  30
ENDBRANCH  27  28
ENDBRANCH  14  27
TORSDOF 9
ENDMDL
