MODEL 1
REMARK VINA RESULT:      -6.4      0.000      0.000
REMARK  Name = 
REMARK  6 active torsions:
REMARK  status: ('A' for Active; 'I' for Inactive)
REMARK    1  A    between atoms: C_1  and  C_2
REMARK    2  A    between atoms: C_2  and  O_3
REMARK    3  A    between atoms: O_3  and  C_4
REMARK    4  A    between atoms: C_4  and  C_5
REMARK    5  A    between atoms: C_13  and  S_14
REMARK    6  A    between atoms: S_14  and  C_15
REMARK                            x       y       z     vdW  Elec       q    Type
REMARK                         _______ _______ _______ _____ _____    ______ ____
ROOT
ATOM      1  C   UNL     1       6.199   5.354  16.105  0.00  0.00    +0.000 C 
ATOM      2  O   UNL     1       6.498   6.541  16.192  0.00  0.00    +0.000 OA
ATOM      3  N   UNL     1       5.186   4.699  16.779  0.00  0.00    +0.000 N 
ATOM      4  C   UNL     1       4.272   5.304  17.604  0.00  0.00    +0.000 A 
ATOM      5  N   UNL     1       3.583   4.637  18.499  0.00  0.00    +0.000 NA
ATOM      6  C   UNL     1       2.814   5.523  19.241  0.00  0.00    +0.000 A 
ATOM      7  C   UNL     1       2.019   5.205  20.363  0.00  0.00    +0.000 A 
ATOM      8  C   UNL     1       1.322   6.219  21.036  0.00  0.00    +0.000 A 
ATOM      9  C   UNL     1       1.405   7.537  20.587  0.00  0.00    +0.000 A 
ATOM     10  C   UNL     1       2.154   7.880  19.456  0.00  0.00    +0.000 A 
ATOM     11  C   UNL     1       2.864   6.852  18.816  0.00  0.00    +0.000 A 
ATOM     12  S   UNL     1       3.904   6.960  17.457  0.00  0.00    +0.000 S 
ATOM     13  H   UNL     1       5.187   3.689  16.811  0.00  0.00    +0.000 HD
ENDROOT
BRANCH   9  14
ATOM     14  S   UNL     1       0.489   8.816  21.424  0.00  0.00    +0.000 S 
ATOM     15  C   UNL     1       0.153   9.997  20.143  0.00  0.00    +0.000 C 
ATOM     16  O   UNL     1      -0.771   8.239  21.847  0.00  0.00    +0.000 OA
ATOM     17  O   UNL     1       1.387   9.429  22.384  0.00  0.00    +0.000 OA
ENDBRANCH   9  14
BRANCH   1  18
ATOM     18  C   UNL     1       6.994   4.423  15.190  0.00  0.00    +0.000 C 
BRANCH  18  19
ATOM     19  O   UNL     1       6.833   4.711  13.808  0.00  0.00    +0.000 OA
BRANCH  19  21
ATOM     20  C   UNL     1       6.692   3.284  11.896  0.00  0.00    +0.000 C 
ATOM     21  C   UNL     1       5.996   3.750  13.156  0.00  0.00    +0.000 C 
ENDBRANCH  19  21
ENDBRANCH  18  19
ENDBRANCH   1  18
TORSDOF 4
ENDMDL
MODEL 2
REMARK VINA RESULT:      -6.2      1.225      1.480
REMARK  Name = 
REMARK  6 active torsions:
REMARK  status: ('A' for Active; 'I' for Inactive)
REMARK    1  A    between atoms: C_1  and  C_2
REMARK    2  A    between atoms: C_2  and  O_3
REMARK    3  A    between atoms: O_3  and  C_4
REMARK    4  A    between atoms: C_4  and  C_5
REMARK    5  A    between atoms: C_13  and  S_14
REMARK    6  A    between atoms: S_14  and  C_15
REMARK                            x       y       z     vdW  Elec       q    Type
REMARK                         _______ _______ _______ _____ _____    ______ ____
ROOT
ATOM      1  C   UNL     1       5.688   5.572  16.230  0.00  0.00    +0.000 C 
ATOM      2  O   UNL     1       5.984   6.753  16.071  0.00  0.00    +0.000 OA
ATOM      3  N   UNL     1       4.720   5.063  17.074  0.00  0.00    +0.000 N 
ATOM      4  C   UNL     1       3.852   5.819  17.821  0.00  0.00    +0.000 A 
ATOM      5  N   UNL     1       3.221   5.339  18.866  0.00  0.00    +0.000 NA
ATOM      6  C   UNL     1       2.490   6.354  19.467  0.00  0.00    +0.000 A 
ATOM      7  C   UNL     1       1.764   6.261  20.674  0.00  0.00    +0.000 A 
ATOM      8  C   UNL     1       1.101   7.387  21.180  0.00  0.00    +0.000 A 
ATOM      9  C   UNL     1       1.149   8.595  20.484  0.00  0.00    +0.000 A 
ATOM     10  C   UNL     1       1.829   8.711  19.267  0.00  0.00    +0.000 A 
ATOM     11  C   UNL     1       2.507   7.577  18.794  0.00  0.00    +0.000 A 
ATOM     12  S   UNL     1       3.465   7.418  17.382  0.00  0.00    +0.000 S 
ATOM     13  H   UNL     1       4.730   4.078  17.299  0.00  0.00    +0.000 HD
ENDROOT
BRANCH   9  14
ATOM     14  S   UNL     1       0.275  10.014  21.113  0.00  0.00    +0.000 S 
ATOM     15  C   UNL     1      -0.482   9.415  22.601  0.00  0.00    +0.000 C 
ATOM     16  O   UNL     1       1.267  11.005  21.479  0.00  0.00    +0.000 OA
ATOM     17  O   UNL     1      -0.775  10.328  20.162  0.00  0.00    +0.000 OA
ENDBRANCH   9  14
BRANCH   1  18
ATOM     18  C   UNL     1       6.434   4.480  15.465  0.00  0.00    +0.000 C 
BRANCH  18  19
ATOM     19  O   UNL     1       5.686   3.925  14.391  0.00  0.00    +0.000 OA
BRANCH  19  21
ATOM     20  C   UNL     1       5.614   3.192  12.117  0.00  0.00    +0.000 C 
ATOM     21  C   UNL     1       6.448   3.874  13.181  0.00  0.00    +0.000 C 
ENDBRANCH  19  21
ENDBRANCH  18  19
ENDBRANCH   1  18
TORSDOF 4
ENDMDL
MODEL 3
REMARK VINA RESULT:      -6.1      3.418      8.819
REMARK  Name = 
REMARK  6 active torsions:
REMARK  status: ('A' for Active; 'I' for Inactive)
REMARK    1  A    between atoms: C_1  and  C_2
REMARK    2  A    between atoms: C_2  and  O_3
REMARK    3  A    between atoms: O_3  and  C_4
REMARK    4  A    between atoms: C_4  and  C_5
REMARK    5  A    between atoms: C_13  and  S_14
REMARK    6  A    between atoms: S_14  and  C_15
REMARK                            x       y       z     vdW  Elec       q    Type
REMARK                         _______ _______ _______ _____ _____    ______ ____
ROOT
ATOM      1  C   UNL     1       0.155  10.914  21.735  0.00  0.00    +0.000 C 
ATOM      2  O   UNL     1       0.515  10.335  22.756  0.00  0.00    +0.000 OA
ATOM      3  N   UNL     1       0.417  10.540  20.431  0.00  0.00    +0.000 N 
ATOM      4  C   UNL     1       1.057   9.386  20.057  0.00  0.00    +0.000 A 
ATOM      5  N   UNL     1       1.613   9.241  18.878  0.00  0.00    +0.000 NA
ATOM      6  C   UNL     1       2.259   8.013  18.823  0.00  0.00    +0.000 A 
ATOM      7  C   UNL     1       3.060   7.536  17.763  0.00  0.00    +0.000 A 
ATOM      8  C   UNL     1       3.682   6.284  17.867  0.00  0.00    +0.000 A 
ATOM      9  C   UNL     1       3.497   5.506  19.010  0.00  0.00    +0.000 A 
ATOM     10  C   UNL     1       2.680   5.934  20.062  0.00  0.00    +0.000 A 
ATOM     11  C   UNL     1       2.090   7.203  19.947  0.00  0.00    +0.000 A 
ATOM     12  S   UNL     1       1.095   8.022  21.077  0.00  0.00    +0.000 S 
ATOM     13  H   UNL     1       0.280  11.212  19.689  0.00  0.00    +0.000 HD
ENDROOT
BRANCH   9  14
ATOM     14  S   UNL     1       4.260   3.900  19.121  0.00  0.00    +0.000 S 
ATOM     15  C   UNL     1       3.971   3.188  17.521  0.00  0.00    +0.000 C 
ATOM     16  O   UNL     1       5.686   4.108  19.271  0.00  0.00    +0.000 OA
ATOM     17  O   UNL     1       3.511   3.136  20.101  0.00  0.00    +0.000 OA
ENDBRANCH   9  14
BRANCH   1  18
ATOM     18  C   UNL     1      -0.656  12.205  21.826  0.00  0.00    +0.000 C 
BRANCH  18  19
ATOM     19  O   UNL     1      -2.060  11.991  21.892  0.00  0.00    +0.000 OA
BRANCH  19  21
ATOM     20  C   UNL     1      -3.752  12.811  23.369  0.00  0.00    +0.000 C 
ATOM     21  C   UNL     1      -2.526  11.930  23.244  0.00  0.00    +0.000 C 
ENDBRANCH  19  21
ENDBRANCH  18  19
ENDBRANCH   1  18
TORSDOF 4
ENDMDL
MODEL 4
REMARK VINA RESULT:      -6.0      2.488      3.547
REMARK  Name = 
REMARK  6 active torsions:
REMARK  status: ('A' for Active; 'I' for Inactive)
REMARK    1  A    between atoms: C_1  and  C_2
REMARK    2  A    between atoms: C_2  and  O_3
REMARK    3  A    between atoms: O_3  and  C_4
REMARK    4  A    between atoms: C_4  and  C_5
REMARK    5  A    between atoms: C_13  and  S_14
REMARK    6  A    between atoms: S_14  and  C_15
REMARK                            x       y       z     vdW  Elec       q    Type
REMARK                         _______ _______ _______ _____ _____    ______ ____
ROOT
ATOM      1  C   UNL     1       3.263   4.465  18.093  0.00  0.00    +0.000 C 
ATOM      2  O   UNL     1       2.506   4.043  18.962  0.00  0.00    +0.000 OA
ATOM      3  N   UNL     1       3.433   5.780  17.704  0.00  0.00    +0.000 N 
ATOM      4  C   UNL     1       2.835   6.860  18.302  0.00  0.00    +0.000 A 
ATOM      5  N   UNL     1       2.714   8.020  17.700  0.00  0.00    +0.000 NA
ATOM      6  C   UNL     1       1.991   8.884  18.511  0.00  0.00    +0.000 A 
ATOM      7  C   UNL     1       1.561  10.186  18.172  0.00  0.00    +0.000 A 
ATOM      8  C   UNL     1       0.803  10.931  19.086  0.00  0.00    +0.000 A 
ATOM      9  C   UNL     1       0.486  10.391  20.332  0.00  0.00    +0.000 A 
ATOM     10  C   UNL     1       0.928   9.118  20.713  0.00  0.00    +0.000 A 
ATOM     11  C   UNL     1       1.662   8.381  19.771  0.00  0.00    +0.000 A 
ATOM     12  S   UNL     1       2.287   6.792  19.913  0.00  0.00    +0.000 S 
ATOM     13  H   UNL     1       3.897   5.980  16.829  0.00  0.00    +0.000 HD
ENDROOT
BRANCH   9  14
ATOM     14  S   UNL     1      -0.447  11.356  21.504  0.00  0.00    +0.000 S 
ATOM     15  C   UNL     1      -0.685  10.244  22.867  0.00  0.00    +0.000 C 
ATOM     16  O   UNL     1       0.407  12.438  21.949  0.00  0.00    +0.000 OA
ATOM     17  O   UNL     1      -1.740  11.625  20.905  0.00  0.00    +0.000 OA
ENDBRANCH   9  14
BRANCH   1  18
ATOM     18  C   UNL     1       4.135   3.498  17.293  0.00  0.00    +0.000 C 
BRANCH  18  19
ATOM     19  O   UNL     1       4.576   4.026  16.049  0.00  0.00    +0.000 OA
BRANCH  19  21
ATOM     20  C   UNL     1       6.323   3.966  14.419  0.00  0.00    +0.000 C 
ATOM     21  C   UNL     1       5.995   3.915  15.896  0.00  0.00    +0.000 C 
ENDBRANCH  19  21
ENDBRANCH  18  19
ENDBRANCH   1  18
TORSDOF 4
ENDMDL
MODEL 5
REMARK VINA RESULT:      -6.0      2.158      2.987
REMARK  Name = 
REMARK  6 active torsions:
REMARK  status: ('A' for Active; 'I' for Inactive)
REMARK    1  A    between atoms: C_1  and  C_2
REMARK    2  A    between atoms: C_2  and  O_3
REMARK    3  A    between atoms: O_3  and  C_4
REMARK    4  A    between atoms: C_4  and  C_5
REMARK    5  A    between atoms: C_13  and  S_14
REMARK    6  A    between atoms: S_14  and  C_15
REMARK                            x       y       z     vdW  Elec       q    Type
REMARK                         _______ _______ _______ _____ _____    ______ ____
ROOT
ATOM      1  C   UNL     1       4.331   5.871  17.068  0.00  0.00    +0.000 C 
ATOM      2  O   UNL     1       4.671   6.917  16.524  0.00  0.00    +0.000 OA
ATOM      3  N   UNL     1       3.459   5.731  18.132  0.00  0.00    +0.000 N 
ATOM      4  C   UNL     1       2.747   6.755  18.704  0.00  0.00    +0.000 A 
ATOM      5  N   UNL     1       2.238   6.668  19.910  0.00  0.00    +0.000 NA
ATOM      6  C   UNL     1       1.657   7.882  20.251  0.00  0.00    +0.000 A 
ATOM      7  C   UNL     1       1.099   8.220  21.503  0.00  0.00    +0.000 A 
ATOM      8  C   UNL     1       0.579   9.505  21.711  0.00  0.00    +0.000 A 
ATOM      9  C   UNL     1       0.602  10.443  20.679  0.00  0.00    +0.000 A 
ATOM     10  C   UNL     1       1.114  10.127  19.416  0.00  0.00    +0.000 A 
ATOM     11  C   UNL     1       1.654   8.844  19.239  0.00  0.00    +0.000 A 
ATOM     12  S   UNL     1       2.398   8.182  17.844  0.00  0.00    +0.000 S 
ATOM     13  H   UNL     1       3.442   4.860  18.644  0.00  0.00    +0.000 HD
ENDROOT
BRANCH   9  14
ATOM     14  S   UNL     1      -0.093  12.062  20.938  0.00  0.00    +0.000 S 
ATOM     15  C   UNL     1      -1.317  11.797  22.196  0.00  0.00    +0.000 C 
ATOM     16  O   UNL     1       0.952  12.897  21.495  0.00  0.00    +0.000 OA
ATOM     17  O   UNL     1      -0.774  12.439  19.714  0.00  0.00    +0.000 OA
ENDBRANCH   9  14
BRANCH   1  18
ATOM     18  C   UNL     1       4.900   4.534  16.595  0.00  0.00    +0.000 C 
BRANCH  18  19
ATOM     19  O   UNL     1       6.316   4.454  16.688  0.00  0.00    +0.000 OA
BRANCH  19  21
ATOM     20  C   UNL     1       6.121   3.941  14.362  0.00  0.00    +0.000 C 
ATOM     21  C   UNL     1       6.945   4.647  15.417  0.00  0.00    +0.000 C 
ENDBRANCH  19  21
ENDBRANCH  18  19
ENDBRANCH   1  18
TORSDOF 4
ENDMDL
MODEL 6
REMARK VINA RESULT:      -6.0      1.679      1.968
REMARK  Name = 
REMARK  6 active torsions:
REMARK  status: ('A' for Active; 'I' for Inactive)
REMARK    1  A    between atoms: C_1  and  C_2
REMARK    2  A    between atoms: C_2  and  O_3
REMARK    3  A    between atoms: O_3  and  C_4
REMARK    4  A    between atoms: C_4  and  C_5
REMARK    5  A    between atoms: C_13  and  S_14
REMARK    6  A    between atoms: S_14  and  C_15
REMARK                            x       y       z     vdW  Elec       q    Type
REMARK                         _______ _______ _______ _____ _____    ______ ____
ROOT
ATOM      1  C   UNL     1       5.616   5.684  16.873  0.00  0.00    +0.000 C 
ATOM      2  O   UNL     1       5.831   6.774  16.353  0.00  0.00    +0.000 OA
ATOM      3  N   UNL     1       4.666   5.392  17.833  0.00  0.00    +0.000 N 
ATOM      4  C   UNL     1       3.727   6.275  18.303  0.00  0.00    +0.000 A 
ATOM      5  N   UNL     1       3.105   6.098  19.445  0.00  0.00    +0.000 NA
ATOM      6  C   UNL     1       2.289   7.192  19.697  0.00  0.00    +0.000 A 
ATOM      7  C   UNL     1       1.541   7.425  20.871  0.00  0.00    +0.000 A 
ATOM      8  C   UNL     1       0.786   8.600  20.997  0.00  0.00    +0.000 A 
ATOM      9  C   UNL     1       0.766   9.530  19.958  0.00  0.00    +0.000 A 
ATOM     10  C   UNL     1       1.466   9.312  18.766  0.00  0.00    +0.000 A 
ATOM     11  C   UNL     1       2.236   8.141  18.674  0.00  0.00    +0.000 A 
ATOM     12  S   UNL     1       3.238   7.623  17.384  0.00  0.00    +0.000 S 
ATOM     13  H   UNL     1       4.740   4.530  18.355  0.00  0.00    +0.000 HD
ENDROOT
BRANCH   9  14
ATOM     14  S   UNL     1      -0.223  11.004  20.108  0.00  0.00    +0.000 S 
ATOM     15  C   UNL     1      -1.499  10.779  18.896  0.00  0.00    +0.000 C 
ATOM     16  O   UNL     1      -0.839  10.979  21.420  0.00  0.00    +0.000 OA
ATOM     17  O   UNL     1       0.605  12.121  19.695  0.00  0.00    +0.000 OA
ENDBRANCH   9  14
BRANCH   1  18
ATOM     18  C   UNL     1       6.458   4.467  16.490  0.00  0.00    +0.000 C 
BRANCH  18  19
ATOM     19  O   UNL     1       6.002   3.807  15.316  0.00  0.00    +0.000 OA
BRANCH  19  21
ATOM     20  C   UNL     1       6.086   3.577  12.939  0.00  0.00    +0.000 C 
ATOM     21  C   UNL     1       6.631   4.323  14.138  0.00  0.00    +0.000 C 
ENDBRANCH  19  21
ENDBRANCH  18  19
ENDBRANCH   1  18
TORSDOF 4
ENDMDL
MODEL 7
REMARK VINA RESULT:      -6.0      3.962      9.054
REMARK  Name = 
REMARK  6 active torsions:
REMARK  status: ('A' for Active; 'I' for Inactive)
REMARK    1  A    between atoms: C_1  and  C_2
REMARK    2  A    between atoms: C_2  and  O_3
REMARK    3  A    between atoms: O_3  and  C_4
REMARK    4  A    between atoms: C_4  and  C_5
REMARK    5  A    between atoms: C_13  and  S_14
REMARK    6  A    between atoms: S_14  and  C_15
REMARK                            x       y       z     vdW  Elec       q    Type
REMARK                         _______ _______ _______ _____ _____    ______ ____
ROOT
ATOM      1  C   UNL     1      -0.682  11.091  22.574  0.00  0.00    +0.000 C 
ATOM      2  O   UNL     1      -0.135  10.436  23.456  0.00  0.00    +0.000 OA
ATOM      3  N   UNL     1      -0.515  10.952  21.209  0.00  0.00    +0.000 N 
ATOM      4  C   UNL     1       0.238   9.976  20.605  0.00  0.00    +0.000 A 
ATOM      5  N   UNL     1       0.676  10.088  19.374  0.00  0.00    +0.000 NA
ATOM      6  C   UNL     1       1.478   8.997  19.071  0.00  0.00    +0.000 A 
ATOM      7  C   UNL     1       2.219   8.805  17.885  0.00  0.00    +0.000 A 
ATOM      8  C   UNL     1       3.018   7.663  17.736  0.00  0.00    +0.000 A 
ATOM      9  C   UNL     1       3.071   6.712  18.755  0.00  0.00    +0.000 A 
ATOM     10  C   UNL     1       2.321   6.854  19.928  0.00  0.00    +0.000 A 
ATOM     11  C   UNL     1       1.549   8.018  20.065  0.00  0.00    +0.000 A 
ATOM     12  S   UNL     1       0.578   8.504  21.391  0.00  0.00    +0.000 S 
ATOM     13  H   UNL     1      -0.825  11.693  20.596  0.00  0.00    +0.000 HD
ENDROOT
BRANCH   9  14
ATOM     14  S   UNL     1       4.059   5.245  18.546  0.00  0.00    +0.000 S 
ATOM     15  C   UNL     1       3.047   3.957  19.228  0.00  0.00    +0.000 C 
ATOM     16  O   UNL     1       4.189   5.011  17.122  0.00  0.00    +0.000 OA
ATOM     17  O   UNL     1       5.232   5.395  19.386  0.00  0.00    +0.000 OA
ENDBRANCH   9  14
BRANCH   1  18
ATOM     18  C   UNL     1      -1.653  12.214  22.935  0.00  0.00    +0.000 C 
BRANCH  18  19
ATOM     19  O   UNL     1      -1.041  13.293  23.630  0.00  0.00    +0.000 OA
BRANCH  19  21
ATOM     20  C   UNL     1       0.278  14.605  22.129  0.00  0.00    +0.000 C 
ATOM     21  C   UNL     1      -1.045  14.497  22.855  0.00  0.00    +0.000 C 
ENDBRANCH  19  21
ENDBRANCH  18  19
ENDBRANCH   1  18
TORSDOF 4
ENDMDL
MODEL 8
REMARK VINA RESULT:      -6.0      3.450      8.159
REMARK  Name = 
REMARK  6 active torsions:
REMARK  status: ('A' for Active; 'I' for Inactive)
REMARK    1  A    between atoms: C_1  and  C_2
REMARK    2  A    between atoms: C_2  and  O_3
REMARK    3  A    between atoms: O_3  and  C_4
REMARK    4  A    between atoms: C_4  and  C_5
REMARK    5  A    between atoms: C_13  and  S_14
REMARK    6  A    between atoms: S_14  and  C_15
REMARK                            x       y       z     vdW  Elec       q    Type
REMARK                         _______ _______ _______ _____ _____    ______ ____
ROOT
ATOM      1  C   UNL     1       0.356  10.813  21.442  0.00  0.00    +0.000 C 
ATOM      2  O   UNL     1       0.733  10.249  22.465  0.00  0.00    +0.000 OA
ATOM      3  N   UNL     1       0.599  10.422  20.139  0.00  0.00    +0.000 N 
ATOM      4  C   UNL     1       1.237   9.264  19.771  0.00  0.00    +0.000 A 
ATOM      5  N   UNL     1       1.775   9.104  18.586  0.00  0.00    +0.000 NA
ATOM      6  C   UNL     1       2.422   7.877  18.538  0.00  0.00    +0.000 A 
ATOM      7  C   UNL     1       3.209   7.387  17.473  0.00  0.00    +0.000 A 
ATOM      8  C   UNL     1       3.834   6.137  17.584  0.00  0.00    +0.000 A 
ATOM      9  C   UNL     1       3.669   5.375  18.740  0.00  0.00    +0.000 A 
ATOM     10  C   UNL     1       2.866   5.816  19.799  0.00  0.00    +0.000 A 
ATOM     11  C   UNL     1       2.272   7.082  19.675  0.00  0.00    +0.000 A 
ATOM     12  S   UNL     1       1.292   7.915  20.809  0.00  0.00    +0.000 S 
ATOM     13  H   UNL     1       0.450  11.084  19.389  0.00  0.00    +0.000 HD
ENDROOT
BRANCH   9  14
ATOM     14  S   UNL     1       4.436   3.772  18.862  0.00  0.00    +0.000 S 
ATOM     15  C   UNL     1       3.522   2.966  20.151  0.00  0.00    +0.000 C 
ATOM     16  O   UNL     1       4.176   3.073  17.620  0.00  0.00    +0.000 OA
ATOM     17  O   UNL     1       5.794   3.980  19.329  0.00  0.00    +0.000 OA
ENDBRANCH   9  14
BRANCH   1  18
ATOM     18  C   UNL     1      -0.457  12.104  21.526  0.00  0.00    +0.000 C 
BRANCH  18  19
ATOM     19  O   UNL     1      -0.759  12.670  20.258  0.00  0.00    +0.000 OA
BRANCH  19  21
ATOM     20  C   UNL     1      -2.572  11.842  18.940  0.00  0.00    +0.000 C 
ATOM     21  C   UNL     1      -2.170  12.789  20.050  0.00  0.00    +0.000 C 
ENDBRANCH  19  21
ENDBRANCH  18  19
ENDBRANCH   1  18
TORSDOF 4
ENDMDL
MODEL 9
REMARK VINA RESULT:      -6.0      3.734      4.681
REMARK  Name = 
REMARK  6 active torsions:
REMARK  status: ('A' for Active; 'I' for Inactive)
REMARK    1  A    between atoms: C_1  and  C_2
REMARK    2  A    between atoms: C_2  and  O_3
REMARK    3  A    between atoms: O_3  and  C_4
REMARK    4  A    between atoms: C_4  and  C_5
REMARK    5  A    between atoms: C_13  and  S_14
REMARK    6  A    between atoms: S_14  and  C_15
REMARK                            x       y       z     vdW  Elec       q    Type
REMARK                         _______ _______ _______ _____ _____    ______ ____
ROOT
ATOM      1  C   UNL     1       4.226   5.319  19.027  0.00  0.00    +0.000 C 
ATOM      2  O   UNL     1       4.790   6.012  18.186  0.00  0.00    +0.000 OA
ATOM      3  N   UNL     1       3.147   5.676  19.812  0.00  0.00    +0.000 N 
ATOM      4  C   UNL     1       2.459   6.859  19.711  0.00  0.00    +0.000 A 
ATOM      5  N   UNL     1       1.708   7.321  20.683  0.00  0.00    +0.000 NA
ATOM      6  C   UNL     1       1.218   8.570  20.330  0.00  0.00    +0.000 A 
ATOM      7  C   UNL     1       0.461   9.435  21.150  0.00  0.00    +0.000 A 
ATOM      8  C   UNL     1       0.063  10.688  20.664  0.00  0.00    +0.000 A 
ATOM      9  C   UNL     1       0.406  11.074  19.369  0.00  0.00    +0.000 A 
ATOM     10  C   UNL     1       1.123  10.226  18.518  0.00  0.00    +0.000 A 
ATOM     11  C   UNL     1       1.532   8.987  19.035  0.00  0.00    +0.000 A 
ATOM     12  S   UNL     1       2.462   7.767  18.271  0.00  0.00    +0.000 S 
ATOM     13  H   UNL     1       2.923   5.120  20.627  0.00  0.00    +0.000 HD
ENDROOT
BRANCH   9  14
ATOM     14  S   UNL     1      -0.132  12.654  18.744  0.00  0.00    +0.000 S 
ATOM     15  C   UNL     1      -0.684  13.512  20.196  0.00  0.00    +0.000 C 
ATOM     16  O   UNL     1       1.038  13.338  18.233  0.00  0.00    +0.000 OA
ATOM     17  O   UNL     1      -1.282  12.411  17.895  0.00  0.00    +0.000 OA
ENDBRANCH   9  14
BRANCH   1  18
ATOM     18  C   UNL     1       4.718   3.901  19.315  0.00  0.00    +0.000 C 
BRANCH  18  19
ATOM     19  O   UNL     1       3.675   2.993  19.644  0.00  0.00    +0.000 OA
BRANCH  19  21
ATOM     20  C   UNL     1       1.682   2.394  18.468  0.00  0.00    +0.000 C 
ATOM     21  C   UNL     1       3.193   2.295  18.492  0.00  0.00    +0.000 C 
ENDBRANCH  19  21
ENDBRANCH  18  19
ENDBRANCH   1  18
TORSDOF 4
ENDMDL
