MODEL 1
REMARK VINA RESULT:      -8.4      0.000      0.000
REMARK  Name = 
REMARK  3 active torsions:
REMARK  status: ('A' for Active; 'I' for Inactive)
REMARK    1  A    between atoms: C_5  and  O_6
REMARK    2  A    between atoms: O_6  and  C_7
REMARK    3  A    between atoms: C_19  and  C_20
REMARK                            x       y       z     vdW  Elec       q    Type
REMARK                         _______ _______ _______ _____ _____    ______ ____
ROOT
ATOM      1  C   UNL     1       1.727   7.763  20.009  0.00  0.00    +0.000 A 
ATOM      2  C   UNL     1       2.258   8.121  18.774  0.00  0.00    +0.000 A 
ATOM      3  C   UNL     1       1.822   9.289  18.144  0.00  0.00    +0.000 A 
ATOM      4  C   UNL     1       0.912  10.148  18.772  0.00  0.00    +0.000 A 
ATOM      5  C   UNL     1       0.404   9.806  20.028  0.00  0.00    +0.000 A 
ATOM      6  C   UNL     1       0.716   8.540  20.567  0.00  0.00    +0.000 A 
ATOM      7  C   UNL     1      -0.533  10.849  20.799  0.00  0.00    +0.000 C 
ATOM      8  O   UNL     1      -0.013  12.091  22.224  0.00  0.00    +0.000 OA
ATOM      9  C   UNL     1      -1.128  13.310  23.058  0.00  0.00    +0.000 C 
ATOM     10  C   UNL     1      -2.623  13.736  21.954  0.00  0.00    +0.000 C 
ATOM     11  C   UNL     1      -2.902  12.735  20.358  0.00  0.00    +0.000 C 
ATOM     12  C   UNL     1      -1.556  11.599  19.657  0.00  0.00    +0.000 C 
ATOM     13  C   UNL     1      -0.269  12.223  18.972  0.00  0.00    +0.000 C 
ATOM     14  N   UNL     1       0.434  11.280  18.120  0.00  0.00    +0.000 N 
ATOM     15  H   UNL     1       1.112  11.696  17.487  0.00  0.00    +0.000 HD
ENDROOT
BRANCH  13  16
ATOM     16  C   UNL     1       0.609  12.706  20.182  0.00  0.00    +0.000 C 
ATOM     17  C   UNL     1       1.943  12.526  19.220  0.00  0.00    +0.000 C 
ATOM     18  C   UNL     1       2.517  14.144  17.958  0.00  0.00    +0.000 C 
ATOM     19  C   UNL     1       2.332  15.902  18.812  0.00  0.00    +0.000 C 
ATOM     20  C   UNL     1       1.323  15.908  20.409  0.00  0.00    +0.000 C 
ATOM     21  C   UNL     1       0.560  14.323  21.066  0.00  0.00    +0.000 C 
ENDBRANCH  13  16
BRANCH   1  22
ATOM     22  O   UNL     1       2.129   6.668  20.737  0.00  0.00    +0.000 OA
BRANCH  22  27
ATOM     23 CL   UNL     1       3.555   1.820  17.679  0.00  0.00    +0.000 Cl
ATOM     24  C   UNL     1       3.136   3.195  18.638  0.00  0.00    +0.000 A 
ATOM     25  C   UNL     1       4.146   4.114  18.934  0.00  0.00    +0.000 A 
ATOM     26  C   UNL     1       3.857   5.263  19.678  0.00  0.00    +0.000 A 
ATOM     27  C   UNL     1       2.543   5.528  20.077  0.00  0.00    +0.000 A 
ATOM     28  C   UNL     1       1.548   4.577  19.837  0.00  0.00    +0.000 A 
ATOM     29  C   UNL     1       1.840   3.413  19.116  0.00  0.00    +0.000 A 
ATOM     30 CL   UNL     1       0.552   2.295  18.837  0.00  0.00    +0.000 Cl
ENDBRANCH  22  27
ENDBRANCH   1  22
TORSDOF 3
ENDMDL
MODEL 2
REMARK VINA RESULT:      -8.2      1.037      1.227
REMARK  Name = 
REMARK  3 active torsions:
REMARK  status: ('A' for Active; 'I' for Inactive)
REMARK    1  A    between atoms: C_5  and  O_6
REMARK    2  A    between atoms: O_6  and  C_7
REMARK    3  A    between atoms: C_19  and  C_20
REMARK                            x       y       z     vdW  Elec       q    Type
REMARK                         _______ _______ _______ _____ _____    ______ ____
ROOT
ATOM      1  C   UNL     1       1.996   8.248  19.570  0.00  0.00    +0.000 A 
ATOM      2  C   UNL     1       2.443   8.782  18.365  0.00  0.00    +0.000 A 
ATOM      3  C   UNL     1       1.866   9.955  17.870  0.00  0.00    +0.000 A 
ATOM      4  C   UNL     1       0.896  10.644  18.607  0.00  0.00    +0.000 A 
ATOM      5  C   UNL     1       0.471  10.127  19.833  0.00  0.00    +0.000 A 
ATOM      6  C   UNL     1       0.931   8.853  20.230  0.00  0.00    +0.000 A 
ATOM      7  C   UNL     1      -0.540  10.981  20.731  0.00  0.00    +0.000 C 
ATOM      8  O   UNL     1      -0.100  12.122  22.263  0.00  0.00    +0.000 OA
ATOM      9  C   UNL     1      -1.305  13.126  23.247  0.00  0.00    +0.000 C 
ATOM     10  C   UNL     1      -2.874  13.500  22.230  0.00  0.00    +0.000 C 
ATOM     11  C   UNL     1      -3.105  12.640  20.547  0.00  0.00    +0.000 C 
ATOM     12  C   UNL     1      -1.676  11.729  19.698  0.00  0.00    +0.000 C 
ATOM     13  C   UNL     1      -0.485  12.552  19.050  0.00  0.00    +0.000 C 
ATOM     14  N   UNL     1       0.280  11.779  18.087  0.00  0.00    +0.000 N 
ATOM     15  H   UNL     1       0.889  12.326  17.485  0.00  0.00    +0.000 HD
ENDROOT
BRANCH  13  16
ATOM     16  C   UNL     1       0.381  13.002  20.281  0.00  0.00    +0.000 C 
ATOM     17  C   UNL     1       1.703  13.004  19.286  0.00  0.00    +0.000 C 
ATOM     18  C   UNL     1       2.124  14.759  18.152  0.00  0.00    +0.000 C 
ATOM     19  C   UNL     1       1.826  16.422  19.152  0.00  0.00    +0.000 C 
ATOM     20  C   UNL     1       0.856  16.221  20.760  0.00  0.00    +0.000 C 
ATOM     21  C   UNL     1       0.230  14.533  21.297  0.00  0.00    +0.000 C 
ENDBRANCH  13  16
BRANCH   1  22
ATOM     22  O   UNL     1       2.535   7.134  20.170  0.00  0.00    +0.000 OA
BRANCH  22  27
ATOM     23 CL   UNL     1       0.659   1.759  18.596  0.00  0.00    +0.000 Cl
ATOM     24  C   UNL     1       1.278   3.300  19.071  0.00  0.00    +0.000 A 
ATOM     25  C   UNL     1       1.559   4.227  18.063  0.00  0.00    +0.000 A 
ATOM     26  C   UNL     1       2.030   5.503  18.391  0.00  0.00    +0.000 A 
ATOM     27  C   UNL     1       2.163   5.879  19.732  0.00  0.00    +0.000 A 
ATOM     28  C   UNL     1       1.944   4.931  20.734  0.00  0.00    +0.000 A 
ATOM     29  C   UNL     1       1.498   3.644  20.409  0.00  0.00    +0.000 A 
ATOM     30 CL   UNL     1       1.226   2.535  21.704  0.00  0.00    +0.000 Cl
ENDBRANCH  22  27
ENDBRANCH   1  22
TORSDOF 3
ENDMDL
MODEL 3
REMARK VINA RESULT:      -8.2      0.604      1.343
REMARK  Name = 
REMARK  3 active torsions:
REMARK  status: ('A' for Active; 'I' for Inactive)
REMARK    1  A    between atoms: C_5  and  O_6
REMARK    2  A    between atoms: O_6  and  C_7
REMARK    3  A    between atoms: C_19  and  C_20
REMARK                            x       y       z     vdW  Elec       q    Type
REMARK                         _______ _______ _______ _____ _____    ______ ____
ROOT
ATOM      1  C   UNL     1       1.629   7.790  20.095  0.00  0.00    +0.000 A 
ATOM      2  C   UNL     1       2.171   8.136  18.860  0.00  0.00    +0.000 A 
ATOM      3  C   UNL     1       1.757   9.310  18.226  0.00  0.00    +0.000 A 
ATOM      4  C   UNL     1       0.862  10.186  18.850  0.00  0.00    +0.000 A 
ATOM      5  C   UNL     1       0.344   9.857  20.106  0.00  0.00    +0.000 A 
ATOM      6  C   UNL     1       0.631   8.586  20.648  0.00  0.00    +0.000 A 
ATOM      7  C   UNL     1      -0.577  10.918  20.871  0.00  0.00    +0.000 C 
ATOM      8  O   UNL     1      -0.038  12.153  22.296  0.00  0.00    +0.000 OA
ATOM      9  C   UNL     1      -1.133  13.394  23.124  0.00  0.00    +0.000 C 
ATOM     10  C   UNL     1      -2.617  13.845  22.014  0.00  0.00    +0.000 C 
ATOM     11  C   UNL     1      -2.909  12.846  20.420  0.00  0.00    +0.000 C 
ATOM     12  C   UNL     1      -1.583  11.684  19.725  0.00  0.00    +0.000 C 
ATOM     13  C   UNL     1      -0.282  12.283  19.043  0.00  0.00    +0.000 C 
ATOM     14  N   UNL     1       0.406  11.326  18.194  0.00  0.00    +0.000 N 
ATOM     15  H   UNL     1       1.093  11.728  17.563  0.00  0.00    +0.000 HD
ENDROOT
BRANCH  13  16
ATOM     16  C   UNL     1       0.601  12.753  20.254  0.00  0.00    +0.000 C 
ATOM     17  C   UNL     1       1.935  12.530  19.302  0.00  0.00    +0.000 C 
ATOM     18  C   UNL     1       2.559  14.123  18.031  0.00  0.00    +0.000 C 
ATOM     19  C   UNL     1       2.415  15.892  18.870  0.00  0.00    +0.000 C 
ATOM     20  C   UNL     1       1.397  15.937  20.461  0.00  0.00    +0.000 C 
ATOM     21  C   UNL     1       0.588  14.377  21.126  0.00  0.00    +0.000 C 
ENDBRANCH  13  16
BRANCH   1  22
ATOM     22  O   UNL     1       2.010   6.689  20.826  0.00  0.00    +0.000 OA
BRANCH  22  27
ATOM     23 CL   UNL     1       3.406   1.560  18.252  0.00  0.00    +0.000 Cl
ATOM     24  C   UNL     1       2.994   3.093  18.934  0.00  0.00    +0.000 A 
ATOM     25  C   UNL     1       1.690   3.265  19.406  0.00  0.00    +0.000 A 
ATOM     26  C   UNL     1       1.310   4.473  19.999  0.00  0.00    +0.000 A 
ATOM     27  C   UNL     1       2.250   5.493  20.179  0.00  0.00    +0.000 A 
ATOM     28  C   UNL     1       3.534   5.344  19.648  0.00  0.00    +0.000 A 
ATOM     29  C   UNL     1       3.910   4.145  19.030  0.00  0.00    +0.000 A 
ATOM     30 CL   UNL     1       5.522   4.026  18.421  0.00  0.00    +0.000 Cl
ENDBRANCH  22  27
ENDBRANCH   1  22
TORSDOF 3
ENDMDL
MODEL 4
REMARK VINA RESULT:      -7.3      1.172      1.321
REMARK  Name = 
REMARK  3 active torsions:
REMARK  status: ('A' for Active; 'I' for Inactive)
REMARK    1  A    between atoms: C_5  and  O_6
REMARK    2  A    between atoms: O_6  and  C_7
REMARK    3  A    between atoms: C_19  and  C_20
REMARK                            x       y       z     vdW  Elec       q    Type
REMARK                         _______ _______ _______ _____ _____    ______ ____
ROOT
ATOM      1  C   UNL     1       1.831   8.286  19.242  0.00  0.00    +0.000 A 
ATOM      2  C   UNL     1       2.334   8.930  18.115  0.00  0.00    +0.000 A 
ATOM      3  C   UNL     1       1.819  10.174  17.740  0.00  0.00    +0.000 A 
ATOM      4  C   UNL     1       0.857  10.820  18.526  0.00  0.00    +0.000 A 
ATOM      5  C   UNL     1       0.377  10.189  19.676  0.00  0.00    +0.000 A 
ATOM      6  C   UNL     1       0.773   8.861  19.940  0.00  0.00    +0.000 A 
ATOM      7  C   UNL     1      -0.624  10.983  20.639  0.00  0.00    +0.000 C 
ATOM      8  O   UNL     1      -0.182  11.928  22.300  0.00  0.00    +0.000 OA
ATOM      9  C   UNL     1      -1.372  12.869  23.360  0.00  0.00    +0.000 C 
ATOM     10  C   UNL     1      -2.895  13.419  22.354  0.00  0.00    +0.000 C 
ATOM     11  C   UNL     1      -3.113  12.761  20.581  0.00  0.00    +0.000 C 
ATOM     12  C   UNL     1      -1.698  11.888  19.670  0.00  0.00    +0.000 C 
ATOM     13  C   UNL     1      -0.457  12.725  19.146  0.00  0.00    +0.000 C 
ATOM     14  N   UNL     1       0.303  12.031  18.121  0.00  0.00    +0.000 N 
ATOM     15  H   UNL     1       0.950  12.614  17.598  0.00  0.00    +0.000 HD
ENDROOT
BRANCH  13  16
ATOM     16  C   UNL     1       0.391  12.999  20.439  0.00  0.00    +0.000 C 
ATOM     17  C   UNL     1       1.730  13.116  19.475  0.00  0.00    +0.000 C 
ATOM     18  C   UNL     1       2.188  14.999  18.589  0.00  0.00    +0.000 C 
ATOM     19  C   UNL     1       1.888  16.520  19.794  0.00  0.00    +0.000 C 
ATOM     20  C   UNL     1       0.888  16.121  21.345  0.00  0.00    +0.000 C 
ATOM     21  C   UNL     1       0.236  14.384  21.645  0.00  0.00    +0.000 C 
ENDBRANCH  13  16
BRANCH   1  22
ATOM     22  O   UNL     1       2.308   7.091  19.728  0.00  0.00    +0.000 OA
BRANCH  22  27
ATOM     23 CL   UNL     1       5.254   3.553  16.029  0.00  0.00    +0.000 Cl
ATOM     24  C   UNL     1       4.414   4.541  17.169  0.00  0.00    +0.000 A 
ATOM     25  C   UNL     1       4.998   5.759  17.529  0.00  0.00    +0.000 A 
ATOM     26  C   UNL     1       4.346   6.615  18.423  0.00  0.00    +0.000 A 
ATOM     27  C   UNL     1       3.078   6.285  18.913  0.00  0.00    +0.000 A 
ATOM     28  C   UNL     1       2.526   5.039  18.603  0.00  0.00    +0.000 A 
ATOM     29  C   UNL     1       3.188   4.168  17.730  0.00  0.00    +0.000 A 
ATOM     30 CL   UNL     1       2.432   2.656  17.375  0.00  0.00    +0.000 Cl
ENDBRANCH  22  27
ENDBRANCH   1  22
TORSDOF 3
ENDMDL
MODEL 5
REMARK VINA RESULT:      -7.3      1.722      2.377
REMARK  Name = 
REMARK  3 active torsions:
REMARK  status: ('A' for Active; 'I' for Inactive)
REMARK    1  A    between atoms: C_5  and  O_6
REMARK    2  A    between atoms: O_6  and  C_7
REMARK    3  A    between atoms: C_19  and  C_20
REMARK                            x       y       z     vdW  Elec       q    Type
REMARK                         _______ _______ _______ _____ _____    ______ ____
ROOT
ATOM      1  C   UNL     1       0.780   9.423  20.477  0.00  0.00    +0.000 A 
ATOM      2  C   UNL     1       0.748   9.823  19.145  0.00  0.00    +0.000 A 
ATOM      3  C   UNL     1      -0.063  10.895  18.762  0.00  0.00    +0.000 A 
ATOM      4  C   UNL     1      -0.787  11.623  19.713  0.00  0.00    +0.000 A 
ATOM      5  C   UNL     1      -0.728  11.244  21.057  0.00  0.00    +0.000 A 
ATOM      6  C   UNL     1      -0.051  10.054  21.399  0.00  0.00    +0.000 A 
ATOM      7  C   UNL     1      -1.451  12.154  22.156  0.00  0.00    +0.000 C 
ATOM      8  O   UNL     1      -0.625  13.498  23.320  0.00  0.00    +0.000 OA
ATOM      9  C   UNL     1      -1.514  14.558  24.550  0.00  0.00    +0.000 C 
ATOM     10  C   UNL     1      -3.360  14.723  24.102  0.00  0.00    +0.000 C 
ATOM     11  C   UNL     1      -4.065  13.649  22.698  0.00  0.00    +0.000 C 
ATOM     12  C   UNL     1      -2.928  12.709  21.507  0.00  0.00    +0.000 C 
ATOM     13  C   UNL     1      -2.102  13.502  20.408  0.00  0.00    +0.000 C 
ATOM     14  N   UNL     1      -1.639  12.653  19.325  0.00  0.00    +0.000 N 
ATOM     15  H   UNL     1      -1.319  13.149  18.498  0.00  0.00    +0.000 HD
ENDROOT
BRANCH  13  16
ATOM     16  C   UNL     1      -0.917  14.144  21.215  0.00  0.00    +0.000 C 
ATOM     17  C   UNL     1      -0.048  14.184  19.807  0.00  0.00    +0.000 C 
ATOM     18  C   UNL     1      -0.280  15.860  18.512  0.00  0.00    +0.000 C 
ATOM     19  C   UNL     1      -0.405  17.571  19.466  0.00  0.00    +0.000 C 
ATOM     20  C   UNL     1      -0.705  17.424  21.325  0.00  0.00    +0.000 C 
ATOM     21  C   UNL     1      -0.884  15.740  22.138  0.00  0.00    +0.000 C 
ENDBRANCH  13  16
BRANCH   1  22
ATOM     22  O   UNL     1       1.586   8.421  20.965  0.00  0.00    +0.000 OA
BRANCH  22  27
ATOM     23 CL   UNL     1       2.405   3.597  17.658  0.00  0.00    +0.000 Cl
ATOM     24  C   UNL     1       2.226   4.985  18.670  0.00  0.00    +0.000 A 
ATOM     25  C   UNL     1       2.665   6.214  18.171  0.00  0.00    +0.000 A 
ATOM     26  C   UNL     1       2.514   7.378  18.932  0.00  0.00    +0.000 A 
ATOM     27  C   UNL     1       1.866   7.327  20.171  0.00  0.00    +0.000 A 
ATOM     28  C   UNL     1       1.486   6.089  20.696  0.00  0.00    +0.000 A 
ATOM     29  C   UNL     1       1.660   4.919  19.947  0.00  0.00    +0.000 A 
ATOM     30 CL   UNL     1       1.143   3.429  20.652  0.00  0.00    +0.000 Cl
ENDBRANCH  22  27
ENDBRANCH   1  22
TORSDOF 3
ENDMDL
MODEL 6
REMARK VINA RESULT:      -7.2      1.494      1.987
REMARK  Name = 
REMARK  3 active torsions:
REMARK  status: ('A' for Active; 'I' for Inactive)
REMARK    1  A    between atoms: C_5  and  O_6
REMARK    2  A    between atoms: O_6  and  C_7
REMARK    3  A    between atoms: C_19  and  C_20
REMARK                            x       y       z     vdW  Elec       q    Type
REMARK                         _______ _______ _______ _____ _____    ______ ____
ROOT
ATOM      1  C   UNL     1       1.794   8.323  19.279  0.00  0.00    +0.000 A 
ATOM      2  C   UNL     1       2.307   8.966  18.156  0.00  0.00    +0.000 A 
ATOM      3  C   UNL     1       1.803  10.214  17.781  0.00  0.00    +0.000 A 
ATOM      4  C   UNL     1       0.842  10.865  18.562  0.00  0.00    +0.000 A 
ATOM      5  C   UNL     1       0.351  10.236  19.709  0.00  0.00    +0.000 A 
ATOM      6  C   UNL     1       0.736   8.904  19.973  0.00  0.00    +0.000 A 
ATOM      7  C   UNL     1      -0.650  11.035  20.667  0.00  0.00    +0.000 C 
ATOM      8  O   UNL     1      -0.210  11.975  22.332  0.00  0.00    +0.000 OA
ATOM      9  C   UNL     1      -1.399  12.922  23.387  0.00  0.00    +0.000 C 
ATOM     10  C   UNL     1      -2.913  13.485  22.374  0.00  0.00    +0.000 C 
ATOM     11  C   UNL     1      -3.126  12.831  20.598  0.00  0.00    +0.000 C 
ATOM     12  C   UNL     1      -1.712  11.950  19.694  0.00  0.00    +0.000 C 
ATOM     13  C   UNL     1      -0.462  12.778  19.177  0.00  0.00    +0.000 C 
ATOM     14  N   UNL     1       0.298  12.081  18.156  0.00  0.00    +0.000 N 
ATOM     15  H   UNL     1       0.952  12.660  17.637  0.00  0.00    +0.000 HD
ENDROOT
BRANCH  13  16
ATOM     16  C   UNL     1       0.380  13.044  20.476  0.00  0.00    +0.000 C 
ATOM     17  C   UNL     1       1.725  13.154  19.519  0.00  0.00    +0.000 C 
ATOM     18  C   UNL     1       2.200  15.037  18.640  0.00  0.00    +0.000 C 
ATOM     19  C   UNL     1       1.904  16.557  19.846  0.00  0.00    +0.000 C 
ATOM     20  C   UNL     1       0.893  16.161  21.392  0.00  0.00    +0.000 C 
ATOM     21  C   UNL     1       0.228  14.428  21.684  0.00  0.00    +0.000 C 
ENDBRANCH  13  16
BRANCH   1  22
ATOM     22  O   UNL     1       2.259   7.124  19.765  0.00  0.00    +0.000 OA
BRANCH  22  27
ATOM     23 CL   UNL     1       5.245   3.312  16.383  0.00  0.00    +0.000 Cl
ATOM     24  C   UNL     1       4.379   4.480  17.316  0.00  0.00    +0.000 A 
ATOM     25  C   UNL     1       2.992   4.340  17.408  0.00  0.00    +0.000 A 
ATOM     26  C   UNL     1       2.243   5.237  18.177  0.00  0.00    +0.000 A 
ATOM     27  C   UNL     1       2.886   6.241  18.909  0.00  0.00    +0.000 A 
ATOM     28  C   UNL     1       4.264   6.419  18.764  0.00  0.00    +0.000 A 
ATOM     29  C   UNL     1       5.013   5.539  17.974  0.00  0.00    +0.000 A 
ATOM     30 CL   UNL     1       6.716   5.808  17.863  0.00  0.00    +0.000 Cl
ENDBRANCH  22  27
ENDBRANCH   1  22
TORSDOF 3
ENDMDL
MODEL 7
REMARK VINA RESULT:      -6.9      5.682      7.500
REMARK  Name = 
REMARK  3 active torsions:
REMARK  status: ('A' for Active; 'I' for Inactive)
REMARK    1  A    between atoms: C_5  and  O_6
REMARK    2  A    between atoms: O_6  and  C_7
REMARK    3  A    between atoms: C_19  and  C_20
REMARK                            x       y       z     vdW  Elec       q    Type
REMARK                         _______ _______ _______ _____ _____    ______ ____
ROOT
ATOM      1  C   UNL     1       3.062  14.129  19.163  0.00  0.00    +0.000 A 
ATOM      2  C   UNL     1       3.051  13.166  18.158  0.00  0.00    +0.000 A 
ATOM      3  C   UNL     1       2.139  12.109  18.219  0.00  0.00    +0.000 A 
ATOM      4  C   UNL     1       1.182  12.045  19.238  0.00  0.00    +0.000 A 
ATOM      5  C   UNL     1       1.169  13.030  20.229  0.00  0.00    +0.000 A 
ATOM      6  C   UNL     1       2.208  13.985  20.253  0.00  0.00    +0.000 A 
ATOM      7  C   UNL     1      -0.003  13.025  21.317  0.00  0.00    +0.000 C 
ATOM      8  O   UNL     1      -1.630  14.121  21.320  0.00  0.00    +0.000 OA
ATOM      9  C   UNL     1      -2.981  14.050  22.583  0.00  0.00    +0.000 C 
ATOM     10  C   UNL     1      -2.993  12.366  23.477  0.00  0.00    +0.000 C 
ATOM     11  C   UNL     1      -1.560  11.151  23.168  0.00  0.00    +0.000 C 
ATOM     12  C   UNL     1      -0.338  11.407  21.742  0.00  0.00    +0.000 C 
ATOM     13  C   UNL     1      -0.800  11.152  20.246  0.00  0.00    +0.000 C 
ATOM     14  N   UNL     1       0.312  10.962  19.332  0.00  0.00    +0.000 N 
ATOM     15  H   UNL     1       0.064  10.567  18.430  0.00  0.00    +0.000 HD
ENDROOT
BRANCH  13  16
ATOM     16  C   UNL     1      -1.657  12.420  19.892  0.00  0.00    +0.000 C 
ATOM     17  C   UNL     1      -1.246  12.192  18.305  0.00  0.00    +0.000 C 
ATOM     18  C   UNL     1      -2.431  10.871  17.124  0.00  0.00    +0.000 C 
ATOM     19  C   UNL     1      -4.356  11.026  17.476  0.00  0.00    +0.000 C 
ATOM     20  C   UNL     1      -4.804  11.988  19.039  0.00  0.00    +0.000 C 
ATOM     21  C   UNL     1      -3.462  12.698  20.145  0.00  0.00    +0.000 C 
ENDBRANCH  13  16
BRANCH   1  22
ATOM     22  O   UNL     1       3.877  15.236  19.166  0.00  0.00    +0.000 OA
BRANCH  22  27
ATOM     23 CL   UNL     1       9.703  14.263  19.152  0.00  0.00    +0.000 Cl
ATOM     24  C   UNL     1       8.013  14.623  19.172  0.00  0.00    +0.000 A 
ATOM     25  C   UNL     1       7.351  14.703  17.944  0.00  0.00    +0.000 A 
ATOM     26  C   UNL     1       5.976  14.958  17.901  0.00  0.00    +0.000 A 
ATOM     27  C   UNL     1       5.246  15.072  19.089  0.00  0.00    +0.000 A 
ATOM     28  C   UNL     1       5.920  15.056  20.312  0.00  0.00    +0.000 A 
ATOM     29  C   UNL     1       7.301  14.828  20.358  0.00  0.00    +0.000 A 
ATOM     30 CL   UNL     1       8.061  14.798  21.909  0.00  0.00    +0.000 Cl
ENDBRANCH  22  27
ENDBRANCH   1  22
TORSDOF 3
ENDMDL
MODEL 8
REMARK VINA RESULT:      -6.9      1.887      2.073
REMARK  Name = 
REMARK  3 active torsions:
REMARK  status: ('A' for Active; 'I' for Inactive)
REMARK    1  A    between atoms: C_5  and  O_6
REMARK    2  A    between atoms: O_6  and  C_7
REMARK    3  A    between atoms: C_19  and  C_20
REMARK                            x       y       z     vdW  Elec       q    Type
REMARK                         _______ _______ _______ _____ _____    ______ ____
ROOT
ATOM      1  C   UNL     1       1.919   8.025  19.265  0.00  0.00    +0.000 A 
ATOM      2  C   UNL     1       2.467   8.660  18.155  0.00  0.00    +0.000 A 
ATOM      3  C   UNL     1       1.987   9.913  17.766  0.00  0.00    +0.000 A 
ATOM      4  C   UNL     1       1.013  10.576  18.522  0.00  0.00    +0.000 A 
ATOM      5  C   UNL     1       0.487   9.954  19.657  0.00  0.00    +0.000 A 
ATOM      6  C   UNL     1       0.850   8.618  19.932  0.00  0.00    +0.000 A 
ATOM      7  C   UNL     1      -0.528  10.765  20.589  0.00  0.00    +0.000 C 
ATOM      8  O   UNL     1      -0.120  11.702  22.263  0.00  0.00    +0.000 OA
ATOM      9  C   UNL     1      -1.324  12.664  23.287  0.00  0.00    +0.000 C 
ATOM     10  C   UNL     1      -2.806  13.243  22.236  0.00  0.00    +0.000 C 
ATOM     11  C   UNL     1      -2.982  12.589  20.456  0.00  0.00    +0.000 C 
ATOM     12  C   UNL     1      -1.556  11.690  19.589  0.00  0.00    +0.000 C 
ATOM     13  C   UNL     1      -0.284  12.504  19.103  0.00  0.00    +0.000 C 
ATOM     14  N   UNL     1       0.494  11.797  18.102  0.00  0.00    +0.000 N 
ATOM     15  H   UNL     1       1.167  12.368  17.599  0.00  0.00    +0.000 HD
ENDROOT
BRANCH  13  16
ATOM     16  C   UNL     1       0.529  12.762  20.422  0.00  0.00    +0.000 C 
ATOM     17  C   UNL     1       1.896  12.870  19.497  0.00  0.00    +0.000 C 
ATOM     18  C   UNL     1       2.400  14.753  18.636  0.00  0.00    +0.000 C 
ATOM     19  C   UNL     1       2.082  16.270  19.839  0.00  0.00    +0.000 C 
ATOM     20  C   UNL     1       1.033  15.874  21.359  0.00  0.00    +0.000 C 
ATOM     21  C   UNL     1       0.354  14.144  21.630  0.00  0.00    +0.000 C 
ENDBRANCH  13  16
BRANCH   1  22
ATOM     22  O   UNL     1       2.358   6.821  19.764  0.00  0.00    +0.000 OA
BRANCH  22  27
ATOM     23 CL   UNL     1       7.018   4.451  17.016  0.00  0.00    +0.000 Cl
ATOM     24  C   UNL     1       5.608   5.100  17.775  0.00  0.00    +0.000 A 
ATOM     25  C   UNL     1       5.297   4.650  19.061  0.00  0.00    +0.000 A 
ATOM     26  C   UNL     1       4.187   5.166  19.738  0.00  0.00    +0.000 A 
ATOM     27  C   UNL     1       3.419   6.180  19.156  0.00  0.00    +0.000 A 
ATOM     28  C   UNL     1       3.692   6.581  17.846  0.00  0.00    +0.000 A 
ATOM     29  C   UNL     1       4.787   6.047  17.155  0.00  0.00    +0.000 A 
ATOM     30 CL   UNL     1       5.077   6.610  15.548  0.00  0.00    +0.000 Cl
ENDBRANCH  22  27
ENDBRANCH   1  22
TORSDOF 3
ENDMDL
MODEL 9
REMARK VINA RESULT:      -6.9      2.570      4.952
REMARK  Name = 
REMARK  3 active torsions:
REMARK  status: ('A' for Active; 'I' for Inactive)
REMARK    1  A    between atoms: C_5  and  O_6
REMARK    2  A    between atoms: O_6  and  C_7
REMARK    3  A    between atoms: C_19  and  C_20
REMARK                            x       y       z     vdW  Elec       q    Type
REMARK                         _______ _______ _______ _____ _____    ______ ____
ROOT
ATOM      1  C   UNL     1      -0.016  11.007  20.789  0.00  0.00    +0.000 A 
ATOM      2  C   UNL     1      -1.167  11.774  20.947  0.00  0.00    +0.000 A 
ATOM      3  C   UNL     1      -1.069  13.167  21.000  0.00  0.00    +0.000 A 
ATOM      4  C   UNL     1       0.162  13.808  20.819  0.00  0.00    +0.000 A 
ATOM      5  C   UNL     1       1.312  13.040  20.626  0.00  0.00    +0.000 A 
ATOM      6  C   UNL     1       1.224  11.637  20.756  0.00  0.00    +0.000 A 
ATOM      7  C   UNL     1       2.693  13.775  20.292  0.00  0.00    +0.000 C 
ATOM      8  O   UNL     1       3.518  14.018  18.529  0.00  0.00    +0.000 OA
ATOM      9  C   UNL     1       5.101  14.915  18.189  0.00  0.00    +0.000 C 
ATOM     10  C   UNL     1       5.494  16.159  19.579  0.00  0.00    +0.000 C 
ATOM     11  C   UNL     1       4.427  16.144  21.156  0.00  0.00    +0.000 C 
ATOM     12  C   UNL     1       2.785  15.199  21.229  0.00  0.00    +0.000 C 
ATOM     13  C   UNL     1       1.519  15.747  20.446  0.00  0.00    +0.000 C 
ATOM     14  N   UNL     1       0.268  15.192  20.931  0.00  0.00    +0.000 N 
ATOM     15  H   UNL     1      -0.567  15.684  20.626  0.00  0.00    +0.000 HD
ENDROOT
BRANCH  13  16
ATOM     16  C   UNL     1       1.804  15.368  18.949  0.00  0.00    +0.000 C 
ATOM     17  C   UNL     1       0.169  15.364  18.693  0.00  0.00    +0.000 C 
ATOM     18  C   UNL     1      -0.792  17.203  18.205  0.00  0.00    +0.000 C 
ATOM     19  C   UNL     1       0.247  18.320  16.969  0.00  0.00    +0.000 C 
ATOM     20  C   UNL     1       2.047  17.795  16.744  0.00  0.00    +0.000 C 
ATOM     21  C   UNL     1       2.740  16.320  17.677  0.00  0.00    +0.000 C 
ENDBRANCH  13  16
BRANCH   1  22
ATOM     22  O   UNL     1      -0.010   9.637  20.667  0.00  0.00    +0.000 OA
BRANCH  22  27
ATOM     23 CL   UNL     1       3.762   6.688  17.210  0.00  0.00    +0.000 Cl
ATOM     24  C   UNL     1       2.720   7.576  18.263  0.00  0.00    +0.000 A 
ATOM     25  C   UNL     1       2.175   8.770  17.783  0.00  0.00    +0.000 A 
ATOM     26  C   UNL     1       1.297   9.513  18.580  0.00  0.00    +0.000 A 
ATOM     27  C   UNL     1       0.912   9.033  19.836  0.00  0.00    +0.000 A 
ATOM     28  C   UNL     1       1.507   7.873  20.339  0.00  0.00    +0.000 A 
ATOM     29  C   UNL     1       2.407   7.141  19.555  0.00  0.00    +0.000 A 
ATOM     30 CL   UNL     1       3.083   5.705  20.235  0.00  0.00    +0.000 Cl
ENDBRANCH  22  27
ENDBRANCH   1  22
TORSDOF 3
ENDMDL
