MODEL 1
REMARK VINA RESULT:      -4.5      0.000      0.000
REMARK  Name = 
REMARK  5 active torsions:
REMARK  status: ('A' for Active; 'I' for Inactive)
REMARK    1  A    between atoms: C_1  and  C_2
REMARK    2  A    between atoms: C_2  and  C_3
REMARK    3  A    between atoms: C_2  and  C_4
REMARK    4  A    between atoms: C_4  and  C_5
REMARK    5  A    between atoms: C_5  and  C_6
REMARK                            x       y       z     vdW  Elec       q    Type
REMARK                         _______ _______ _______ _____ _____    ______ ____
ROOT
ATOM      1  C   UNL     1       6.216   3.735  12.784  0.00  0.00    +0.000 C 
ENDROOT
BRANCH   1   3
ATOM      2  C   UNL     1       4.269   3.212  11.201  0.00  0.00    +0.000 C 
ATOM      3  C   UNL     1       5.363   2.640  12.107  0.00  0.00    +0.000 C 
ATOM      4  C   UNL     1       6.259   1.698  11.299  0.00  0.00    +0.000 C 
ENDBRANCH   1   3
BRANCH   1   5
ATOM      5  C   UNL     1       6.178   3.755  14.314  0.00  0.00    +0.000 C 
BRANCH   5   6
ATOM      6  C   UNL     1       7.181   4.751  14.858  0.00  0.00    +0.000 C 
ATOM      7  O   UNL     1       7.779   5.499  14.046  0.00  0.00    +0.000 OA
ATOM      8  O   UNL     1       7.412   4.645  16.104  0.00  0.00    +0.000 OA
ENDBRANCH   5   6
ENDBRANCH   1   5
TORSDOF 3
ENDMDL
MODEL 2
REMARK VINA RESULT:      -4.4      0.829      1.117
REMARK  Name = 
REMARK  5 active torsions:
REMARK  status: ('A' for Active; 'I' for Inactive)
REMARK    1  A    between atoms: C_1  and  C_2
REMARK    2  A    between atoms: C_2  and  C_3
REMARK    3  A    between atoms: C_2  and  C_4
REMARK    4  A    between atoms: C_4  and  C_5
REMARK    5  A    between atoms: C_5  and  C_6
REMARK                            x       y       z     vdW  Elec       q    Type
REMARK                         _______ _______ _______ _____ _____    ______ ____
ROOT
ATOM      1  C   UNL     1       6.264   3.691  12.686  0.00  0.00    +0.000 C 
ENDROOT
BRANCH   1   3
ATOM      2  C   UNL     1       4.243   3.185  11.193  0.00  0.00    +0.000 C 
ATOM      3  C   UNL     1       5.392   2.604  12.020  0.00  0.00    +0.000 C 
ATOM      4  C   UNL     1       6.257   1.702  11.137  0.00  0.00    +0.000 C 
ENDBRANCH   1   3
BRANCH   1   5
ATOM      5  C   UNL     1       6.095   3.843  14.200  0.00  0.00    +0.000 C 
BRANCH   5   6
ATOM      6  C   UNL     1       6.644   5.176  14.665  0.00  0.00    +0.000 C 
ATOM      7  O   UNL     1       5.869   5.965  15.258  0.00  0.00    +0.000 OA
ATOM      8  O   UNL     1       7.835   5.419  14.290  0.00  0.00    +0.000 OA
ENDBRANCH   5   6
ENDBRANCH   1   5
TORSDOF 3
ENDMDL
MODEL 3
REMARK VINA RESULT:      -4.4      6.919      8.342
REMARK  Name = 
REMARK  5 active torsions:
REMARK  status: ('A' for Active; 'I' for Inactive)
REMARK    1  A    between atoms: C_1  and  C_2
REMARK    2  A    between atoms: C_2  and  C_3
REMARK    3  A    between atoms: C_2  and  C_4
REMARK    4  A    between atoms: C_4  and  C_5
REMARK    5  A    between atoms: C_5  and  C_6
REMARK                            x       y       z     vdW  Elec       q    Type
REMARK                         _______ _______ _______ _____ _____    ______ ____
ROOT
ATOM      1  C   UNL     1       0.758   3.144  19.449  0.00  0.00    +0.000 C 
ENDROOT
BRANCH   1   3
ATOM      2  C   UNL     1       2.092   2.877  21.621  0.00  0.00    +0.000 C 
ATOM      3  C   UNL     1       1.213   3.798  20.772  0.00  0.00    +0.000 C 
ATOM      4  C   UNL     1       1.962   5.102  20.484  0.00  0.00    +0.000 C 
ENDBRANCH   1   3
BRANCH   1   5
ATOM      5  C   UNL     1       1.563   1.920  19.003  0.00  0.00    +0.000 C 
BRANCH   5   6
ATOM      6  C   UNL     1       2.510   2.287  17.879  0.00  0.00    +0.000 C 
ATOM      7  O   UNL     1       3.638   1.739  17.848  0.00  0.00    +0.000 OA
ATOM      8  O   UNL     1       2.102   3.229  17.128  0.00  0.00    +0.000 OA
ENDBRANCH   5   6
ENDBRANCH   1   5
TORSDOF 3
ENDMDL
MODEL 4
REMARK VINA RESULT:      -4.3      6.636      7.995
REMARK  Name = 
REMARK  5 active torsions:
REMARK  status: ('A' for Active; 'I' for Inactive)
REMARK    1  A    between atoms: C_1  and  C_2
REMARK    2  A    between atoms: C_2  and  C_3
REMARK    3  A    between atoms: C_2  and  C_4
REMARK    4  A    between atoms: C_4  and  C_5
REMARK    5  A    between atoms: C_5  and  C_6
REMARK                            x       y       z     vdW  Elec       q    Type
REMARK                         _______ _______ _______ _____ _____    ______ ____
ROOT
ATOM      1  C   UNL     1       0.955   2.959  19.139  0.00  0.00    +0.000 C 
ENDROOT
BRANCH   1   3
ATOM      2  C   UNL     1       1.800   2.676  21.543  0.00  0.00    +0.000 C 
ATOM      3  C   UNL     1       1.019   3.555  20.563  0.00  0.00    +0.000 C 
ATOM      4  C   UNL     1       1.637   4.954  20.522  0.00  0.00    +0.000 C 
ENDBRANCH   1   3
BRANCH   1   5
ATOM      5  C   UNL     1       1.624   3.791  18.042  0.00  0.00    +0.000 C 
BRANCH   5   6
ATOM      6  C   UNL     1       2.884   3.109  17.552  0.00  0.00    +0.000 C 
ATOM      7  O   UNL     1       3.674   3.763  16.829  0.00  0.00    +0.000 OA
ATOM      8  O   UNL     1       2.960   1.870  17.831  0.00  0.00    +0.000 OA
ENDBRANCH   5   6
ENDBRANCH   1   5
TORSDOF 3
ENDMDL
MODEL 5
REMARK VINA RESULT:      -4.3      6.921      7.880
REMARK  Name = 
REMARK  5 active torsions:
REMARK  status: ('A' for Active; 'I' for Inactive)
REMARK    1  A    between atoms: C_1  and  C_2
REMARK    2  A    between atoms: C_2  and  C_3
REMARK    3  A    between atoms: C_2  and  C_4
REMARK    4  A    between atoms: C_4  and  C_5
REMARK    5  A    between atoms: C_5  and  C_6
REMARK                            x       y       z     vdW  Elec       q    Type
REMARK                         _______ _______ _______ _____ _____    ______ ____
ROOT
ATOM      1  C   UNL     1       1.512   2.172  19.287  0.00  0.00    +0.000 C 
ENDROOT
BRANCH   1   3
ATOM      2  C   UNL     1       1.721   4.160  17.683  0.00  0.00    +0.000 C 
ATOM      3  C   UNL     1       2.079   2.696  17.950  0.00  0.00    +0.000 C 
ATOM      4  C   UNL     1       3.600   2.525  17.918  0.00  0.00    +0.000 C 
ENDBRANCH   1   3
BRANCH   1   5
ATOM      5  C   UNL     1       0.878   3.226  20.198  0.00  0.00    +0.000 C 
BRANCH   5   6
ATOM      6  C   UNL     1       1.840   3.626  21.298  0.00  0.00    +0.000 C 
ATOM      7  O   UNL     1       2.344   4.775  21.260  0.00  0.00    +0.000 OA
ATOM      8  O   UNL     1       2.142   2.691  22.105  0.00  0.00    +0.000 OA
ENDBRANCH   5   6
ENDBRANCH   1   5
TORSDOF 3
ENDMDL
MODEL 6
REMARK VINA RESULT:      -4.2      0.650      1.395
REMARK  Name = 
REMARK  5 active torsions:
REMARK  status: ('A' for Active; 'I' for Inactive)
REMARK    1  A    between atoms: C_1  and  C_2
REMARK    2  A    between atoms: C_2  and  C_3
REMARK    3  A    between atoms: C_2  and  C_4
REMARK    4  A    between atoms: C_4  and  C_5
REMARK    5  A    between atoms: C_5  and  C_6
REMARK                            x       y       z     vdW  Elec       q    Type
REMARK                         _______ _______ _______ _____ _____    ______ ____
ROOT
ATOM      1  C   UNL     1       6.580   3.629  12.616  0.00  0.00    +0.000 C 
ENDROOT
BRANCH   1   3
ATOM      2  C   UNL     1       5.964   1.464  11.390  0.00  0.00    +0.000 C 
ATOM      3  C   UNL     1       5.763   2.979  11.478  0.00  0.00    +0.000 C 
ATOM      4  C   UNL     1       4.275   3.292  11.652  0.00  0.00    +0.000 C 
ENDBRANCH   1   3
BRANCH   1   5
ATOM      5  C   UNL     1       5.781   4.037  13.857  0.00  0.00    +0.000 C 
BRANCH   5   6
ATOM      6  C   UNL     1       6.705   4.571  14.932  0.00  0.00    +0.000 C 
ATOM      7  O   UNL     1       7.621   5.359  14.592  0.00  0.00    +0.000 OA
ATOM      8  O   UNL     1       6.531   4.060  16.083  0.00  0.00    +0.000 OA
ENDBRANCH   5   6
ENDBRANCH   1   5
TORSDOF 3
ENDMDL
MODEL 7
REMARK VINA RESULT:      -4.2      6.823      7.837
REMARK  Name = 
REMARK  5 active torsions:
REMARK  status: ('A' for Active; 'I' for Inactive)
REMARK    1  A    between atoms: C_1  and  C_2
REMARK    2  A    between atoms: C_2  and  C_3
REMARK    3  A    between atoms: C_2  and  C_4
REMARK    4  A    between atoms: C_4  and  C_5
REMARK    5  A    between atoms: C_5  and  C_6
REMARK                            x       y       z     vdW  Elec       q    Type
REMARK                         _______ _______ _______ _____ _____    ______ ____
ROOT
ATOM      1  C   UNL     1       1.377   4.011  18.863  0.00  0.00    +0.000 C 
ENDROOT
BRANCH   1   3
ATOM      2  C   UNL     1       3.490   4.455  17.481  0.00  0.00    +0.000 C 
ATOM      3  C   UNL     1       2.250   3.577  17.666  0.00  0.00    +0.000 C 
ATOM      4  C   UNL     1       2.675   2.115  17.827  0.00  0.00    +0.000 C 
ENDBRANCH   1   3
BRANCH   1   5
ATOM      5  C   UNL     1       1.108   2.932  19.915  0.00  0.00    +0.000 C 
BRANCH   5   6
ATOM      6  C   UNL     1       1.649   3.357  21.264  0.00  0.00    +0.000 C 
ATOM      7  O   UNL     1       2.232   4.466  21.349  0.00  0.00    +0.000 OA
ATOM      8  O   UNL     1       1.565   2.472  22.173  0.00  0.00    +0.000 OA
ENDBRANCH   5   6
ENDBRANCH   1   5
TORSDOF 3
ENDMDL
MODEL 8
REMARK VINA RESULT:      -4.2      6.620      8.057
REMARK  Name = 
REMARK  5 active torsions:
REMARK  status: ('A' for Active; 'I' for Inactive)
REMARK    1  A    between atoms: C_1  and  C_2
REMARK    2  A    between atoms: C_2  and  C_3
REMARK    3  A    between atoms: C_2  and  C_4
REMARK    4  A    between atoms: C_4  and  C_5
REMARK    5  A    between atoms: C_5  and  C_6
REMARK                            x       y       z     vdW  Elec       q    Type
REMARK                         _______ _______ _______ _____ _____    ______ ____
ROOT
ATOM      1  C   UNL     1       1.478   3.043  19.047  0.00  0.00    +0.000 C 
ENDROOT
BRANCH   1   3
ATOM      2  C   UNL     1       1.497   2.727  21.591  0.00  0.00    +0.000 C 
ATOM      3  C   UNL     1       1.070   3.617  20.421  0.00  0.00    +0.000 C 
ATOM      4  C   UNL     1       1.657   5.019  20.602  0.00  0.00    +0.000 C 
ENDBRANCH   1   3
BRANCH   1   5
ATOM      5  C   UNL     1       2.622   2.025  19.066  0.00  0.00    +0.000 C 
BRANCH   5   6
ATOM      6  C   UNL     1       3.951   2.716  18.845  0.00  0.00    +0.000 C 
ATOM      7  O   UNL     1       4.778   2.735  19.789  0.00  0.00    +0.000 OA
ATOM      8  O   UNL     1       4.052   3.330  17.735  0.00  0.00    +0.000 OA
ENDBRANCH   5   6
ENDBRANCH   1   5
TORSDOF 3
ENDMDL
MODEL 9
REMARK VINA RESULT:      -4.2      1.006      1.768
REMARK  Name = 
REMARK  5 active torsions:
REMARK  status: ('A' for Active; 'I' for Inactive)
REMARK    1  A    between atoms: C_1  and  C_2
REMARK    2  A    between atoms: C_2  and  C_3
REMARK    3  A    between atoms: C_2  and  C_4
REMARK    4  A    between atoms: C_4  and  C_5
REMARK    5  A    between atoms: C_5  and  C_6
REMARK                            x       y       z     vdW  Elec       q    Type
REMARK                         _______ _______ _______ _____ _____    ______ ____
ROOT
ATOM      1  C   UNL     1       5.836   3.553  13.288  0.00  0.00    +0.000 C 
ENDROOT
BRANCH   1   3
ATOM      2  C   UNL     1       6.110   1.811  11.428  0.00  0.00    +0.000 C 
ATOM      3  C   UNL     1       5.613   3.211  11.798  0.00  0.00    +0.000 C 
ATOM      4  C   UNL     1       4.129   3.339  11.444  0.00  0.00    +0.000 C 
ENDBRANCH   1   3
BRANCH   1   5
ATOM      5  C   UNL     1       6.931   4.584  13.575  0.00  0.00    +0.000 C 
BRANCH   5   6
ATOM      6  C   UNL     1       6.809   5.110  14.990  0.00  0.00    +0.000 C 
ATOM      7  O   UNL     1       7.491   4.563  15.890  0.00  0.00    +0.000 OA
ATOM      8  O   UNL     1       5.911   5.997  15.150  0.00  0.00    +0.000 OA
ENDBRANCH   5   6
ENDBRANCH   1   5
TORSDOF 3
ENDMDL
