MODEL 1
REMARK VINA RESULT:      -7.0      0.000      0.000
REMARK  Name = 
REMARK  10 active torsions:
REMARK  status: ('A' for Active; 'I' for Inactive)
REMARK    1  A    between atoms: C_1  and  C_2
REMARK    2  A    between atoms: C_2  and  C_4
REMARK    3  A    between atoms: C_8  and  N_9
REMARK    4  A    between atoms: N_12  and  C_13
REMARK    5  A    between atoms: N_12  and  C_14
REMARK    6  A    between atoms: C_14  and  C_15
REMARK    7  A    between atoms: C_15  and  O_16
REMARK    8  A    between atoms: C_15  and  C_17
REMARK    9  A    between atoms: C_17  and  N_18
REMARK   10  A    between atoms: N_21  and  C_22
REMARK                            x       y       z     vdW  Elec       q    Type
REMARK                         _______ _______ _______ _____ _____    ______ ____
ROOT
ATOM      1  N   UNL     1       6.261   5.271  15.573  0.00  0.00    +0.000 N 
ATOM      2  C   UNL     1       5.500   6.368  15.912  0.00  0.00    +0.000 C 
ATOM      3  O   UNL     1       4.838   7.015  15.105  0.00  0.00    +0.000 OA
ATOM      4  N   UNL     1       5.525   6.694  17.273  0.00  0.00    +0.000 N 
ATOM      5  C   UNL     1       4.700   7.846  17.638  0.00  0.00    +0.000 C 
ATOM      6  H   UNL     1       6.291   4.537  16.268  0.00  0.00    +0.000 HD
ENDROOT
BRANCH   1  11
ATOM      7  C   UNL     1       6.209   3.529  12.294  0.00  0.00    +0.000 A 
ATOM      8  C   UNL     1       7.308   4.108  11.654  0.00  0.00    +0.000 A 
ATOM      9  C   UNL     1       8.061   5.079  12.310  0.00  0.00    +0.000 A 
ATOM     10  C   UNL     1       7.720   5.467  13.604  0.00  0.00    +0.000 A 
ATOM     11  C   UNL     1       6.616   4.911  14.257  0.00  0.00    +0.000 A 
ATOM     12  C   UNL     1       5.869   3.928  13.600  0.00  0.00    +0.000 A 
BRANCH   7  14
ATOM     13  C   UNL     1       6.028   1.154  11.298  0.00  0.00    +0.000 C 
ATOM     14  C   UNL     1       5.387   2.480  11.625  0.00  0.00    +0.000 C 
ATOM     15  O   UNL     1       4.206   2.703  11.367  0.00  0.00    +0.000 OA
ENDBRANCH   7  14
ENDBRANCH   1  11
BRANCH   4  16
ATOM     16  C   UNL     1       6.711   6.409  18.120  0.00  0.00    +0.000 C 
BRANCH  16  17
ATOM     17  C   UNL     1       6.630   5.112  18.952  0.00  0.00    +0.000 C 
BRANCH  17  18
ATOM     18  O   UNL     1       7.065   3.982  18.182  0.00  0.00    +0.000 OA
ATOM     19  H   UNL     1       7.717   3.489  18.709  0.00  0.00    +0.000 HD
ENDBRANCH  17  18
BRANCH  17  20
ATOM     20  C   UNL     1       5.195   4.836  19.480  0.00  0.00    +0.000 C 
BRANCH  20  21
ATOM     21  N   UNL     1       4.480   3.820  18.682  0.00  0.00    +0.000 NA
ATOM     22  C   UNL     1       3.270   4.358  18.035  0.00  0.00    +0.000 C 
ATOM     23  C   UNL     1       2.511   3.276  17.217  0.00  0.00    +0.000 C 
ATOM     24  N   UNL     1       2.183   2.041  17.957  0.00  0.00    +0.000 NA
ATOM     25  C   UNL     1       1.097   2.244  18.910  0.00  0.00    +0.000 C 
ATOM     26  C   UNL     1       3.400   1.554  18.628  0.00  0.00    +0.000 C 
ATOM     27  C   UNL     1       4.141   2.615  19.465  0.00  0.00    +0.000 C 
ENDBRANCH  20  21
ENDBRANCH  17  20
ENDBRANCH  16  17
ENDBRANCH   4  16
TORSDOF 7
ENDMDL
MODEL 2
REMARK VINA RESULT:      -6.9      1.019      1.277
REMARK  Name = 
REMARK  10 active torsions:
REMARK  status: ('A' for Active; 'I' for Inactive)
REMARK    1  A    between atoms: C_1  and  C_2
REMARK    2  A    between atoms: C_2  and  C_4
REMARK    3  A    between atoms: C_8  and  N_9
REMARK    4  A    between atoms: N_12  and  C_13
REMARK    5  A    between atoms: N_12  and  C_14
REMARK    6  A    between atoms: C_14  and  C_15
REMARK    7  A    between atoms: C_15  and  O_16
REMARK    8  A    between atoms: C_15  and  C_17
REMARK    9  A    between atoms: C_17  and  N_18
REMARK   10  A    between atoms: N_21  and  C_22
REMARK                            x       y       z     vdW  Elec       q    Type
REMARK                         _______ _______ _______ _____ _____    ______ ____
ROOT
ATOM      1  N   UNL     1       6.158   5.094  15.534  0.00  0.00    +0.000 N 
ATOM      2  C   UNL     1       5.474   6.227  15.917  0.00  0.00    +0.000 C 
ATOM      3  O   UNL     1       4.873   6.957  15.132  0.00  0.00    +0.000 OA
ATOM      4  N   UNL     1       5.501   6.487  17.292  0.00  0.00    +0.000 N 
ATOM      5  C   UNL     1       4.757   7.678  17.700  0.00  0.00    +0.000 C 
ATOM      6  H   UNL     1       6.124   4.329  16.194  0.00  0.00    +0.000 HD
ENDROOT
BRANCH   1  11
ATOM      7  C   UNL     1       6.069   3.466  12.199  0.00  0.00    +0.000 A 
ATOM      8  C   UNL     1       7.183   4.040  11.579  0.00  0.00    +0.000 A 
ATOM      9  C   UNL     1       7.958   4.970  12.268  0.00  0.00    +0.000 A 
ATOM     10  C   UNL     1       7.625   5.322  13.574  0.00  0.00    +0.000 A 
ATOM     11  C   UNL     1       6.506   4.770  14.208  0.00  0.00    +0.000 A 
ATOM     12  C   UNL     1       5.737   3.828  13.517  0.00  0.00    +0.000 A 
BRANCH   7  14
ATOM     13  C   UNL     1       3.859   2.875  11.001  0.00  0.00    +0.000 C 
ATOM     14  C   UNL     1       5.224   2.460  11.494  0.00  0.00    +0.000 C 
ATOM     15  O   UNL     1       5.653   1.323  11.310  0.00  0.00    +0.000 OA
ENDBRANCH   7  14
ENDBRANCH   1  11
BRANCH   4  16
ATOM     16  C   UNL     1       6.650   6.077  18.138  0.00  0.00    +0.000 C 
BRANCH  16  17
ATOM     17  C   UNL     1       6.276   5.396  19.471  0.00  0.00    +0.000 C 
BRANCH  17  18
ATOM     18  O   UNL     1       7.443   5.165  20.273  0.00  0.00    +0.000 OA
ATOM     19  H   UNL     1       8.071   4.638  19.749  0.00  0.00    +0.000 HD
ENDBRANCH  17  18
BRANCH  17  20
ATOM     20  C   UNL     1       5.537   4.045  19.260  0.00  0.00    +0.000 C 
BRANCH  20  21
ATOM     21  N   UNL     1       4.186   4.219  18.693  0.00  0.00    +0.000 NA
ATOM     22  C   UNL     1       3.148   4.344  19.731  0.00  0.00    +0.000 C 
ATOM     23  C   UNL     1       1.726   4.502  19.126  0.00  0.00    +0.000 C 
ATOM     24  N   UNL     1       1.339   3.465  18.147  0.00  0.00    +0.000 NA
ATOM     25  C   UNL     1       1.048   2.188  18.788  0.00  0.00    +0.000 C 
ATOM     26  C   UNL     1       2.414   3.332  17.150  0.00  0.00    +0.000 C 
ATOM     27  C   UNL     1       3.824   3.146  17.745  0.00  0.00    +0.000 C 
ENDBRANCH  20  21
ENDBRANCH  17  20
ENDBRANCH  16  17
ENDBRANCH   4  16
TORSDOF 7
ENDMDL
MODEL 3
REMARK VINA RESULT:      -6.8      1.332      1.792
REMARK  Name = 
REMARK  10 active torsions:
REMARK  status: ('A' for Active; 'I' for Inactive)
REMARK    1  A    between atoms: C_1  and  C_2
REMARK    2  A    between atoms: C_2  and  C_4
REMARK    3  A    between atoms: C_8  and  N_9
REMARK    4  A    between atoms: N_12  and  C_13
REMARK    5  A    between atoms: N_12  and  C_14
REMARK    6  A    between atoms: C_14  and  C_15
REMARK    7  A    between atoms: C_15  and  O_16
REMARK    8  A    between atoms: C_15  and  C_17
REMARK    9  A    between atoms: C_17  and  N_18
REMARK   10  A    between atoms: N_21  and  C_22
REMARK                            x       y       z     vdW  Elec       q    Type
REMARK                         _______ _______ _______ _____ _____    ______ ____
ROOT
ATOM      1  N   UNL     1       6.052   5.200  15.633  0.00  0.00    +0.000 N 
ATOM      2  C   UNL     1       5.297   6.303  15.967  0.00  0.00    +0.000 C 
ATOM      3  O   UNL     1       4.685   6.983  15.148  0.00  0.00    +0.000 OA
ATOM      4  N   UNL     1       5.264   6.592  17.336  0.00  0.00    +0.000 N 
ATOM      5  C   UNL     1       4.445   7.750  17.694  0.00  0.00    +0.000 C 
ATOM      6  H   UNL     1       6.037   4.448  16.308  0.00  0.00    +0.000 HD
ENDROOT
BRANCH   1  11
ATOM      7  C   UNL     1       6.104   3.565  12.300  0.00  0.00    +0.000 A 
ATOM      8  C   UNL     1       7.256   4.121  11.735  0.00  0.00    +0.000 A 
ATOM      9  C   UNL     1       8.009   5.041  12.460  0.00  0.00    +0.000 A 
ATOM     10  C   UNL     1       7.617   5.401  13.748  0.00  0.00    +0.000 A 
ATOM     11  C   UNL     1       6.461   4.868  14.326  0.00  0.00    +0.000 A 
ATOM     12  C   UNL     1       5.713   3.936  13.599  0.00  0.00    +0.000 A 
BRANCH   7  14
ATOM     13  C   UNL     1       3.917   2.984  11.057  0.00  0.00    +0.000 C 
ATOM     14  C   UNL     1       5.280   2.571  11.556  0.00  0.00    +0.000 C 
ATOM     15  O   UNL     1       5.725   1.445  11.345  0.00  0.00    +0.000 OA
ENDBRANCH   7  14
ENDBRANCH   1  11
BRANCH   4  16
ATOM     16  C   UNL     1       6.405   6.262  18.228  0.00  0.00    +0.000 C 
BRANCH  16  17
ATOM     17  C   UNL     1       6.417   4.819  18.774  0.00  0.00    +0.000 C 
BRANCH  17  18
ATOM     18  O   UNL     1       7.484   4.059  18.190  0.00  0.00    +0.000 OA
ATOM     19  H   UNL     1       7.658   4.415  17.302  0.00  0.00    +0.000 HD
ENDBRANCH  17  18
BRANCH  17  20
ATOM     20  C   UNL     1       5.075   4.078  18.518  0.00  0.00    +0.000 C 
BRANCH  20  21
ATOM     21  N   UNL     1       4.203   4.052  19.709  0.00  0.00    +0.000 NA
ATOM     22  C   UNL     1       3.738   2.694  20.041  0.00  0.00    +0.000 C 
ATOM     23  C   UNL     1       2.802   2.680  21.281  0.00  0.00    +0.000 C 
ATOM     24  N   UNL     1       1.652   3.605  21.213  0.00  0.00    +0.000 NA
ATOM     25  C   UNL     1       0.625   3.137  20.289  0.00  0.00    +0.000 C 
ATOM     26  C   UNL     1       2.142   4.941  20.835  0.00  0.00    +0.000 C 
ATOM     27  C   UNL     1       3.049   4.965  19.588  0.00  0.00    +0.000 C 
ENDBRANCH  20  21
ENDBRANCH  17  20
ENDBRANCH  16  17
ENDBRANCH   4  16
TORSDOF 7
ENDMDL
MODEL 4
REMARK VINA RESULT:      -6.6      2.877      4.309
REMARK  Name = 
REMARK  10 active torsions:
REMARK  status: ('A' for Active; 'I' for Inactive)
REMARK    1  A    between atoms: C_1  and  C_2
REMARK    2  A    between atoms: C_2  and  C_4
REMARK    3  A    between atoms: C_8  and  N_9
REMARK    4  A    between atoms: N_12  and  C_13
REMARK    5  A    between atoms: N_12  and  C_14
REMARK    6  A    between atoms: C_14  and  C_15
REMARK    7  A    between atoms: C_15  and  O_16
REMARK    8  A    between atoms: C_15  and  C_17
REMARK    9  A    between atoms: C_17  and  N_18
REMARK   10  A    between atoms: N_21  and  C_22
REMARK                            x       y       z     vdW  Elec       q    Type
REMARK                         _______ _______ _______ _____ _____    ______ ____
ROOT
ATOM      1  N   UNL     1       5.932   5.339  15.761  0.00  0.00    +0.000 N 
ATOM      2  C   UNL     1       6.641   5.116  16.920  0.00  0.00    +0.000 C 
ATOM      3  O   UNL     1       7.829   4.802  16.942  0.00  0.00    +0.000 OA
ATOM      4  N   UNL     1       5.903   5.288  18.097  0.00  0.00    +0.000 N 
ATOM      5  C   UNL     1       6.661   5.072  19.328  0.00  0.00    +0.000 C 
ATOM      6  H   UNL     1       5.235   6.069  15.818  0.00  0.00    +0.000 HD
ENDROOT
BRANCH   1  11
ATOM      7  C   UNL     1       5.995   3.669  12.445  0.00  0.00    +0.000 A 
ATOM      8  C   UNL     1       7.190   4.159  11.910  0.00  0.00    +0.000 A 
ATOM      9  C   UNL     1       7.969   5.046  12.649  0.00  0.00    +0.000 A 
ATOM     10  C   UNL     1       7.559   5.439  13.921  0.00  0.00    +0.000 A 
ATOM     11  C   UNL     1       6.360   4.973  14.469  0.00  0.00    +0.000 A 
ATOM     12  C   UNL     1       5.586   4.073  13.729  0.00  0.00    +0.000 A 
BRANCH   7  14
ATOM     13  C   UNL     1       3.783   3.166  11.212  0.00  0.00    +0.000 C 
ATOM     14  C   UNL     1       5.142   2.711  11.686  0.00  0.00    +0.000 C 
ATOM     15  O   UNL     1       5.561   1.581  11.443  0.00  0.00    +0.000 OA
ENDBRANCH   7  14
ENDBRANCH   1  11
BRANCH   4  16
ATOM     16  C   UNL     1       4.441   5.030  18.142  0.00  0.00    +0.000 C 
BRANCH  16  17
ATOM     17  C   UNL     1       3.660   5.848  19.192  0.00  0.00    +0.000 C 
BRANCH  17  18
ATOM     18  O   UNL     1       3.291   5.027  20.309  0.00  0.00    +0.000 OA
ATOM     19  H   UNL     1       2.760   5.567  20.919  0.00  0.00    +0.000 HD
ENDBRANCH  17  18
BRANCH  17  20
ATOM     20  C   UNL     1       2.378   6.499  18.602  0.00  0.00    +0.000 C 
BRANCH  20  21
ATOM     21  N   UNL     1       2.236   7.919  18.978  0.00  0.00    +0.000 NA
ATOM     22  C   UNL     1       1.373   8.109  20.157  0.00  0.00    +0.000 C 
ATOM     23  C   UNL     1       1.210   9.608  20.531  0.00  0.00    +0.000 C 
ATOM     24  N   UNL     1       0.764  10.487  19.430  0.00  0.00    +0.000 NA
ATOM     25  C   UNL     1      -0.647  10.295  19.113  0.00  0.00    +0.000 C 
ATOM     26  C   UNL     1       1.615  10.242  18.254  0.00  0.00    +0.000 C 
ATOM     27  C   UNL     1       1.757   8.758  17.861  0.00  0.00    +0.000 C 
ENDBRANCH  20  21
ENDBRANCH  17  20
ENDBRANCH  16  17
ENDBRANCH   4  16
TORSDOF 7
ENDMDL
MODEL 5
REMARK VINA RESULT:      -6.6      0.905      1.044
REMARK  Name = 
REMARK  10 active torsions:
REMARK  status: ('A' for Active; 'I' for Inactive)
REMARK    1  A    between atoms: C_1  and  C_2
REMARK    2  A    between atoms: C_2  and  C_4
REMARK    3  A    between atoms: C_8  and  N_9
REMARK    4  A    between atoms: N_12  and  C_13
REMARK    5  A    between atoms: N_12  and  C_14
REMARK    6  A    between atoms: C_14  and  C_15
REMARK    7  A    between atoms: C_15  and  O_16
REMARK    8  A    between atoms: C_15  and  C_17
REMARK    9  A    between atoms: C_17  and  N_18
REMARK   10  A    between atoms: N_21  and  C_22
REMARK                            x       y       z     vdW  Elec       q    Type
REMARK                         _______ _______ _______ _____ _____    ______ ____
ROOT
ATOM      1  N   UNL     1       5.960   5.168  15.593  0.00  0.00    +0.000 N 
ATOM      2  C   UNL     1       5.269   6.317  15.908  0.00  0.00    +0.000 C 
ATOM      3  O   UNL     1       4.742   7.046  15.071  0.00  0.00    +0.000 OA
ATOM      4  N   UNL     1       5.195   6.595  17.278  0.00  0.00    +0.000 N 
ATOM      5  C   UNL     1       4.443   7.803  17.613  0.00  0.00    +0.000 C 
ATOM      6  H   UNL     1       5.863   4.413  16.257  0.00  0.00    +0.000 HD
ENDROOT
BRANCH   1  11
ATOM      7  C   UNL     1       6.074   3.525  12.265  0.00  0.00    +0.000 A 
ATOM      8  C   UNL     1       7.261   4.044  11.739  0.00  0.00    +0.000 A 
ATOM      9  C   UNL     1       8.018   4.942  12.489  0.00  0.00    +0.000 A 
ATOM     10  C   UNL     1       7.594   5.316  13.762  0.00  0.00    +0.000 A 
ATOM     11  C   UNL     1       6.402   4.821  14.301  0.00  0.00    +0.000 A 
ATOM     12  C   UNL     1       5.650   3.911  13.550  0.00  0.00    +0.000 A 
BRANCH   7  14
ATOM     13  C   UNL     1       3.898   3.000  10.979  0.00  0.00    +0.000 C 
ATOM     14  C   UNL     1       5.245   2.556  11.494  0.00  0.00    +0.000 C 
ATOM     15  O   UNL     1       5.674   1.425  11.276  0.00  0.00    +0.000 OA
ENDBRANCH   7  14
ENDBRANCH   1  11
BRANCH   4  16
ATOM     16  C   UNL     1       6.270   6.178  18.214  0.00  0.00    +0.000 C 
BRANCH  16  17
ATOM     17  C   UNL     1       5.882   5.061  19.206  0.00  0.00    +0.000 C 
BRANCH  17  18
ATOM     18  O   UNL     1       6.261   3.773  18.700  0.00  0.00    +0.000 OA
ATOM     19  H   UNL     1       6.292   3.152  19.448  0.00  0.00    +0.000 HD
ENDBRANCH  17  18
BRANCH  17  20
ATOM     20  C   UNL     1       4.359   5.049  19.518  0.00  0.00    +0.000 C 
BRANCH  20  21
ATOM     21  N   UNL     1       3.742   3.729  19.286  0.00  0.00    +0.000 NA
ATOM     22  C   UNL     1       3.156   3.607  17.939  0.00  0.00    +0.000 C 
ATOM     23  C   UNL     1       2.487   2.223  17.712  0.00  0.00    +0.000 C 
ATOM     24  N   UNL     1       1.494   1.827  18.732  0.00  0.00    +0.000 NA
ATOM     25  C   UNL     1       0.250   2.578  18.606  0.00  0.00    +0.000 C 
ATOM     26  C   UNL     1       2.093   2.003  20.067  0.00  0.00    +0.000 C 
ATOM     27  C   UNL     1       2.733   3.385  20.308  0.00  0.00    +0.000 C 
ENDBRANCH  20  21
ENDBRANCH  17  20
ENDBRANCH  16  17
ENDBRANCH   4  16
TORSDOF 7
ENDMDL
MODEL 6
REMARK VINA RESULT:      -6.6      1.340      1.655
REMARK  Name = 
REMARK  10 active torsions:
REMARK  status: ('A' for Active; 'I' for Inactive)
REMARK    1  A    between atoms: C_1  and  C_2
REMARK    2  A    between atoms: C_2  and  C_4
REMARK    3  A    between atoms: C_8  and  N_9
REMARK    4  A    between atoms: N_12  and  C_13
REMARK    5  A    between atoms: N_12  and  C_14
REMARK    6  A    between atoms: C_14  and  C_15
REMARK    7  A    between atoms: C_15  and  O_16
REMARK    8  A    between atoms: C_15  and  C_17
REMARK    9  A    between atoms: C_17  and  N_18
REMARK   10  A    between atoms: N_21  and  C_22
REMARK                            x       y       z     vdW  Elec       q    Type
REMARK                         _______ _______ _______ _____ _____    ______ ____
ROOT
ATOM      1  N   UNL     1       5.607   5.074  15.510  0.00  0.00    +0.000 N 
ATOM      2  C   UNL     1       5.105   6.310  15.853  0.00  0.00    +0.000 C 
ATOM      3  O   UNL     1       4.890   7.206  15.041  0.00  0.00    +0.000 OA
ATOM      4  N   UNL     1       4.838   6.472  17.217  0.00  0.00    +0.000 N 
ATOM      5  C   UNL     1       4.285   7.777  17.578  0.00  0.00    +0.000 C 
ATOM      6  H   UNL     1       5.247   4.299  16.050  0.00  0.00    +0.000 HD
ENDROOT
BRANCH   1  11
ATOM      7  C   UNL     1       6.197   3.418  12.240  0.00  0.00    +0.000 A 
ATOM      8  C   UNL     1       7.372   4.046  11.817  0.00  0.00    +0.000 A 
ATOM      9  C   UNL     1       7.963   5.021  12.617  0.00  0.00    +0.000 A 
ATOM     10  C   UNL     1       7.385   5.365  13.837  0.00  0.00    +0.000 A 
ATOM     11  C   UNL     1       6.202   4.759  14.272  0.00  0.00    +0.000 A 
ATOM     12  C   UNL     1       5.617   3.772  13.471  0.00  0.00    +0.000 A 
BRANCH   7  14
ATOM     13  C   UNL     1       6.343   1.143  11.026  0.00  0.00    +0.000 C 
ATOM     14  C   UNL     1       5.543   2.363  11.413  0.00  0.00    +0.000 C 
ATOM     15  O   UNL     1       4.368   2.493  11.077  0.00  0.00    +0.000 OA
ENDBRANCH   7  14
ENDBRANCH   1  11
BRANCH   4  16
ATOM     16  C   UNL     1       5.623   5.754  18.253  0.00  0.00    +0.000 C 
BRANCH  16  17
ATOM     17  C   UNL     1       4.963   4.476  18.811  0.00  0.00    +0.000 C 
BRANCH  17  18
ATOM     18  O   UNL     1       5.938   3.445  19.022  0.00  0.00    +0.000 OA
ATOM     19  H   UNL     1       5.928   2.856  18.248  0.00  0.00    +0.000 HD
ENDBRANCH  17  18
BRANCH  17  20
ATOM     20  C   UNL     1       3.849   3.928  17.876  0.00  0.00    +0.000 C 
BRANCH  20  21
ATOM     21  N   UNL     1       2.558   3.755  18.570  0.00  0.00    +0.000 NA
ATOM     22  C   UNL     1       2.433   4.619  19.757  0.00  0.00    +0.000 C 
ATOM     23  C   UNL     1       1.081   4.412  20.494  0.00  0.00    +0.000 C 
ATOM     24  N   UNL     1       0.765   3.014  20.852  0.00  0.00    +0.000 NA
ATOM     25  C   UNL     1       1.576   2.536  21.965  0.00  0.00    +0.000 C 
ATOM     26  C   UNL     1       0.943   2.170  19.658  0.00  0.00    +0.000 C 
ATOM     27  C   UNL     1       2.294   2.349  18.939  0.00  0.00    +0.000 C 
ENDBRANCH  20  21
ENDBRANCH  17  20
ENDBRANCH  16  17
ENDBRANCH   4  16
TORSDOF 7
ENDMDL
MODEL 7
REMARK VINA RESULT:      -6.5      1.021      1.201
REMARK  Name = 
REMARK  10 active torsions:
REMARK  status: ('A' for Active; 'I' for Inactive)
REMARK    1  A    between atoms: C_1  and  C_2
REMARK    2  A    between atoms: C_2  and  C_4
REMARK    3  A    between atoms: C_8  and  N_9
REMARK    4  A    between atoms: N_12  and  C_13
REMARK    5  A    between atoms: N_12  and  C_14
REMARK    6  A    between atoms: C_14  and  C_15
REMARK    7  A    between atoms: C_15  and  O_16
REMARK    8  A    between atoms: C_15  and  C_17
REMARK    9  A    between atoms: C_17  and  N_18
REMARK   10  A    between atoms: N_21  and  C_22
REMARK                            x       y       z     vdW  Elec       q    Type
REMARK                         _______ _______ _______ _____ _____    ______ ____
ROOT
ATOM      1  N   UNL     1       6.146   5.173  15.569  0.00  0.00    +0.000 N 
ATOM      2  C   UNL     1       5.348   6.245  15.904  0.00  0.00    +0.000 C 
ATOM      3  O   UNL     1       4.693   6.888  15.088  0.00  0.00    +0.000 OA
ATOM      4  N   UNL     1       5.325   6.549  17.271  0.00  0.00    +0.000 N 
ATOM      5  C   UNL     1       4.461   7.673  17.629  0.00  0.00    +0.000 C 
ATOM      6  H   UNL     1       6.174   4.429  16.253  0.00  0.00    +0.000 HD
ENDROOT
BRANCH   1  11
ATOM      7  C   UNL     1       6.227   3.491  12.261  0.00  0.00    +0.000 A 
ATOM      8  C   UNL     1       7.334   4.103  11.664  0.00  0.00    +0.000 A 
ATOM      9  C   UNL     1       8.047   5.077  12.360  0.00  0.00    +0.000 A 
ATOM     10  C   UNL     1       7.659   5.434  13.650  0.00  0.00    +0.000 A 
ATOM     11  C   UNL     1       6.547   4.845  14.259  0.00  0.00    +0.000 A 
ATOM     12  C   UNL     1       5.840   3.859  13.562  0.00  0.00    +0.000 A 
BRANCH   7  14
ATOM     13  C   UNL     1       6.123   1.129  11.223  0.00  0.00    +0.000 C 
ATOM     14  C   UNL     1       5.448   2.439  11.548  0.00  0.00    +0.000 C 
ATOM     15  O   UNL     1       4.273   2.645  11.254  0.00  0.00    +0.000 OA
ENDBRANCH   7  14
ENDBRANCH   1  11
BRANCH   4  16
ATOM     16  C   UNL     1       6.493   6.280  18.147  0.00  0.00    +0.000 C 
BRANCH  16  17
ATOM     17  C   UNL     1       6.225   5.320  19.325  0.00  0.00    +0.000 C 
BRANCH  17  18
ATOM     18  O   UNL     1       7.329   5.314  20.241  0.00  0.00    +0.000 OA
ATOM     19  H   UNL     1       7.508   4.391  20.493  0.00  0.00    +0.000 HD
ENDBRANCH  17  18
BRANCH  17  20
ATOM     20  C   UNL     1       5.956   3.864  18.854  0.00  0.00    +0.000 C 
BRANCH  20  21
ATOM     21  N   UNL     1       4.558   3.445  19.068  0.00  0.00    +0.000 NA
ATOM     22  C   UNL     1       3.943   2.883  17.852  0.00  0.00    +0.000 C 
ATOM     23  C   UNL     1       2.463   2.466  18.081  0.00  0.00    +0.000 C 
ATOM     24  N   UNL     1       1.593   3.517  18.647  0.00  0.00    +0.000 NA
ATOM     25  C   UNL     1       1.271   4.550  17.669  0.00  0.00    +0.000 C 
ATOM     26  C   UNL     1       2.254   4.090  19.832  0.00  0.00    +0.000 C 
ATOM     27  C   UNL     1       3.713   4.532  19.604  0.00  0.00    +0.000 C 
ENDBRANCH  20  21
ENDBRANCH  17  20
ENDBRANCH  16  17
ENDBRANCH   4  16
TORSDOF 7
ENDMDL
MODEL 8
REMARK VINA RESULT:      -6.5      1.668      2.544
REMARK  Name = 
REMARK  10 active torsions:
REMARK  status: ('A' for Active; 'I' for Inactive)
REMARK    1  A    between atoms: C_1  and  C_2
REMARK    2  A    between atoms: C_2  and  C_4
REMARK    3  A    between atoms: C_8  and  N_9
REMARK    4  A    between atoms: N_12  and  C_13
REMARK    5  A    between atoms: N_12  and  C_14
REMARK    6  A    between atoms: C_14  and  C_15
REMARK    7  A    between atoms: C_15  and  O_16
REMARK    8  A    between atoms: C_15  and  C_17
REMARK    9  A    between atoms: C_17  and  N_18
REMARK   10  A    between atoms: N_21  and  C_22
REMARK                            x       y       z     vdW  Elec       q    Type
REMARK                         _______ _______ _______ _____ _____    ______ ____
ROOT
ATOM      1  N   UNL     1       5.823   5.327  15.691  0.00  0.00    +0.000 N 
ATOM      2  C   UNL     1       6.524   5.183  16.868  0.00  0.00    +0.000 C 
ATOM      3  O   UNL     1       7.728   4.948  16.919  0.00  0.00    +0.000 OA
ATOM      4  N   UNL     1       5.754   5.339  18.026  0.00  0.00    +0.000 N 
ATOM      5  C   UNL     1       6.502   5.207  19.276  0.00  0.00    +0.000 C 
ATOM      6  H   UNL     1       5.079   6.011  15.715  0.00  0.00    +0.000 HD
ENDROOT
BRANCH   1  11
ATOM      7  C   UNL     1       6.020   3.621  12.399  0.00  0.00    +0.000 A 
ATOM      8  C   UNL     1       7.223   4.125  11.896  0.00  0.00    +0.000 A 
ATOM      9  C   UNL     1       7.962   5.034  12.648  0.00  0.00    +0.000 A 
ATOM     10  C   UNL     1       7.506   5.434  13.902  0.00  0.00    +0.000 A 
ATOM     11  C   UNL     1       6.298   4.954  14.418  0.00  0.00    +0.000 A 
ATOM     12  C   UNL     1       5.563   4.032  13.664  0.00  0.00    +0.000 A 
BRANCH   7  14
ATOM     13  C   UNL     1       3.837   3.049  11.144  0.00  0.00    +0.000 C 
ATOM     14  C   UNL     1       5.208   2.639  11.624  0.00  0.00    +0.000 C 
ATOM     15  O   UNL     1       5.669   1.528  11.375  0.00  0.00    +0.000 OA
ENDBRANCH   7  14
ENDBRANCH   1  11
BRANCH   4  16
ATOM     16  C   UNL     1       4.312   4.987  18.054  0.00  0.00    +0.000 C 
BRANCH  16  17
ATOM     17  C   UNL     1       3.341   6.179  17.918  0.00  0.00    +0.000 C 
BRANCH  17  18
ATOM     18  O   UNL     1       4.046   7.376  17.561  0.00  0.00    +0.000 OA
ATOM     19  H   UNL     1       4.991   7.237  17.746  0.00  0.00    +0.000 HD
ENDBRANCH  17  18
BRANCH  17  20
ATOM     20  C   UNL     1       2.538   6.441  19.223  0.00  0.00    +0.000 C 
BRANCH  20  21
ATOM     21  N   UNL     1       1.865   5.229  19.730  0.00  0.00    +0.000 NA
ATOM     22  C   UNL     1       2.687   4.494  20.708  0.00  0.00    +0.000 C 
ATOM     23  C   UNL     1       1.981   3.207  21.219  0.00  0.00    +0.000 C 
ATOM     24  N   UNL     1       1.506   2.288  20.165  0.00  0.00    +0.000 NA
ATOM     25  C   UNL     1       2.604   1.570  19.528  0.00  0.00    +0.000 C 
ATOM     26  C   UNL     1       0.728   3.059  19.181  0.00  0.00    +0.000 C 
ATOM     27  C   UNL     1       1.435   4.321  18.648  0.00  0.00    +0.000 C 
ENDBRANCH  20  21
ENDBRANCH  17  20
ENDBRANCH  16  17
ENDBRANCH   4  16
TORSDOF 7
ENDMDL
MODEL 9
REMARK VINA RESULT:      -6.4      2.906      4.278
REMARK  Name = 
REMARK  10 active torsions:
REMARK  status: ('A' for Active; 'I' for Inactive)
REMARK    1  A    between atoms: C_1  and  C_2
REMARK    2  A    between atoms: C_2  and  C_4
REMARK    3  A    between atoms: C_8  and  N_9
REMARK    4  A    between atoms: N_12  and  C_13
REMARK    5  A    between atoms: N_12  and  C_14
REMARK    6  A    between atoms: C_14  and  C_15
REMARK    7  A    between atoms: C_15  and  O_16
REMARK    8  A    between atoms: C_15  and  C_17
REMARK    9  A    between atoms: C_17  and  N_18
REMARK   10  A    between atoms: N_21  and  C_22
REMARK                            x       y       z     vdW  Elec       q    Type
REMARK                         _______ _______ _______ _____ _____    ______ ____
ROOT
ATOM      1  N   UNL     1       5.712   5.250  15.636  0.00  0.00    +0.000 N 
ATOM      2  C   UNL     1       6.362   5.109  16.842  0.00  0.00    +0.000 C 
ATOM      3  O   UNL     1       7.567   4.892  16.946  0.00  0.00    +0.000 OA
ATOM      4  N   UNL     1       5.540   5.247  17.967  0.00  0.00    +0.000 N 
ATOM      5  C   UNL     1       6.234   5.118  19.247  0.00  0.00    +0.000 C 
ATOM      6  H   UNL     1       4.958   5.923  15.631  0.00  0.00    +0.000 HD
ENDROOT
BRANCH   1  11
ATOM      7  C   UNL     1       6.112   3.525  12.373  0.00  0.00    +0.000 A 
ATOM      8  C   UNL     1       7.300   4.092  11.902  0.00  0.00    +0.000 A 
ATOM      9  C   UNL     1       7.962   5.050  12.667  0.00  0.00    +0.000 A 
ATOM     10  C   UNL     1       7.443   5.436  13.900  0.00  0.00    +0.000 A 
ATOM     11  C   UNL     1       6.249   4.892  14.383  0.00  0.00    +0.000 A 
ATOM     12  C   UNL     1       5.592   3.923  13.618  0.00  0.00    +0.000 A 
BRANCH   7  14
ATOM     13  C   UNL     1       6.091   1.203  11.244  0.00  0.00    +0.000 C 
ATOM     14  C   UNL     1       5.382   2.491  11.584  0.00  0.00    +0.000 C 
ATOM     15  O   UNL     1       4.220   2.694  11.242  0.00  0.00    +0.000 OA
ENDBRANCH   7  14
ENDBRANCH   1  11
BRANCH   4  16
ATOM     16  C   UNL     1       4.103   4.874  17.929  0.00  0.00    +0.000 C 
BRANCH  16  17
ATOM     17  C   UNL     1       3.169   5.764  18.775  0.00  0.00    +0.000 C 
BRANCH  17  18
ATOM     18  O   UNL     1       1.838   5.231  18.801  0.00  0.00    +0.000 OA
ATOM     19  H   UNL     1       1.282   5.828  19.331  0.00  0.00    +0.000 HD
ENDBRANCH  17  18
BRANCH  17  20
ATOM     20  C   UNL     1       3.113   7.227  18.254  0.00  0.00    +0.000 C 
BRANCH  20  21
ATOM     21  N   UNL     1       1.882   7.931  18.664  0.00  0.00    +0.000 NA
ATOM     22  C   UNL     1       1.625   9.137  17.859  0.00  0.00    +0.000 C 
ATOM     23  C   UNL     1       0.340   9.884  18.313  0.00  0.00    +0.000 C 
ATOM     24  N   UNL     1       0.279  10.215  19.752  0.00  0.00    +0.000 NA
ATOM     25  C   UNL     1       1.178  11.310  20.102  0.00  0.00    +0.000 C 
ATOM     26  C   UNL     1       0.586   9.002  20.529  0.00  0.00    +0.000 C 
ATOM     27  C   UNL     1       1.874   8.272  20.101  0.00  0.00    +0.000 C 
ENDBRANCH  20  21
ENDBRANCH  17  20
ENDBRANCH  16  17
ENDBRANCH   4  16
TORSDOF 7
ENDMDL
