MODEL 1
REMARK VINA RESULT:      -6.9      0.000      0.000
REMARK  Name = 
REMARK  4 active torsions:
REMARK  status: ('A' for Active; 'I' for Inactive)
REMARK    1  A    between atoms: C_1  and  N_2
REMARK    2  A    between atoms: C_7  and  C_8
REMARK    3  A    between atoms: N_17  and  C_18
REMARK    4  A    between atoms: C_18  and  C_19
REMARK                            x       y       z     vdW  Elec       q    Type
REMARK                         _______ _______ _______ _____ _____    ______ ____
ROOT
ATOM      1  C   UNL     1       7.124   4.515  15.509  0.00  0.00    +0.000 C 
ATOM      2  O   UNL     1       8.320   4.604  15.792  0.00  0.00    +0.000 OA
ATOM      3  N   UNL     1       6.134   4.659  16.467  0.00  0.00    +0.000 N 
ATOM      4  C   UNL     1       6.429   4.782  17.877  0.00  0.00    +0.000 C 
ATOM      5  C   UNL     1       5.502   5.896  18.334  0.00  0.00    +0.000 C 
ATOM      6  C   UNL     1       4.226   5.713  17.464  0.00  0.00    +0.000 C 
ATOM      7  C   UNL     1       3.622   7.072  17.080  0.00  0.00    +0.000 C 
ATOM      8  C   UNL     1       2.917   7.735  18.255  0.00  0.00    +0.000 C 
ATOM      9  C   UNL     1       1.846   6.788  18.766  0.00  0.00    +0.000 C 
ATOM     10  N   UNL     1       2.423   5.506  19.138  0.00  0.00    +0.000 N 
ATOM     11  C   UNL     1       3.262   4.822  18.267  0.00  0.00    +0.000 C 
ATOM     12  O   UNL     1       3.407   3.602  18.323  0.00  0.00    +0.000 OA
ATOM     13  C   UNL     1       4.738   4.988  16.207  0.00  0.00    +0.000 C 
ENDROOT
BRANCH   1  20
ATOM     14  C   UNL     1       8.422   5.683  12.974  0.00  0.00    +0.000 C 
ATOM     15  N   UNL     1       7.271   4.805  13.008  0.00  0.00    +0.000 N 
ATOM     16  C   UNL     1       6.558   4.435  11.895  0.00  0.00    +0.000 A 
ATOM     17  C   UNL     1       5.537   3.614  12.301  0.00  0.00    +0.000 A 
ATOM     18 CL   UNL     1       4.361   2.877  11.328  0.00  0.00    +0.000 Cl
ATOM     19  C   UNL     1       5.628   3.486  13.699  0.00  0.00    +0.000 A 
ATOM     20  C   UNL     1       6.680   4.285  14.143  0.00  0.00    +0.000 A 
ENDBRANCH   1  20
BRANCH  10  21
ATOM     21  C   UNL     1       2.332   5.038  20.511  0.00  0.00    +0.000 C 
BRANCH  21  22
ATOM     22  C   UNL     1       1.132   4.195  20.800  0.00  0.00    +0.000 C 
ATOM     23  C   UNL     1       0.730   2.993  19.984  0.00  0.00    +0.000 C 
ATOM     24  C   UNL     1       1.377   2.798  21.322  0.00  0.00    +0.000 C 
ENDBRANCH  21  22
ENDBRANCH  10  21
TORSDOF 3
ENDMDL
MODEL 2
REMARK VINA RESULT:      -6.6      6.299      9.492
REMARK  Name = 
REMARK  4 active torsions:
REMARK  status: ('A' for Active; 'I' for Inactive)
REMARK    1  A    between atoms: C_1  and  N_2
REMARK    2  A    between atoms: C_7  and  C_8
REMARK    3  A    between atoms: N_17  and  C_18
REMARK    4  A    between atoms: C_18  and  C_19
REMARK                            x       y       z     vdW  Elec       q    Type
REMARK                         _______ _______ _______ _____ _____    ______ ____
ROOT
ATOM      1  C   UNL     1      -0.487  13.023  19.556  0.00  0.00    +0.000 C 
ATOM      2  O   UNL     1      -1.667  13.296  19.334  0.00  0.00    +0.000 OA
ATOM      3  N   UNL     1      -0.063  11.720  19.757  0.00  0.00    +0.000 N 
ATOM      4  C   UNL     1      -0.986  10.611  19.861  0.00  0.00    +0.000 C 
ATOM      5  C   UNL     1      -0.330   9.530  19.017  0.00  0.00    +0.000 C 
ATOM      6  C   UNL     1       1.194   9.749  19.231  0.00  0.00    +0.000 C 
ATOM      7  C   UNL     1       1.976   9.476  17.937  0.00  0.00    +0.000 C 
ATOM      8  C   UNL     1       2.073   7.988  17.633  0.00  0.00    +0.000 C 
ATOM      9  C   UNL     1       2.723   7.298  18.818  0.00  0.00    +0.000 C 
ATOM     10  N   UNL     1       1.975   7.550  20.039  0.00  0.00    +0.000 N 
ATOM     11  C   UNL     1       1.615   8.842  20.401  0.00  0.00    +0.000 C 
ATOM     12  O   UNL     1       1.399   9.157  21.570  0.00  0.00    +0.000 OA
ATOM     13  C   UNL     1       1.303  11.236  19.611  0.00  0.00    +0.000 C 
ENDROOT
BRANCH   1  20
ATOM     14  C   UNL     1       0.548  14.456  22.076  0.00  0.00    +0.000 C 
ATOM     15  N   UNL     1       1.006  14.689  20.723  0.00  0.00    +0.000 N 
ATOM     16  C   UNL     1       1.927  15.647  20.380  0.00  0.00    +0.000 A 
ATOM     17  C   UNL     1       2.110  15.591  19.021  0.00  0.00    +0.000 A 
ATOM     18 CL   UNL     1       3.141  16.554  18.082  0.00  0.00    +0.000 Cl
ATOM     19  C   UNL     1       1.274  14.574  18.525  0.00  0.00    +0.000 A 
ATOM     20  C   UNL     1       0.539  14.054  19.588  0.00  0.00    +0.000 A 
ENDBRANCH   1  20
BRANCH  10  21
ATOM     21  C   UNL     1       1.380   6.443  20.769  0.00  0.00    +0.000 C 
BRANCH  21  22
ATOM     22  C   UNL     1       1.923   5.098  20.408  0.00  0.00    +0.000 C 
ATOM     23  C   UNL     1       1.868   3.895  21.316  0.00  0.00    +0.000 C 
ATOM     24  C   UNL     1       0.925   3.993  20.155  0.00  0.00    +0.000 C 
ENDBRANCH  21  22
ENDBRANCH  10  21
TORSDOF 3
ENDMDL
MODEL 3
REMARK VINA RESULT:      -6.4      9.268     12.002
REMARK  Name = 
REMARK  4 active torsions:
REMARK  status: ('A' for Active; 'I' for Inactive)
REMARK    1  A    between atoms: C_1  and  N_2
REMARK    2  A    between atoms: C_7  and  C_8
REMARK    3  A    between atoms: N_17  and  C_18
REMARK    4  A    between atoms: C_18  and  C_19
REMARK                            x       y       z     vdW  Elec       q    Type
REMARK                         _______ _______ _______ _____ _____    ______ ____
ROOT
ATOM      1  C   UNL     1      -0.504  11.082  22.167  0.00  0.00    +0.000 C 
ATOM      2  O   UNL     1      -0.066  10.660  23.238  0.00  0.00    +0.000 OA
ATOM      3  N   UNL     1      -1.725  11.730  22.081  0.00  0.00    +0.000 N 
ATOM      4  C   UNL     1      -2.630  11.833  23.204  0.00  0.00    +0.000 C 
ATOM      5  C   UNL     1      -3.102  13.277  23.143  0.00  0.00    +0.000 C 
ATOM      6  C   UNL     1      -3.155  13.598  21.623  0.00  0.00    +0.000 C 
ATOM      7  C   UNL     1      -2.717  15.045  21.350  0.00  0.00    +0.000 C 
ATOM      8  C   UNL     1      -3.784  16.050  21.761  0.00  0.00    +0.000 C 
ATOM      9  C   UNL     1      -5.064  15.720  21.015  0.00  0.00    +0.000 C 
ATOM     10  N   UNL     1      -5.481  14.352  21.283  0.00  0.00    +0.000 N 
ATOM     11  C   UNL     1      -4.588  13.296  21.152  0.00  0.00    +0.000 C 
ATOM     12  O   UNL     1      -4.965  12.146  20.929  0.00  0.00    +0.000 OA
ATOM     13  C   UNL     1      -2.146  12.615  21.003  0.00  0.00    +0.000 C 
ENDROOT
BRANCH   1  20
ATOM     14  C   UNL     1       1.157  13.303  20.831  0.00  0.00    +0.000 C 
ATOM     15  N   UNL     1       1.004  11.951  20.340  0.00  0.00    +0.000 N 
ATOM     16  C   UNL     1       1.533  11.502  19.156  0.00  0.00    +0.000 A 
ATOM     17  C   UNL     1       1.181  10.184  19.007  0.00  0.00    +0.000 A 
ATOM     18 CL   UNL     1       1.576   9.152  17.722  0.00  0.00    +0.000 Cl
ATOM     19  C   UNL     1       0.413   9.824  20.130  0.00  0.00    +0.000 A 
ATOM     20  C   UNL     1       0.253  10.952  20.931  0.00  0.00    +0.000 A 
ENDBRANCH   1  20
BRANCH  10  21
ATOM     21  C   UNL     1      -6.759  14.094  21.926  0.00  0.00    +0.000 C 
BRANCH  21  22
ATOM     22  C   UNL     1      -6.705  14.053  23.420  0.00  0.00    +0.000 C 
ATOM     23  C   UNL     1      -7.916  14.166  24.311  0.00  0.00    +0.000 C 
ATOM     24  C   UNL     1      -7.271  12.829  24.101  0.00  0.00    +0.000 C 
ENDBRANCH  21  22
ENDBRANCH  10  21
TORSDOF 3
ENDMDL
MODEL 4
REMARK VINA RESULT:      -6.4      9.093     10.998
REMARK  Name = 
REMARK  4 active torsions:
REMARK  status: ('A' for Active; 'I' for Inactive)
REMARK    1  A    between atoms: C_1  and  N_2
REMARK    2  A    between atoms: C_7  and  C_8
REMARK    3  A    between atoms: N_17  and  C_18
REMARK    4  A    between atoms: C_18  and  C_19
REMARK                            x       y       z     vdW  Elec       q    Type
REMARK                         _______ _______ _______ _____ _____    ______ ____
ROOT
ATOM      1  C   UNL     1      -1.101  10.754  19.359  0.00  0.00    +0.000 C 
ATOM      2  O   UNL     1      -1.016   9.733  20.043  0.00  0.00    +0.000 OA
ATOM      3  N   UNL     1      -0.353  11.886  19.638  0.00  0.00    +0.000 N 
ATOM      4  C   UNL     1       0.467  12.001  20.824  0.00  0.00    +0.000 C 
ATOM      5  C   UNL     1       1.753  12.621  20.300  0.00  0.00    +0.000 C 
ATOM      6  C   UNL     1       1.285  13.569  19.160  0.00  0.00    +0.000 C 
ATOM      7  C   UNL     1       2.289  13.569  17.997  0.00  0.00    +0.000 C 
ATOM      8  C   UNL     1       3.554  14.345  18.337  0.00  0.00    +0.000 C 
ATOM      9  C   UNL     1       3.159  15.761  18.715  0.00  0.00    +0.000 C 
ATOM     10  N   UNL     1       2.216  15.757  19.822  0.00  0.00    +0.000 N 
ATOM     11  C   UNL     1       1.080  14.957  19.789  0.00  0.00    +0.000 C 
ATOM     12  O   UNL     1       0.071  15.229  20.438  0.00  0.00    +0.000 OA
ATOM     13  C   UNL     1      -0.053  12.961  18.702  0.00  0.00    +0.000 C 
ENDROOT
BRANCH   1  20
ATOM     14  C   UNL     1      -3.853  12.127  19.240  0.00  0.00    +0.000 C 
ATOM     15  N   UNL     1      -3.202  11.443  18.144  0.00  0.00    +0.000 N 
ATOM     16  C   UNL     1      -3.773  11.257  16.910  0.00  0.00    +0.000 A 
ATOM     17  C   UNL     1      -2.881  10.564  16.131  0.00  0.00    +0.000 A 
ATOM     18 CL   UNL     1      -3.086  10.074  14.522  0.00  0.00    +0.000 Cl
ATOM     19  C   UNL     1      -1.738  10.319  16.914  0.00  0.00    +0.000 A 
ATOM     20  C   UNL     1      -1.971  10.818  18.194  0.00  0.00    +0.000 A 
ENDBRANCH   1  20
BRANCH  10  21
ATOM     21  C   UNL     1       2.567  16.396  21.080  0.00  0.00    +0.000 C 
BRANCH  21  22
ATOM     22  C   UNL     1       3.050  15.458  22.139  0.00  0.00    +0.000 C 
ATOM     23  C   UNL     1       4.318  14.649  22.033  0.00  0.00    +0.000 C 
ATOM     24  C   UNL     1       4.284  15.862  22.912  0.00  0.00    +0.000 C 
ENDBRANCH  21  22
ENDBRANCH  10  21
TORSDOF 3
ENDMDL
MODEL 5
REMARK VINA RESULT:      -6.4      7.344     10.613
REMARK  Name = 
REMARK  4 active torsions:
REMARK  status: ('A' for Active; 'I' for Inactive)
REMARK    1  A    between atoms: C_1  and  N_2
REMARK    2  A    between atoms: C_7  and  C_8
REMARK    3  A    between atoms: N_17  and  C_18
REMARK    4  A    between atoms: C_18  and  C_19
REMARK                            x       y       z     vdW  Elec       q    Type
REMARK                         _______ _______ _______ _____ _____    ______ ____
ROOT
ATOM      1  C   UNL     1      -0.136  10.654  18.507  0.00  0.00    +0.000 C 
ATOM      2  O   UNL     1      -1.315  10.449  18.216  0.00  0.00    +0.000 OA
ATOM      3  N   UNL     1       0.373  11.935  18.639  0.00  0.00    +0.000 N 
ATOM      4  C   UNL     1      -0.397  13.114  18.309  0.00  0.00    +0.000 C 
ATOM      5  C   UNL     1      -0.098  14.061  19.460  0.00  0.00    +0.000 C 
ATOM      6  C   UNL     1       1.378  13.752  19.837  0.00  0.00    +0.000 C 
ATOM      7  C   UNL     1       1.589  13.844  21.357  0.00  0.00    +0.000 C 
ATOM      8  C   UNL     1       1.602  15.287  21.842  0.00  0.00    +0.000 C 
ATOM      9  C   UNL     1       2.691  16.034  21.095  0.00  0.00    +0.000 C 
ATOM     10  N   UNL     1       2.483  15.952  19.658  0.00  0.00    +0.000 N 
ATOM     11  C   UNL     1       2.257  14.728  19.039  0.00  0.00    +0.000 C 
ATOM     12  O   UNL     1       2.515  14.541  17.851  0.00  0.00    +0.000 OA
ATOM     13  C   UNL     1       1.583  12.302  19.363  0.00  0.00    +0.000 C 
ENDROOT
BRANCH   1  20
ATOM     14  C   UNL     1       0.294   9.257  21.216  0.00  0.00    +0.000 C 
ATOM     15  N   UNL     1       0.969   8.929  19.980  0.00  0.00    +0.000 N 
ATOM     16  C   UNL     1       1.957   7.982  19.875  0.00  0.00    +0.000 A 
ATOM     17  C   UNL     1       2.373   7.947  18.568  0.00  0.00    +0.000 A 
ATOM     18 CL   UNL     1       3.571   6.954  17.896  0.00  0.00    +0.000 Cl
ATOM     19  C   UNL     1       1.621   8.902  17.860  0.00  0.00    +0.000 A 
ATOM     20  C   UNL     1       0.786   9.557  18.763  0.00  0.00    +0.000 A 
ENDBRANCH   1  20
BRANCH  10  21
ATOM     21  C   UNL     1       2.262  17.162  18.884  0.00  0.00    +0.000 C 
BRANCH  21  22
ATOM     22  C   UNL     1       0.875  17.310  18.346  0.00  0.00    +0.000 C 
ATOM     23  C   UNL     1       0.114  18.612  18.323  0.00  0.00    +0.000 C 
ATOM     24  C   UNL     1       0.711  18.079  17.056  0.00  0.00    +0.000 C 
ENDBRANCH  21  22
ENDBRANCH  10  21
TORSDOF 3
ENDMDL
MODEL 6
REMARK VINA RESULT:      -6.3      7.765     11.470
REMARK  Name = 
REMARK  4 active torsions:
REMARK  status: ('A' for Active; 'I' for Inactive)
REMARK    1  A    between atoms: C_1  and  N_2
REMARK    2  A    between atoms: C_7  and  C_8
REMARK    3  A    between atoms: N_17  and  C_18
REMARK    4  A    between atoms: C_18  and  C_19
REMARK                            x       y       z     vdW  Elec       q    Type
REMARK                         _______ _______ _______ _____ _____    ______ ____
ROOT
ATOM      1  C   UNL     1      -1.896  13.895  20.778  0.00  0.00    +0.000 C 
ATOM      2  O   UNL     1      -1.434  15.036  20.757  0.00  0.00    +0.000 OA
ATOM      3  N   UNL     1      -1.137  12.792  20.424  0.00  0.00    +0.000 N 
ATOM      4  C   UNL     1       0.196  12.911  19.874  0.00  0.00    +0.000 C 
ATOM      5  C   UNL     1       0.977  11.837  20.613  0.00  0.00    +0.000 C 
ATOM      6  C   UNL     1      -0.054  10.692  20.826  0.00  0.00    +0.000 C 
ATOM      7  C   UNL     1       0.154  10.011  22.187  0.00  0.00    +0.000 C 
ATOM      8  C   UNL     1       1.385   9.117  22.195  0.00  0.00    +0.000 C 
ATOM      9  C   UNL     1       1.236   8.088  21.089  0.00  0.00    +0.000 C 
ATOM     10  N   UNL     1       1.050   8.736  19.801  0.00  0.00    +0.000 N 
ATOM     11  C   UNL     1       0.094   9.730  19.634  0.00  0.00    +0.000 C 
ATOM     12  O   UNL     1      -0.402   9.982  18.537  0.00  0.00    +0.000 OA
ATOM     13  C   UNL     1      -1.414  11.411  20.796  0.00  0.00    +0.000 C 
ENDROOT
BRANCH   1  20
ATOM     14  C   UNL     1      -2.883  13.831  23.692  0.00  0.00    +0.000 C 
ATOM     15  N   UNL     1      -3.701  13.615  22.518  0.00  0.00    +0.000 N 
ATOM     16  C   UNL     1      -5.030  13.277  22.562  0.00  0.00    +0.000 A 
ATOM     17  C   UNL     1      -5.476  13.142  21.272  0.00  0.00    +0.000 A 
ATOM     18 CL   UNL     1      -7.040  12.737  20.761  0.00  0.00    +0.000 Cl
ATOM     19  C   UNL     1      -4.386  13.400  20.420  0.00  0.00    +0.000 A 
ATOM     20  C   UNL     1      -3.261  13.635  21.209  0.00  0.00    +0.000 A 
ENDBRANCH   1  20
BRANCH  10  21
ATOM     21  C   UNL     1       2.020   8.532  18.737  0.00  0.00    +0.000 C 
BRANCH  21  22
ATOM     22  C   UNL     1       2.842   7.291  18.876  0.00  0.00    +0.000 C 
ATOM     23  C   UNL     1       2.543   5.998  18.161  0.00  0.00    +0.000 C 
ATOM     24  C   UNL     1       3.665   6.868  17.682  0.00  0.00    +0.000 C 
ENDBRANCH  21  22
ENDBRANCH  10  21
TORSDOF 3
ENDMDL
MODEL 7
REMARK VINA RESULT:      -6.3     10.667     13.474
REMARK  Name = 
REMARK  4 active torsions:
REMARK  status: ('A' for Active; 'I' for Inactive)
REMARK    1  A    between atoms: C_1  and  N_2
REMARK    2  A    between atoms: C_7  and  C_8
REMARK    3  A    between atoms: N_17  and  C_18
REMARK    4  A    between atoms: C_18  and  C_19
REMARK                            x       y       z     vdW  Elec       q    Type
REMARK                         _______ _______ _______ _____ _____    ______ ____
ROOT
ATOM      1  C   UNL     1       8.458  14.679  24.636  0.00  0.00    +0.000 C 
ATOM      2  O   UNL     1       9.060  15.517  25.308  0.00  0.00    +0.000 OA
ATOM      3  N   UNL     1       8.668  14.546  23.274  0.00  0.00    +0.000 N 
ATOM      4  C   UNL     1       9.493  15.466  22.522  0.00  0.00    +0.000 C 
ATOM      5  C   UNL     1      10.308  14.550  21.623  0.00  0.00    +0.000 C 
ATOM      6  C   UNL     1       9.342  13.378  21.292  0.00  0.00    +0.000 C 
ATOM      7  C   UNL     1      10.098  12.043  21.225  0.00  0.00    +0.000 C 
ATOM      8  C   UNL     1      10.931  11.922  19.957  0.00  0.00    +0.000 C 
ATOM      9  C   UNL     1      10.009  12.086  18.762  0.00  0.00    +0.000 C 
ATOM     10  N   UNL     1       9.302  13.355  18.823  0.00  0.00    +0.000 N 
ATOM     11  C   UNL     1       8.631  13.743  19.977  0.00  0.00    +0.000 C 
ATOM     12  O   UNL     1       7.691  14.535  19.951  0.00  0.00    +0.000 OA
ATOM     13  C   UNL     1       8.356  13.369  22.474  0.00  0.00    +0.000 C 
ENDROOT
BRANCH   1  20
ATOM     14  C   UNL     1       5.391  14.923  24.552  0.00  0.00    +0.000 C 
ATOM     15  N   UNL     1       6.137  13.863  25.195  0.00  0.00    +0.000 N 
ATOM     16  C   UNL     1       5.560  12.853  25.924  0.00  0.00    +0.000 A 
ATOM     17  C   UNL     1       6.563  12.042  26.392  0.00  0.00    +0.000 A 
ATOM     18 CL   UNL     1       6.399  10.650  27.344  0.00  0.00    +0.000 Cl
ATOM     19  C   UNL     1       7.783  12.577  25.941  0.00  0.00    +0.000 A 
ATOM     20  C   UNL     1       7.513  13.753  25.243  0.00  0.00    +0.000 A 
ENDBRANCH   1  20
BRANCH  10  21
ATOM     21  C   UNL     1       9.490  14.344  17.775  0.00  0.00    +0.000 C 
BRANCH  21  22
ATOM     22  C   UNL     1      10.518  15.386  18.081  0.00  0.00    +0.000 C 
ATOM     23  C   UNL     1      12.004  15.161  17.971  0.00  0.00    +0.000 C 
ATOM     24  C   UNL     1      11.295  15.955  16.917  0.00  0.00    +0.000 C 
ENDBRANCH  21  22
ENDBRANCH  10  21
TORSDOF 3
ENDMDL
MODEL 8
REMARK VINA RESULT:      -6.2     10.009     11.203
REMARK  Name = 
REMARK  4 active torsions:
REMARK  status: ('A' for Active; 'I' for Inactive)
REMARK    1  A    between atoms: C_1  and  N_2
REMARK    2  A    between atoms: C_7  and  C_8
REMARK    3  A    between atoms: N_17  and  C_18
REMARK    4  A    between atoms: C_18  and  C_19
REMARK                            x       y       z     vdW  Elec       q    Type
REMARK                         _______ _______ _______ _____ _____    ______ ____
ROOT
ATOM      1  C   UNL     1       2.987  16.386  18.553  0.00  0.00    +0.000 C 
ATOM      2  O   UNL     1       2.613  17.323  17.847  0.00  0.00    +0.000 OA
ATOM      3  N   UNL     1       2.116  15.708  19.390  0.00  0.00    +0.000 N 
ATOM      4  C   UNL     1       0.750  16.135  19.600  0.00  0.00    +0.000 C 
ATOM      5  C   UNL     1      -0.036  14.835  19.540  0.00  0.00    +0.000 C 
ATOM      6  C   UNL     1       0.920  13.780  20.163  0.00  0.00    +0.000 C 
ATOM      7  C   UNL     1       0.793  12.428  19.444  0.00  0.00    +0.000 C 
ATOM      8  C   UNL     1      -0.497  11.707  19.810  0.00  0.00    +0.000 C 
ATOM      9  C   UNL     1      -0.532  11.527  21.317  0.00  0.00    +0.000 C 
ATOM     10  N   UNL     1      -0.421  12.809  21.995  0.00  0.00    +0.000 N 
ATOM     11  C   UNL     1       0.588  13.706  21.663  0.00  0.00    +0.000 C 
ATOM     12  O   UNL     1       0.995  14.553  22.457  0.00  0.00    +0.000 OA
ATOM     13  C   UNL     1       2.322  14.371  19.932  0.00  0.00    +0.000 C 
ENDROOT
BRANCH   1  20
ATOM     14  C   UNL     1       5.338  17.600  20.126  0.00  0.00    +0.000 C 
ATOM     15  N   UNL     1       5.414  16.459  19.240  0.00  0.00    +0.000 N 
ATOM     16  C   UNL     1       6.581  15.806  18.929  0.00  0.00    +0.000 A 
ATOM     17  C   UNL     1       6.278  14.789  18.059  0.00  0.00    +0.000 A 
ATOM     18 CL   UNL     1       7.352  13.677  17.364  0.00  0.00    +0.000 Cl
ATOM     19  C   UNL     1       4.890  14.828  17.831  0.00  0.00    +0.000 A 
ATOM     20  C   UNL     1       4.364  15.915  18.526  0.00  0.00    +0.000 A 
ENDBRANCH   1  20
BRANCH  10  21
ATOM     21  C   UNL     1      -1.499  13.277  22.850  0.00  0.00    +0.000 C 
BRANCH  21  22
ATOM     22  C   UNL     1      -2.632  12.313  23.003  0.00  0.00    +0.000 C 
ATOM     23  C   UNL     1      -3.731  12.459  24.025  0.00  0.00    +0.000 C 
ATOM     24  C   UNL     1      -4.005  12.785  22.588  0.00  0.00    +0.000 C 
ENDBRANCH  21  22
ENDBRANCH  10  21
TORSDOF 3
ENDMDL
MODEL 9
REMARK VINA RESULT:      -6.2      6.854     10.055
REMARK  Name = 
REMARK  4 active torsions:
REMARK  status: ('A' for Active; 'I' for Inactive)
REMARK    1  A    between atoms: C_1  and  N_2
REMARK    2  A    between atoms: C_7  and  C_8
REMARK    3  A    between atoms: N_17  and  C_18
REMARK    4  A    between atoms: C_18  and  C_19
REMARK                            x       y       z     vdW  Elec       q    Type
REMARK                         _______ _______ _______ _____ _____    ______ ____
ROOT
ATOM      1  C   UNL     1      -0.725  13.238  20.778  0.00  0.00    +0.000 C 
ATOM      2  O   UNL     1      -1.924  13.514  20.735  0.00  0.00    +0.000 OA
ATOM      3  N   UNL     1      -0.274  11.929  20.743  0.00  0.00    +0.000 N 
ATOM      4  C   UNL     1      -1.172  10.796  20.797  0.00  0.00    +0.000 C 
ATOM      5  C   UNL     1      -0.615   9.858  19.738  0.00  0.00    +0.000 C 
ATOM      6  C   UNL     1       0.923  10.077  19.803  0.00  0.00    +0.000 C 
ATOM      7  C   UNL     1       1.548  10.005  18.401  0.00  0.00    +0.000 C 
ATOM      8  C   UNL     1       1.615   8.575  17.881  0.00  0.00    +0.000 C 
ATOM      9  C   UNL     1       2.405   7.742  18.874  0.00  0.00    +0.000 C 
ATOM     10  N   UNL     1       1.804   7.805  20.196  0.00  0.00    +0.000 N 
ATOM     11  C   UNL     1       1.484   9.026  20.776  0.00  0.00    +0.000 C 
ATOM     12  O   UNL     1       1.405   9.170  21.995  0.00  0.00    +0.000 OA
ATOM     13  C   UNL     1       1.068  11.499  20.373  0.00  0.00    +0.000 C 
ENDROOT
BRANCH   1  20
ATOM     14  C   UNL     1       0.049  15.130  18.477  0.00  0.00    +0.000 C 
ATOM     15  N   UNL     1       0.631  15.128  19.801  0.00  0.00    +0.000 N 
ATOM     16  C   UNL     1       1.671  15.939  20.182  0.00  0.00    +0.000 A 
ATOM     17  C   UNL     1       1.967  15.660  21.492  0.00  0.00    +0.000 A 
ATOM     18 CL   UNL     1       3.167  16.378  22.450  0.00  0.00    +0.000 Cl
ATOM     19  C   UNL     1       1.087  14.649  21.918  0.00  0.00    +0.000 A 
ATOM     20  C   UNL     1       0.293  14.276  20.836  0.00  0.00    +0.000 A 
ENDBRANCH   1  20
BRANCH  10  21
ATOM     21  C   UNL     1       1.305   6.595  20.828  0.00  0.00    +0.000 C 
BRANCH  21  22
ATOM     22  C   UNL     1       1.933   5.332  20.332  0.00  0.00    +0.000 C 
ATOM     23  C   UNL     1       2.191   4.123  21.195  0.00  0.00    +0.000 C 
ATOM     24  C   UNL     1       1.047   4.112  20.227  0.00  0.00    +0.000 C 
ENDBRANCH  21  22
ENDBRANCH  10  21
TORSDOF 3
ENDMDL
