MODEL 1
REMARK VINA RESULT:      -7.4      0.000      0.000
REMARK  Name = 
REMARK  8 active torsions:
REMARK  status: ('A' for Active; 'I' for Inactive)
REMARK    1  A    between atoms: C_1  and  N_2
REMARK    2  A    between atoms: N_2  and  C_3
REMARK    3  A    between atoms: N_2  and  C_4
REMARK    4  A    between atoms: C_8  and  C_9
REMARK    5  A    between atoms: N_11  and  C_12
REMARK    6  A    between atoms: C_14  and  N_15
REMARK    7  A    between atoms: N_20  and  C_21
REMARK    8  A    between atoms: C_21  and  C_22
REMARK                            x       y       z     vdW  Elec       q    Type
REMARK                         _______ _______ _______ _____ _____    ______ ____
ROOT
ATOM      1  N   UNL     1      -1.185  12.719  22.830  0.00  0.00    +0.000 N 
ATOM      2  C   UNL     1      -1.579  11.432  23.068  0.00  0.00    +0.000 A 
ATOM      3  N   UNL     1      -1.009  10.582  22.235  0.00  0.00    +0.000 NA
ATOM      4  C   UNL     1      -0.254  11.373  21.385  0.00  0.00    +0.000 A 
ATOM      5  C   UNL     1       0.620  11.060  20.317  0.00  0.00    +0.000 A 
ATOM      6  N   UNL     1       0.961   9.750  20.001  0.00  0.00    +0.000 N 
ATOM      7  N   UNL     1       1.183  12.098  19.643  0.00  0.00    +0.000 NA
ATOM      8  C   UNL     1       0.916  13.360  20.043  0.00  0.00    +0.000 A 
ATOM      9  N   UNL     1       0.131  13.767  21.060  0.00  0.00    +0.000 NA
ATOM     10  C   UNL     1      -0.417  12.716  21.693  0.00  0.00    +0.000 A 
ATOM     11  H   UNL     1       0.360   9.066  20.448  0.00  0.00    +0.000 HD
ENDROOT
BRANCH   1  14
ATOM     12  C   UNL     1      -3.463  14.613  23.179  0.00  0.00    +0.000 C 
ATOM     13  C   UNL     1      -2.834  13.803  24.339  0.00  0.00    +0.000 C 
ATOM     14  C   UNL     1      -1.459  13.903  23.617  0.00  0.00    +0.000 C 
ATOM     15  C   UNL     1      -2.024  15.171  22.927  0.00  0.00    +0.000 C 
BRANCH  12  18
ATOM     16  C   UNL     1      -5.150  13.262  21.808  0.00  0.00    +0.000 C 
ATOM     17  O   UNL     1      -6.047  13.325  22.641  0.00  0.00    +0.000 OA
ATOM     18  N   UNL     1      -3.935  13.899  21.971  0.00  0.00    +0.000 N 
ATOM     19  H   UNL     1      -3.364  13.992  21.147  0.00  0.00    +0.000 HD
BRANCH  16  24
ATOM     20  C   UNL     1      -4.443  11.541  18.405  0.00  0.00    +0.000 A 
ATOM     21  C   UNL     1      -5.637  10.811  18.301  0.00  0.00    +0.000 A 
ATOM     22  C   UNL     1      -6.662  10.923  19.248  0.00  0.00    +0.000 A 
ATOM     23  C   UNL     1      -6.511  11.757  20.354  0.00  0.00    +0.000 A 
ATOM     24  C   UNL     1      -5.319  12.459  20.539  0.00  0.00    +0.000 A 
ATOM     25  C   UNL     1      -4.308  12.337  19.558  0.00  0.00    +0.000 A 
BRANCH  20  27
ATOM     26  C   UNL     1      -3.696  10.881  16.123  0.00  0.00    +0.000 C 
ATOM     27  N   UNL     1      -3.447  11.472  17.432  0.00  0.00    +0.000 N 
ATOM     28  C   UNL     1      -2.058  11.750  17.785  0.00  0.00    +0.000 C 
ENDBRANCH  20  27
ENDBRANCH  16  24
ENDBRANCH  12  18
ENDBRANCH   1  14
BRANCH   6  29
ATOM     29  C   UNL     1       1.440   9.439  18.669  0.00  0.00    +0.000 C 
BRANCH  29  30
ATOM     30  C   UNL     1       2.218   8.148  18.700  0.00  0.00    +0.000 A 
ATOM     31  C   UNL     1       3.078   7.797  17.651  0.00  0.00    +0.000 A 
ATOM     32  C   UNL     1       3.790   6.601  17.702  0.00  0.00    +0.000 A 
ATOM     33  C   UNL     1       3.612   5.781  18.802  0.00  0.00    +0.000 A 
ATOM     34  N   UNL     1       2.778   6.070  19.821  0.00  0.00    +0.000 NA
ATOM     35  C   UNL     1       2.102   7.242  19.749  0.00  0.00    +0.000 A 
ENDBRANCH  29  30
ENDBRANCH   6  29
TORSDOF 6
ENDMDL
MODEL 2
REMARK VINA RESULT:      -7.3      0.525      1.054
REMARK  Name = 
REMARK  8 active torsions:
REMARK  status: ('A' for Active; 'I' for Inactive)
REMARK    1  A    between atoms: C_1  and  N_2
REMARK    2  A    between atoms: N_2  and  C_3
REMARK    3  A    between atoms: N_2  and  C_4
REMARK    4  A    between atoms: C_8  and  C_9
REMARK    5  A    between atoms: N_11  and  C_12
REMARK    6  A    between atoms: C_14  and  N_15
REMARK    7  A    between atoms: N_20  and  C_21
REMARK    8  A    between atoms: C_21  and  C_22
REMARK                            x       y       z     vdW  Elec       q    Type
REMARK                         _______ _______ _______ _____ _____    ______ ____
ROOT
ATOM      1  N   UNL     1      -1.016  12.774  22.713  0.00  0.00    +0.000 N 
ATOM      2  C   UNL     1      -1.470  11.507  22.958  0.00  0.00    +0.000 A 
ATOM      3  N   UNL     1      -0.934  10.627  22.133  0.00  0.00    +0.000 NA
ATOM      4  C   UNL     1      -0.138  11.376  21.283  0.00  0.00    +0.000 A 
ATOM      5  C   UNL     1       0.727  11.016  20.223  0.00  0.00    +0.000 A 
ATOM      6  N   UNL     1       1.009   9.690  19.918  0.00  0.00    +0.000 N 
ATOM      7  N   UNL     1       1.340  12.023  19.546  0.00  0.00    +0.000 NA
ATOM      8  C   UNL     1       1.129  13.298  19.935  0.00  0.00    +0.000 A 
ATOM      9  N   UNL     1       0.358  13.748  20.945  0.00  0.00    +0.000 NA
ATOM     10  C   UNL     1      -0.242  12.727  21.581  0.00  0.00    +0.000 A 
ATOM     11  H   UNL     1       0.375   9.037  20.366  0.00  0.00    +0.000 HD
ENDROOT
BRANCH   1  14
ATOM     12  C   UNL     1      -3.227  14.742  23.074  0.00  0.00    +0.000 C 
ATOM     13  C   UNL     1      -2.607  13.926  24.234  0.00  0.00    +0.000 C 
ATOM     14  C   UNL     1      -1.240  13.975  23.490  0.00  0.00    +0.000 C 
ATOM     15  C   UNL     1      -1.775  15.251  22.794  0.00  0.00    +0.000 C 
BRANCH  12  18
ATOM     16  C   UNL     1      -4.917  13.312  21.789  0.00  0.00    +0.000 C 
ATOM     17  O   UNL     1      -5.749  13.288  22.688  0.00  0.00    +0.000 OA
ATOM     18  N   UNL     1      -3.740  14.030  21.882  0.00  0.00    +0.000 N 
ATOM     19  H   UNL     1      -3.242  14.187  21.021  0.00  0.00    +0.000 HD
BRANCH  16  24
ATOM     20  C   UNL     1      -4.281  11.534  18.402  0.00  0.00    +0.000 A 
ATOM     21  C   UNL     1      -5.542  10.936  18.252  0.00  0.00    +0.000 A 
ATOM     22  C   UNL     1      -6.581  11.156  19.164  0.00  0.00    +0.000 A 
ATOM     23  C   UNL     1      -6.380  11.966  20.280  0.00  0.00    +0.000 A 
ATOM     24  C   UNL     1      -5.127  12.536  20.510  0.00  0.00    +0.000 A 
ATOM     25  C   UNL     1      -4.101  12.308  19.564  0.00  0.00    +0.000 A 
BRANCH  20  27
ATOM     26  C   UNL     1      -1.890  11.761  17.742  0.00  0.00    +0.000 C 
ATOM     27  N   UNL     1      -3.264  11.361  17.463  0.00  0.00    +0.000 N 
ATOM     28  C   UNL     1      -3.592  11.018  16.083  0.00  0.00    +0.000 C 
ENDBRANCH  20  27
ENDBRANCH  16  24
ENDBRANCH  12  18
ENDBRANCH   1  14
BRANCH   6  29
ATOM     29  C   UNL     1       1.482   9.348  18.591  0.00  0.00    +0.000 C 
BRANCH  29  30
ATOM     30  C   UNL     1       2.270   8.064  18.650  0.00  0.00    +0.000 A 
ATOM     31  C   UNL     1       2.140   7.187  19.736  0.00  0.00    +0.000 A 
ATOM     32  C   UNL     1       2.874   6.004  19.770  0.00  0.00    +0.000 A 
ATOM     33  C   UNL     1       3.728   5.735  18.715  0.00  0.00    +0.000 A 
ATOM     34  N   UNL     1       3.899   6.561  17.664  0.00  0.00    +0.000 NA
ATOM     35  C   UNL     1       3.169   7.703  17.653  0.00  0.00    +0.000 A 
ENDBRANCH  29  30
ENDBRANCH   6  29
TORSDOF 6
ENDMDL
MODEL 3
REMARK VINA RESULT:      -7.1      4.412      8.446
REMARK  Name = 
REMARK  8 active torsions:
REMARK  status: ('A' for Active; 'I' for Inactive)
REMARK    1  A    between atoms: C_1  and  N_2
REMARK    2  A    between atoms: N_2  and  C_3
REMARK    3  A    between atoms: N_2  and  C_4
REMARK    4  A    between atoms: C_8  and  C_9
REMARK    5  A    between atoms: N_11  and  C_12
REMARK    6  A    between atoms: C_14  and  N_15
REMARK    7  A    between atoms: N_20  and  C_21
REMARK    8  A    between atoms: C_21  and  C_22
REMARK                            x       y       z     vdW  Elec       q    Type
REMARK                         _______ _______ _______ _____ _____    ______ ____
ROOT
ATOM      1  N   UNL     1       0.650  10.569  20.387  0.00  0.00    +0.000 N 
ATOM      2  C   UNL     1       0.922  10.112  19.127  0.00  0.00    +0.000 A 
ATOM      3  N   UNL     1       1.590  11.000  18.417  0.00  0.00    +0.000 NA
ATOM      4  C   UNL     1       1.704  12.103  19.246  0.00  0.00    +0.000 A 
ATOM      5  C   UNL     1       2.350  13.353  19.087  0.00  0.00    +0.000 A 
ATOM      6  N   UNL     1       3.139  13.641  17.981  0.00  0.00    +0.000 N 
ATOM      7  N   UNL     1       2.230  14.253  20.099  0.00  0.00    +0.000 NA
ATOM      8  C   UNL     1       1.545  13.903  21.209  0.00  0.00    +0.000 A 
ATOM      9  N   UNL     1       0.925  12.736  21.477  0.00  0.00    +0.000 NA
ATOM     10  C   UNL     1       1.052  11.879  20.449  0.00  0.00    +0.000 A 
ATOM     11  H   UNL     1       3.019  12.975  17.224  0.00  0.00    +0.000 HD
ENDROOT
BRANCH   1  14
ATOM     12  C   UNL     1       1.072   7.920  21.689  0.00  0.00    +0.000 C 
ATOM     13  C   UNL     1       1.193   9.272  22.434  0.00  0.00    +0.000 C 
ATOM     14  C   UNL     1       0.083   9.843  21.504  0.00  0.00    +0.000 C 
ATOM     15  C   UNL     1      -0.375   8.375  21.313  0.00  0.00    +0.000 C 
BRANCH  12  18
ATOM     16  C   UNL     1       2.345   6.496  19.985  0.00  0.00    +0.000 C 
ATOM     17  O   UNL     1       2.063   5.422  20.503  0.00  0.00    +0.000 OA
ATOM     18  N   UNL     1       1.859   7.701  20.455  0.00  0.00    +0.000 N 
ATOM     19  H   UNL     1       1.943   8.491  19.835  0.00  0.00    +0.000 HD
BRANCH  16  24
ATOM     20  C   UNL     1       5.049   5.613  17.348  0.00  0.00    +0.000 A 
ATOM     21  C   UNL     1       4.815   6.676  16.462  0.00  0.00    +0.000 A 
ATOM     22  C   UNL     1       3.878   7.679  16.735  0.00  0.00    +0.000 A 
ATOM     23  C   UNL     1       3.118   7.635  17.903  0.00  0.00    +0.000 A 
ATOM     24  C   UNL     1       3.267   6.568  18.790  0.00  0.00    +0.000 A 
ATOM     25  C   UNL     1       4.231   5.578  18.494  0.00  0.00    +0.000 A 
BRANCH  20  27
ATOM     26  C   UNL     1       7.296   4.645  17.812  0.00  0.00    +0.000 C 
ATOM     27  N   UNL     1       6.022   4.646  17.103  0.00  0.00    +0.000 N 
ATOM     28  C   UNL     1       5.903   3.764  15.946  0.00  0.00    +0.000 C 
ENDBRANCH  20  27
ENDBRANCH  16  24
ENDBRANCH  12  18
ENDBRANCH   1  14
BRANCH   6  29
ATOM     29  C   UNL     1       3.378  15.023  17.614  0.00  0.00    +0.000 C 
BRANCH  29  30
ATOM     30  C   UNL     1       4.783  15.412  17.999  0.00  0.00    +0.000 A 
ATOM     31  C   UNL     1       5.863  14.555  17.750  0.00  0.00    +0.000 A 
ATOM     32  C   UNL     1       7.154  14.934  18.110  0.00  0.00    +0.000 A 
ATOM     33  C   UNL     1       7.326  16.164  18.720  0.00  0.00    +0.000 A 
ATOM     34  N   UNL     1       6.313  17.008  18.998  0.00  0.00    +0.000 NA
ATOM     35  C   UNL     1       5.068  16.617  18.633  0.00  0.00    +0.000 A 
ENDBRANCH  29  30
ENDBRANCH   6  29
TORSDOF 6
ENDMDL
MODEL 4
REMARK VINA RESULT:      -7.1      1.026      1.226
REMARK  Name = 
REMARK  8 active torsions:
REMARK  status: ('A' for Active; 'I' for Inactive)
REMARK    1  A    between atoms: C_1  and  N_2
REMARK    2  A    between atoms: N_2  and  C_3
REMARK    3  A    between atoms: N_2  and  C_4
REMARK    4  A    between atoms: C_8  and  C_9
REMARK    5  A    between atoms: N_11  and  C_12
REMARK    6  A    between atoms: C_14  and  N_15
REMARK    7  A    between atoms: N_20  and  C_21
REMARK    8  A    between atoms: C_21  and  C_22
REMARK                            x       y       z     vdW  Elec       q    Type
REMARK                         _______ _______ _______ _____ _____    ______ ____
ROOT
ATOM      1  N   UNL     1      -0.772  12.303  22.391  0.00  0.00    +0.000 N 
ATOM      2  C   UNL     1      -1.113  11.029  22.752  0.00  0.00    +0.000 A 
ATOM      3  N   UNL     1      -0.585  10.132  21.940  0.00  0.00    +0.000 NA
ATOM      4  C   UNL     1       0.083  10.874  20.979  0.00  0.00    +0.000 A 
ATOM      5  C   UNL     1       0.881  10.500  19.872  0.00  0.00    +0.000 A 
ATOM      6  N   UNL     1       1.231   9.178  19.627  0.00  0.00    +0.000 N 
ATOM      7  N   UNL     1       1.363  11.497  19.083  0.00  0.00    +0.000 NA
ATOM      8  C   UNL     1       1.094  12.780  19.410  0.00  0.00    +0.000 A 
ATOM      9  N   UNL     1       0.378  13.245  20.454  0.00  0.00    +0.000 NA
ATOM     10  C   UNL     1      -0.093  12.231  21.201  0.00  0.00    +0.000 A 
ATOM     11  H   UNL     1       0.685   8.517  20.168  0.00  0.00    +0.000 HD
ENDROOT
BRANCH   1  14
ATOM     12  C   UNL     1      -2.978  14.302  22.580  0.00  0.00    +0.000 C 
ATOM     13  C   UNL     1      -2.413  13.529  23.797  0.00  0.00    +0.000 C 
ATOM     14  C   UNL     1      -1.017  13.537  23.109  0.00  0.00    +0.000 C 
ATOM     15  C   UNL     1      -1.511  14.788  22.341  0.00  0.00    +0.000 C 
BRANCH  12  18
ATOM     16  C   UNL     1      -4.676  13.662  20.775  0.00  0.00    +0.000 C 
ATOM     17  O   UNL     1      -5.493  14.522  21.081  0.00  0.00    +0.000 OA
ATOM     18  N   UNL     1      -3.448  13.546  21.398  0.00  0.00    +0.000 N 
ATOM     19  H   UNL     1      -2.759  12.980  20.928  0.00  0.00    +0.000 HD
BRANCH  16  24
ATOM     20  C   UNL     1      -4.251  11.134  17.865  0.00  0.00    +0.000 A 
ATOM     21  C   UNL     1      -5.569  10.653  17.826  0.00  0.00    +0.000 A 
ATOM     22  C   UNL     1      -6.574  11.173  18.651  0.00  0.00    +0.000 A 
ATOM     23  C   UNL     1      -6.282  12.180  19.568  0.00  0.00    +0.000 A 
ATOM     24  C   UNL     1      -4.974  12.652  19.691  0.00  0.00    +0.000 A 
ATOM     25  C   UNL     1      -3.984  12.119  18.835  0.00  0.00    +0.000 A 
BRANCH  20  27
ATOM     26  C   UNL     1      -3.527  10.433  15.587  0.00  0.00    +0.000 C 
ATOM     27  N   UNL     1      -3.264  10.656  17.004  0.00  0.00    +0.000 N 
ATOM     28  C   UNL     1      -2.019  10.117  17.544  0.00  0.00    +0.000 C 
ENDBRANCH  20  27
ENDBRANCH  16  24
ENDBRANCH  12  18
ENDBRANCH   1  14
BRANCH   6  29
ATOM     29  C   UNL     1       1.617   8.779  18.287  0.00  0.00    +0.000 C 
BRANCH  29  30
ATOM     30  C   UNL     1       2.603   7.641  18.363  0.00  0.00    +0.000 A 
ATOM     31  C   UNL     1       2.556   6.714  19.412  0.00  0.00    +0.000 A 
ATOM     32  C   UNL     1       3.474   5.668  19.461  0.00  0.00    +0.000 A 
ATOM     33  C   UNL     1       4.424   5.585  18.459  0.00  0.00    +0.000 A 
ATOM     34  N   UNL     1       4.518   6.469  17.445  0.00  0.00    +0.000 NA
ATOM     35  C   UNL     1       3.610   7.473  17.418  0.00  0.00    +0.000 A 
ENDBRANCH  29  30
ENDBRANCH   6  29
TORSDOF 6
ENDMDL
MODEL 5
REMARK VINA RESULT:      -7.0      4.332      8.487
REMARK  Name = 
REMARK  8 active torsions:
REMARK  status: ('A' for Active; 'I' for Inactive)
REMARK    1  A    between atoms: C_1  and  N_2
REMARK    2  A    between atoms: N_2  and  C_3
REMARK    3  A    between atoms: N_2  and  C_4
REMARK    4  A    between atoms: C_8  and  C_9
REMARK    5  A    between atoms: N_11  and  C_12
REMARK    6  A    between atoms: C_14  and  N_15
REMARK    7  A    between atoms: N_20  and  C_21
REMARK    8  A    between atoms: C_21  and  C_22
REMARK                            x       y       z     vdW  Elec       q    Type
REMARK                         _______ _______ _______ _____ _____    ______ ____
ROOT
ATOM      1  N   UNL     1       0.547  10.569  20.307  0.00  0.00    +0.000 N 
ATOM      2  C   UNL     1       0.885  10.104  19.066  0.00  0.00    +0.000 A 
ATOM      3  N   UNL     1       1.582  10.993  18.383  0.00  0.00    +0.000 NA
ATOM      4  C   UNL     1       1.647  12.102  19.209  0.00  0.00    +0.000 A 
ATOM      5  C   UNL     1       2.291  13.355  19.073  0.00  0.00    +0.000 A 
ATOM      6  N   UNL     1       3.134  13.640  18.005  0.00  0.00    +0.000 N 
ATOM      7  N   UNL     1       2.115  14.261  20.071  0.00  0.00    +0.000 NA
ATOM      8  C   UNL     1       1.377  13.915  21.147  0.00  0.00    +0.000 A 
ATOM      9  N   UNL     1       0.752  12.746  21.393  0.00  0.00    +0.000 NA
ATOM     10  C   UNL     1       0.937  11.882  20.380  0.00  0.00    +0.000 A 
ATOM     11  H   UNL     1       3.056  12.969  17.249  0.00  0.00    +0.000 HD
ENDROOT
BRANCH   1  14
ATOM     12  C   UNL     1       0.998   7.987  21.729  0.00  0.00    +0.000 C 
ATOM     13  C   UNL     1       0.988   9.365  22.434  0.00  0.00    +0.000 C 
ATOM     14  C   UNL     1      -0.071   9.847  21.400  0.00  0.00    +0.000 C 
ATOM     15  C   UNL     1      -0.436   8.351  21.223  0.00  0.00    +0.000 C 
BRANCH  12  18
ATOM     16  C   UNL     1       2.295   6.561  20.045  0.00  0.00    +0.000 C 
ATOM     17  O   UNL     1       1.840   5.491  20.431  0.00  0.00    +0.000 OA
ATOM     18  N   UNL     1       1.893   7.775  20.570  0.00  0.00    +0.000 N 
ATOM     19  H   UNL     1       2.134   8.595  20.037  0.00  0.00    +0.000 HD
BRANCH  16  24
ATOM     20  C   UNL     1       5.584   6.015  18.064  0.00  0.00    +0.000 A 
ATOM     21  C   UNL     1       5.187   6.605  16.854  0.00  0.00    +0.000 A 
ATOM     22  C   UNL     1       3.939   7.221  16.703  0.00  0.00    +0.000 A 
ATOM     23  C   UNL     1       3.030   7.242  17.759  0.00  0.00    +0.000 A 
ATOM     24  C   UNL     1       3.351   6.617  18.965  0.00  0.00    +0.000 A 
ATOM     25  C   UNL     1       4.623   6.016  19.093  0.00  0.00    +0.000 A 
BRANCH  20  27
ATOM     26  C   UNL     1       7.394   4.497  17.274  0.00  0.00    +0.000 C 
ATOM     27  N   UNL     1       6.848   5.452  18.232  0.00  0.00    +0.000 N 
ATOM     28  C   UNL     1       7.553   5.599  19.502  0.00  0.00    +0.000 C 
ENDBRANCH  20  27
ENDBRANCH  16  24
ENDBRANCH  12  18
ENDBRANCH   1  14
BRANCH   6  29
ATOM     29  C   UNL     1       3.382  15.022  17.641  0.00  0.00    +0.000 C 
BRANCH  29  30
ATOM     30  C   UNL     1       4.785  15.405  18.039  0.00  0.00    +0.000 A 
ATOM     31  C   UNL     1       5.046  16.625  18.677  0.00  0.00    +0.000 A 
ATOM     32  C   UNL     1       6.348  16.958  19.040  0.00  0.00    +0.000 A 
ATOM     33  C   UNL     1       7.359  16.061  18.743  0.00  0.00    +0.000 A 
ATOM     34  N   UNL     1       7.154  14.888  18.110  0.00  0.00    +0.000 NA
ATOM     35  C   UNL     1       5.877  14.586  17.773  0.00  0.00    +0.000 A 
ENDBRANCH  29  30
ENDBRANCH   6  29
TORSDOF 6
ENDMDL
MODEL 6
REMARK VINA RESULT:      -6.9      5.156      9.925
REMARK  Name = 
REMARK  8 active torsions:
REMARK  status: ('A' for Active; 'I' for Inactive)
REMARK    1  A    between atoms: C_1  and  N_2
REMARK    2  A    between atoms: N_2  and  C_3
REMARK    3  A    between atoms: N_2  and  C_4
REMARK    4  A    between atoms: C_8  and  C_9
REMARK    5  A    between atoms: N_11  and  C_12
REMARK    6  A    between atoms: C_14  and  N_15
REMARK    7  A    between atoms: N_20  and  C_21
REMARK    8  A    between atoms: C_21  and  C_22
REMARK                            x       y       z     vdW  Elec       q    Type
REMARK                         _______ _______ _______ _____ _____    ______ ____
ROOT
ATOM      1  N   UNL     1       5.658   5.388  16.870  0.00  0.00    +0.000 N 
ATOM      2  C   UNL     1       5.334   6.492  16.131  0.00  0.00    +0.000 A 
ATOM      3  N   UNL     1       6.077   7.534  16.455  0.00  0.00    +0.000 NA
ATOM      4  C   UNL     1       6.879   7.088  17.492  0.00  0.00    +0.000 A 
ATOM      5  C   UNL     1       7.914   7.709  18.231  0.00  0.00    +0.000 A 
ATOM      6  N   UNL     1       8.393   8.974  17.912  0.00  0.00    +0.000 N 
ATOM      7  N   UNL     1       8.483   6.991  19.236  0.00  0.00    +0.000 NA
ATOM      8  C   UNL     1       8.069   5.725  19.452  0.00  0.00    +0.000 A 
ATOM      9  N   UNL     1       7.122   5.029  18.791  0.00  0.00    +0.000 NA
ATOM     10  C   UNL     1       6.573   5.775  17.816  0.00  0.00    +0.000 A 
ATOM     11  H   UNL     1       7.790   9.475  17.268  0.00  0.00    +0.000 HD
ENDROOT
BRANCH   1  14
ATOM     12  C   UNL     1       3.132   3.889  17.384  0.00  0.00    +0.000 C 
ATOM     13  C   UNL     1       3.806   3.984  15.994  0.00  0.00    +0.000 C 
ATOM     14  C   UNL     1       5.189   4.028  16.707  0.00  0.00    +0.000 C 
ATOM     15  C   UNL     1       4.493   3.308  17.889  0.00  0.00    +0.000 C 
BRANCH  12  18
ATOM     16  C   UNL     1       2.251   5.230  19.379  0.00  0.00    +0.000 C 
ATOM     17  O   UNL     1       2.046   4.252  20.089  0.00  0.00    +0.000 OA
ATOM     18  N   UNL     1       2.820   5.133  18.123  0.00  0.00    +0.000 N 
ATOM     19  H   UNL     1       3.168   5.989  17.722  0.00  0.00    +0.000 HD
BRANCH  16  24
ATOM     20  C   UNL     1       1.416   9.017  19.385  0.00  0.00    +0.000 A 
ATOM     21  C   UNL     1       1.002   9.126  20.722  0.00  0.00    +0.000 A 
ATOM     22  C   UNL     1       1.058   8.044  21.608  0.00  0.00    +0.000 A 
ATOM     23  C   UNL     1       1.510   6.799  21.172  0.00  0.00    +0.000 A 
ATOM     24  C   UNL     1       1.877   6.620  19.838  0.00  0.00    +0.000 A 
ATOM     25  C   UNL     1       1.824   7.734  18.970  0.00  0.00    +0.000 A 
BRANCH  20  27
ATOM     26  C   UNL     1       2.566  10.425  17.682  0.00  0.00    +0.000 C 
ATOM     27  N   UNL     1       1.414  10.109  18.519  0.00  0.00    +0.000 N 
ATOM     28  C   UNL     1       0.363  11.118  18.615  0.00  0.00    +0.000 C 
ENDBRANCH  20  27
ENDBRANCH  16  24
ENDBRANCH  12  18
ENDBRANCH   1  14
BRANCH   6  29
ATOM     29  C   UNL     1       9.074   9.755  18.926  0.00  0.00    +0.000 C 
BRANCH  29  30
ATOM     30  C   UNL     1       9.564  11.047  18.322  0.00  0.00    +0.000 A 
ATOM     31  C   UNL     1      10.924  11.246  18.049  0.00  0.00    +0.000 A 
ATOM     32  C   UNL     1      11.355  12.446  17.488  0.00  0.00    +0.000 A 
ATOM     33  C   UNL     1      10.410  13.421  17.225  0.00  0.00    +0.000 A 
ATOM     34  N   UNL     1       9.096  13.279  17.494  0.00  0.00    +0.000 NA
ATOM     35  C   UNL     1       8.703  12.101  18.034  0.00  0.00    +0.000 A 
ENDBRANCH  29  30
ENDBRANCH   6  29
TORSDOF 6
ENDMDL
MODEL 7
REMARK VINA RESULT:      -6.9      3.868      6.792
REMARK  Name = 
REMARK  8 active torsions:
REMARK  status: ('A' for Active; 'I' for Inactive)
REMARK    1  A    between atoms: C_1  and  N_2
REMARK    2  A    between atoms: N_2  and  C_3
REMARK    3  A    between atoms: N_2  and  C_4
REMARK    4  A    between atoms: C_8  and  C_9
REMARK    5  A    between atoms: N_11  and  C_12
REMARK    6  A    between atoms: C_14  and  N_15
REMARK    7  A    between atoms: N_20  and  C_21
REMARK    8  A    between atoms: C_21  and  C_22
REMARK                            x       y       z     vdW  Elec       q    Type
REMARK                         _______ _______ _______ _____ _____    ______ ____
ROOT
ATOM      1  N   UNL     1       0.147  13.743  19.863  0.00  0.00    +0.000 N 
ATOM      2  C   UNL     1       0.252  13.032  18.700  0.00  0.00    +0.000 A 
ATOM      3  N   UNL     1       1.436  13.186  18.136  0.00  0.00    +0.000 NA
ATOM      4  C   UNL     1       2.102  14.084  18.953  0.00  0.00    +0.000 A 
ATOM      5  C   UNL     1       3.415  14.612  18.917  0.00  0.00    +0.000 A 
ATOM      6  N   UNL     1       4.364  14.171  18.003  0.00  0.00    +0.000 N 
ATOM      7  N   UNL     1       3.747  15.529  19.865  0.00  0.00    +0.000 NA
ATOM      8  C   UNL     1       2.836  15.858  20.806  0.00  0.00    +0.000 A 
ATOM      9  N   UNL     1       1.579  15.394  20.952  0.00  0.00    +0.000 NA
ATOM     10  C   UNL     1       1.282  14.503  19.990  0.00  0.00    +0.000 A 
ATOM     11  H   UNL     1       3.963  13.623  17.250  0.00  0.00    +0.000 HD
ENDROOT
BRANCH   1  14
ATOM     12  C   UNL     1      -1.085  11.707  21.660  0.00  0.00    +0.000 C 
ATOM     13  C   UNL     1      -0.458  13.030  22.164  0.00  0.00    +0.000 C 
ATOM     14  C   UNL     1      -0.919  13.711  20.843  0.00  0.00    +0.000 C 
ATOM     15  C   UNL     1      -2.001  12.604  20.765  0.00  0.00    +0.000 C 
BRANCH  12  18
ATOM     16  C   UNL     1       0.060   9.495  21.071  0.00  0.00    +0.000 C 
ATOM     17  O   UNL     1      -0.382   8.881  22.035  0.00  0.00    +0.000 OA
ATOM     18  N   UNL     1      -0.283  10.807  20.803  0.00  0.00    +0.000 N 
ATOM     19  H   UNL     1      -0.071  11.145  19.878  0.00  0.00    +0.000 HD
BRANCH  16  24
ATOM     20  C   UNL     1       2.482   6.956  19.420  0.00  0.00    +0.000 A 
ATOM     21  C   UNL     1       2.682   7.633  18.208  0.00  0.00    +0.000 A 
ATOM     22  C   UNL     1       2.122   8.892  17.958  0.00  0.00    +0.000 A 
ATOM     23  C   UNL     1       1.313   9.505  18.913  0.00  0.00    +0.000 A 
ATOM     24  C   UNL     1       1.032   8.848  20.112  0.00  0.00    +0.000 A 
ATOM     25  C   UNL     1       1.623   7.586  20.342  0.00  0.00    +0.000 A 
BRANCH  20  27
ATOM     26  C   UNL     1       2.495   4.774  20.621  0.00  0.00    +0.000 C 
ATOM     27  N   UNL     1       3.086   5.729  19.691  0.00  0.00    +0.000 N 
ATOM     28  C   UNL     1       4.455   5.474  19.255  0.00  0.00    +0.000 C 
ENDBRANCH  20  27
ENDBRANCH  16  24
ENDBRANCH  12  18
ENDBRANCH   1  14
BRANCH   6  29
ATOM     29  C   UNL     1       5.490  15.024  17.675  0.00  0.00    +0.000 C 
BRANCH  29  30
ATOM     30  C   UNL     1       6.770  14.362  18.117  0.00  0.00    +0.000 A 
ATOM     31  C   UNL     1       7.408  14.744  19.306  0.00  0.00    +0.000 A 
ATOM     32  C   UNL     1       8.588  14.118  19.697  0.00  0.00    +0.000 A 
ATOM     33  C   UNL     1       9.105  13.129  18.880  0.00  0.00    +0.000 A 
ATOM     34  N   UNL     1       8.536  12.747  17.719  0.00  0.00    +0.000 NA
ATOM     35  C   UNL     1       7.386  13.369  17.364  0.00  0.00    +0.000 A 
ENDBRANCH  29  30
ENDBRANCH   6  29
TORSDOF 6
ENDMDL
MODEL 8
REMARK VINA RESULT:      -6.8      1.253      1.520
REMARK  Name = 
REMARK  8 active torsions:
REMARK  status: ('A' for Active; 'I' for Inactive)
REMARK    1  A    between atoms: C_1  and  N_2
REMARK    2  A    between atoms: N_2  and  C_3
REMARK    3  A    between atoms: N_2  and  C_4
REMARK    4  A    between atoms: C_8  and  C_9
REMARK    5  A    between atoms: N_11  and  C_12
REMARK    6  A    between atoms: C_14  and  N_15
REMARK    7  A    between atoms: N_20  and  C_21
REMARK    8  A    between atoms: C_21  and  C_22
REMARK                            x       y       z     vdW  Elec       q    Type
REMARK                         _______ _______ _______ _____ _____    ______ ____
ROOT
ATOM      1  N   UNL     1      -2.118  13.809  22.949  0.00  0.00    +0.000 N 
ATOM      2  C   UNL     1      -2.401  12.507  23.256  0.00  0.00    +0.000 A 
ATOM      3  N   UNL     1      -1.778  11.666  22.452  0.00  0.00    +0.000 NA
ATOM      4  C   UNL     1      -1.105  12.473  21.550  0.00  0.00    +0.000 A 
ATOM      5  C   UNL     1      -0.227  12.179  20.479  0.00  0.00    +0.000 A 
ATOM      6  N   UNL     1       0.214  10.887  20.219  0.00  0.00    +0.000 N 
ATOM      7  N   UNL     1       0.236  13.225  19.744  0.00  0.00    +0.000 NA
ATOM      8  C   UNL     1      -0.125  14.479  20.089  0.00  0.00    +0.000 A 
ATOM      9  N   UNL     1      -0.923  14.871  21.103  0.00  0.00    +0.000 NA
ATOM     10  C   UNL     1      -1.372  13.811  21.797  0.00  0.00    +0.000 A 
ATOM     11  H   UNL     1      -0.321  10.180  20.711  0.00  0.00    +0.000 HD
ENDROOT
BRANCH   1  14
ATOM     12  C   UNL     1      -4.612  15.340  23.523  0.00  0.00    +0.000 C 
ATOM     13  C   UNL     1      -3.691  14.756  24.622  0.00  0.00    +0.000 C 
ATOM     14  C   UNL     1      -2.474  15.004  23.684  0.00  0.00    +0.000 C 
ATOM     15  C   UNL     1      -3.343  16.093  23.006  0.00  0.00    +0.000 C 
BRANCH  12  18
ATOM     16  C   UNL     1      -6.025  13.410  22.612  0.00  0.00    +0.000 C 
ATOM     17  O   UNL     1      -6.604  13.187  23.668  0.00  0.00    +0.000 OA
ATOM     18  N   UNL     1      -5.125  14.447  22.459  0.00  0.00    +0.000 N 
ATOM     19  H   UNL     1      -4.888  14.700  21.513  0.00  0.00    +0.000 HD
BRANCH  16  24
ATOM     20  C   UNL     1      -5.525  11.595  19.221  0.00  0.00    +0.000 A 
ATOM     21  C   UNL     1      -6.661  10.774  19.267  0.00  0.00    +0.000 A 
ATOM     22  C   UNL     1      -7.593  10.852  20.309  0.00  0.00    +0.000 A 
ATOM     23  C   UNL     1      -7.400  11.744  21.362  0.00  0.00    +0.000 A 
ATOM     24  C   UNL     1      -6.254  12.540  21.397  0.00  0.00    +0.000 A 
ATOM     25  C   UNL     1      -5.339  12.450  20.324  0.00  0.00    +0.000 A 
BRANCH  20  27
ATOM     26  C   UNL     1      -3.185  11.511  18.370  0.00  0.00    +0.000 C 
ATOM     27  N   UNL     1      -4.627  11.557  18.155  0.00  0.00    +0.000 N 
ATOM     28  C   UNL     1      -5.090  11.827  16.797  0.00  0.00    +0.000 C 
ENDBRANCH  20  27
ENDBRANCH  16  24
ENDBRANCH  12  18
ENDBRANCH   1  14
BRANCH   6  29
ATOM     29  C   UNL     1       0.694  10.551  18.893  0.00  0.00    +0.000 C 
BRANCH  29  30
ATOM     30  C   UNL     1       1.409   9.224  18.936  0.00  0.00    +0.000 A 
ATOM     31  C   UNL     1       2.002   8.686  17.786  0.00  0.00    +0.000 A 
ATOM     32  C   UNL     1       2.662   7.461  17.848  0.00  0.00    +0.000 A 
ATOM     33  C   UNL     1       2.701   6.802  19.064  0.00  0.00    +0.000 A 
ATOM     34  N   UNL     1       2.124   7.273  20.188  0.00  0.00    +0.000 NA
ATOM     35  C   UNL     1       1.494   8.469  20.101  0.00  0.00    +0.000 A 
ENDBRANCH  29  30
ENDBRANCH   6  29
TORSDOF 6
ENDMDL
MODEL 9
REMARK VINA RESULT:      -6.6      3.271      6.585
REMARK  Name = 
REMARK  8 active torsions:
REMARK  status: ('A' for Active; 'I' for Inactive)
REMARK    1  A    between atoms: C_1  and  N_2
REMARK    2  A    between atoms: N_2  and  C_3
REMARK    3  A    between atoms: N_2  and  C_4
REMARK    4  A    between atoms: C_8  and  C_9
REMARK    5  A    between atoms: N_11  and  C_12
REMARK    6  A    between atoms: C_14  and  N_15
REMARK    7  A    between atoms: N_20  and  C_21
REMARK    8  A    between atoms: C_21  and  C_22
REMARK                            x       y       z     vdW  Elec       q    Type
REMARK                         _______ _______ _______ _____ _____    ______ ____
ROOT
ATOM      1  N   UNL     1      -0.378  10.779  20.063  0.00  0.00    +0.000 N 
ATOM      2  C   UNL     1      -0.243  11.060  18.732  0.00  0.00    +0.000 A 
ATOM      3  N   UNL     1       0.558  10.202  18.128  0.00  0.00    +0.000 NA
ATOM      4  C   UNL     1       0.999   9.361  19.136  0.00  0.00    +0.000 A 
ATOM      5  C   UNL     1       1.833   8.217  19.126  0.00  0.00    +0.000 A 
ATOM      6  N   UNL     1       2.298   7.653  17.945  0.00  0.00    +0.000 N 
ATOM      7  N   UNL     1       2.112   7.636  20.323  0.00  0.00    +0.000 NA
ATOM      8  C   UNL     1       1.558   8.145  21.444  0.00  0.00    +0.000 A 
ATOM      9  N   UNL     1       0.729   9.201  21.562  0.00  0.00    +0.000 NA
ATOM     10  C   UNL     1       0.488   9.758  20.362  0.00  0.00    +0.000 A 
ATOM     11  H   UNL     1       2.173   8.258  17.140  0.00  0.00    +0.000 HD
ENDROOT
BRANCH   1  14
ATOM     12  C   UNL     1      -0.756  13.470  21.291  0.00  0.00    +0.000 C 
ATOM     13  C   UNL     1      -1.857  12.728  20.494  0.00  0.00    +0.000 C 
ATOM     14  C   UNL     1      -1.281  11.381  21.021  0.00  0.00    +0.000 C 
ATOM     15  C   UNL     1      -0.708  12.202  22.205  0.00  0.00    +0.000 C 
BRANCH  12  18
ATOM     16  C   UNL     1       1.645  14.353  21.217  0.00  0.00    +0.000 C 
ATOM     17  O   UNL     1       1.650  14.761  22.373  0.00  0.00    +0.000 OA
ATOM     18  N   UNL     1       0.570  13.681  20.668  0.00  0.00    +0.000 N 
ATOM     19  H   UNL     1       0.745  13.180  19.812  0.00  0.00    +0.000 HD
BRANCH  16  24
ATOM     20  C   UNL     1       5.241  15.034  19.934  0.00  0.00    +0.000 A 
ATOM     21  C   UNL     1       5.011  14.803  18.569  0.00  0.00    +0.000 A 
ATOM     22  C   UNL     1       3.736  14.513  18.069  0.00  0.00    +0.000 A 
ATOM     23  C   UNL     1       2.645  14.418  18.932  0.00  0.00    +0.000 A 
ATOM     24  C   UNL     1       2.829  14.578  20.306  0.00  0.00    +0.000 A 
ATOM     25  C   UNL     1       4.125  14.884  20.780  0.00  0.00    +0.000 A 
BRANCH  20  27
ATOM     26  C   UNL     1       7.257  14.479  21.287  0.00  0.00    +0.000 C 
ATOM     27  N   UNL     1       6.500  15.378  20.424  0.00  0.00    +0.000 N 
ATOM     28  C   UNL     1       6.983  16.750  20.305  0.00  0.00    +0.000 C 
ENDBRANCH  20  27
ENDBRANCH  16  24
ENDBRANCH  12  18
ENDBRANCH   1  14
BRANCH   6  29
ATOM     29  C   UNL     1       3.487   6.823  17.970  0.00  0.00    +0.000 C 
BRANCH  29  30
ATOM     30  C   UNL     1       3.093   5.372  17.851  0.00  0.00    +0.000 A 
ATOM     31  C   UNL     1       4.064   4.368  17.731  0.00  0.00    +0.000 A 
ATOM     32  C   UNL     1       3.679   3.034  17.626  0.00  0.00    +0.000 A 
ATOM     33  C   UNL     1       2.326   2.742  17.634  0.00  0.00    +0.000 A 
ATOM     34  N   UNL     1       1.361   3.679  17.724  0.00  0.00    +0.000 NA
ATOM     35  C   UNL     1       1.763   4.968  17.830  0.00  0.00    +0.000 A 
ENDBRANCH  29  30
ENDBRANCH   6  29
TORSDOF 6
ENDMDL
