MODEL 1
REMARK VINA RESULT:      -8.4      0.000      0.000
REMARK  Name = 
REMARK  12 active torsions:
REMARK  status: ('A' for Active; 'I' for Inactive)
REMARK    1  A    between atoms: C_1  and  C_2
REMARK    2  A    between atoms: C_2  and  O_3
REMARK    3  A    between atoms: C_2  and  C_28
REMARK    4  A    between atoms: O_3  and  C_4
REMARK    5  A    between atoms: C_4  and  C_6
REMARK    6  A    between atoms: C_8  and  C_9
REMARK    7  A    between atoms: N_20  and  C_21
REMARK    8  A    between atoms: C_21  and  C_22
REMARK    9  A    between atoms: N_30  and  C_31
REMARK   10  A    between atoms: C_31  and  C_32
REMARK   11  A    between atoms: C_31  and  C_33
REMARK   12  A    between atoms: C_31  and  C_34
REMARK                            x       y       z     vdW  Elec       q    Type
REMARK                         _______ _______ _______ _____ _____    ______ ____
ROOT
ATOM      1  C   UNL     1       1.146   9.034  18.842  0.00  0.00    +0.000 A 
ATOM      2  C   UNL     1       0.072   9.435  18.041  0.00  0.00    +0.000 A 
ATOM      3  C   UNL     1      -1.048  10.036  18.615  0.00  0.00    +0.000 A 
ATOM      4  N   UNL     1      -1.176  10.259  19.950  0.00  0.00    +0.000 NA
ATOM      5  C   UNL     1      -0.111   9.881  20.688  0.00  0.00    +0.000 A 
ATOM      6  C   UNL     1       1.049   9.275  20.221  0.00  0.00    +0.000 A 
ATOM      7  C   UNL     1       1.818   9.050  21.384  0.00  0.00    +0.000 A 
ATOM      8  N   UNL     1       1.211   9.461  22.501  0.00  0.00    +0.000 NA
ATOM      9  N   UNL     1       0.041   9.988  22.053  0.00  0.00    +0.000 N 
ENDROOT
BRANCH   3  10
ATOM     10  C   UNL     1      -2.192  10.465  17.774  0.00  0.00    +0.000 A 
ATOM     11  C   UNL     1      -3.220  11.261  18.308  0.00  0.00    +0.000 A 
ATOM     12  C   UNL     1      -4.286  11.698  17.518  0.00  0.00    +0.000 A 
ATOM     13  C   UNL     1      -4.355  11.342  16.175  0.00  0.00    +0.000 A 
ATOM     14  C   UNL     1      -3.367  10.532  15.625  0.00  0.00    +0.000 A 
ATOM     15  C   UNL     1      -2.298  10.102  16.415  0.00  0.00    +0.000 A 
ENDBRANCH   3  10
BRANCH   1  16
ATOM     16  C   UNL     1       2.329   8.352  18.273  0.00  0.00    +0.000 C 
ATOM     17  O   UNL     1       3.009   8.817  17.375  0.00  0.00    +0.000 OA
BRANCH  16  18
ATOM     18  O   UNL     1       2.542   7.168  18.906  0.00  0.00    +0.000 OA
BRANCH  18  20
ATOM     19  C   UNL     1       1.879   4.895  18.355  0.00  0.00    +0.000 C 
ATOM     20  C   UNL     1       2.827   6.058  18.044  0.00  0.00    +0.000 C 
BRANCH  20  21
ATOM     21  C   UNL     1       4.276   5.550  18.211  0.00  0.00    +0.000 C 
ATOM     22  O   UNL     1       4.511   4.413  18.617  0.00  0.00    +0.000 OA
ATOM     23  N   UNL     1       5.273   6.426  17.806  0.00  0.00    +0.000 N 
ATOM     24  H   UNL     1       4.996   7.356  17.518  0.00  0.00    +0.000 HD
BRANCH  23  25
ATOM     25  C   UNL     1       6.710   6.085  17.872  0.00  0.00    +0.000 C 
ATOM     26  C   UNL     1       7.054   4.976  16.862  0.00  0.00    +0.000 C 
ATOM     27  C   UNL     1       7.546   7.329  17.516  0.00  0.00    +0.000 C 
ATOM     28  C   UNL     1       7.109   5.645  19.293  0.00  0.00    +0.000 C 
ENDBRANCH  23  25
ENDBRANCH  20  21
ENDBRANCH  18  20
ENDBRANCH  16  18
ENDBRANCH   1  16
BRANCH   9  29
ATOM     29  C   UNL     1      -0.984  10.367  23.013  0.00  0.00    +0.000 C 
BRANCH  29  30
ATOM     30  C   UNL     1      -1.450  11.797  22.896  0.00  0.00    +0.000 A 
ATOM     31  C   UNL     1      -2.764  12.151  23.240  0.00  0.00    +0.000 A 
ATOM     32  C   UNL     1      -3.146  13.492  23.292  0.00  0.00    +0.000 A 
ATOM     33  C   UNL     1      -2.230  14.496  22.977  0.00  0.00    +0.000 A 
ATOM     34  C   UNL     1      -0.939  14.163  22.574  0.00  0.00    +0.000 A 
ATOM     35  C   UNL     1      -0.554  12.816  22.527  0.00  0.00    +0.000 A 
ENDBRANCH  29  30
ENDBRANCH   9  29
TORSDOF 8
ENDMDL
MODEL 2
REMARK VINA RESULT:      -8.0      2.861      8.742
REMARK  Name = 
REMARK  12 active torsions:
REMARK  status: ('A' for Active; 'I' for Inactive)
REMARK    1  A    between atoms: C_1  and  C_2
REMARK    2  A    between atoms: C_2  and  O_3
REMARK    3  A    between atoms: C_2  and  C_28
REMARK    4  A    between atoms: O_3  and  C_4
REMARK    5  A    between atoms: C_4  and  C_6
REMARK    6  A    between atoms: C_8  and  C_9
REMARK    7  A    between atoms: N_20  and  C_21
REMARK    8  A    between atoms: C_21  and  C_22
REMARK    9  A    between atoms: N_30  and  C_31
REMARK   10  A    between atoms: C_31  and  C_32
REMARK   11  A    between atoms: C_31  and  C_33
REMARK   12  A    between atoms: C_31  and  C_34
REMARK                            x       y       z     vdW  Elec       q    Type
REMARK                         _______ _______ _______ _____ _____    ______ ____
ROOT
ATOM      1  C   UNL     1       2.453   8.552  18.376  0.00  0.00    +0.000 A 
ATOM      2  C   UNL     1       3.294   7.893  17.472  0.00  0.00    +0.000 A 
ATOM      3  C   UNL     1       3.645   6.560  17.682  0.00  0.00    +0.000 A 
ATOM      4  N   UNL     1       3.217   5.832  18.748  0.00  0.00    +0.000 NA
ATOM      5  C   UNL     1       2.390   6.493  19.585  0.00  0.00    +0.000 A 
ATOM      6  C   UNL     1       1.979   7.815  19.472  0.00  0.00    +0.000 A 
ATOM      7  C   UNL     1       1.166   8.027  20.607  0.00  0.00    +0.000 A 
ATOM      8  N   UNL     1       1.066   6.947  21.388  0.00  0.00    +0.000 NA
ATOM      9  N   UNL     1       1.804   6.011  20.734  0.00  0.00    +0.000 N 
ENDROOT
BRANCH   3  10
ATOM     10  C   UNL     1       4.536   5.852  16.730  0.00  0.00    +0.000 A 
ATOM     11  C   UNL     1       4.714   4.460  16.809  0.00  0.00    +0.000 A 
ATOM     12  C   UNL     1       5.524   3.779  15.897  0.00  0.00    +0.000 A 
ATOM     13  C   UNL     1       6.185   4.474  14.890  0.00  0.00    +0.000 A 
ATOM     14  C   UNL     1       6.049   5.856  14.803  0.00  0.00    +0.000 A 
ATOM     15  C   UNL     1       5.233   6.535  15.712  0.00  0.00    +0.000 A 
ENDBRANCH   3  10
BRANCH   1  16
ATOM     16  C   UNL     1       2.097   9.978  18.209  0.00  0.00    +0.000 C 
ATOM     17  O   UNL     1       2.657  10.727  17.428  0.00  0.00    +0.000 OA
BRANCH  16  18
ATOM     18  O   UNL     1       1.064  10.305  19.030  0.00  0.00    +0.000 OA
BRANCH  18  20
ATOM     19  C   UNL     1       0.439  12.543  19.746  0.00  0.00    +0.000 C 
ATOM     20  C   UNL     1       0.330  11.479  18.650  0.00  0.00    +0.000 C 
BRANCH  20  21
ATOM     21  C   UNL     1      -1.168  11.179  18.423  0.00  0.00    +0.000 C 
ATOM     22  O   UNL     1      -2.006  11.420  19.290  0.00  0.00    +0.000 OA
ATOM     23  N   UNL     1      -1.503  10.696  17.166  0.00  0.00    +0.000 N 
ATOM     24  H   UNL     1      -0.749  10.491  16.522  0.00  0.00    +0.000 HD
BRANCH  23  25
ATOM     25  C   UNL     1      -2.895  10.386  16.776  0.00  0.00    +0.000 C 
ATOM     26  C   UNL     1      -2.943   9.791  15.357  0.00  0.00    +0.000 C 
ATOM     27  C   UNL     1      -3.476   9.341  17.748  0.00  0.00    +0.000 C 
ATOM     28  C   UNL     1      -3.784  11.641  16.851  0.00  0.00    +0.000 C 
ENDBRANCH  23  25
ENDBRANCH  20  21
ENDBRANCH  18  20
ENDBRANCH  16  18
ENDBRANCH   1  16
BRANCH   9  29
ATOM     29  C   UNL     1       2.092   4.744  21.390  0.00  0.00    +0.000 C 
BRANCH  29  30
ATOM     30  C   UNL     1       2.180   3.564  20.455  0.00  0.00    +0.000 A 
ATOM     31  C   UNL     1       1.058   3.146  19.724  0.00  0.00    +0.000 A 
ATOM     32  C   UNL     1       1.179   2.166  18.738  0.00  0.00    +0.000 A 
ATOM     33  C   UNL     1       2.416   1.573  18.485  0.00  0.00    +0.000 A 
ATOM     34  C   UNL     1       3.530   1.932  19.240  0.00  0.00    +0.000 A 
ATOM     35  C   UNL     1       3.409   2.920  20.227  0.00  0.00    +0.000 A 
ENDBRANCH  29  30
ENDBRANCH   9  29
TORSDOF 8
ENDMDL
MODEL 3
REMARK VINA RESULT:      -8.0      0.744      1.368
REMARK  Name = 
REMARK  12 active torsions:
REMARK  status: ('A' for Active; 'I' for Inactive)
REMARK    1  A    between atoms: C_1  and  C_2
REMARK    2  A    between atoms: C_2  and  O_3
REMARK    3  A    between atoms: C_2  and  C_28
REMARK    4  A    between atoms: O_3  and  C_4
REMARK    5  A    between atoms: C_4  and  C_6
REMARK    6  A    between atoms: C_8  and  C_9
REMARK    7  A    between atoms: N_20  and  C_21
REMARK    8  A    between atoms: C_21  and  C_22
REMARK    9  A    between atoms: N_30  and  C_31
REMARK   10  A    between atoms: C_31  and  C_32
REMARK   11  A    between atoms: C_31  and  C_33
REMARK   12  A    between atoms: C_31  and  C_34
REMARK                            x       y       z     vdW  Elec       q    Type
REMARK                         _______ _______ _______ _____ _____    ______ ____
ROOT
ATOM      1  C   UNL     1       0.975   9.228  18.904  0.00  0.00    +0.000 A 
ATOM      2  C   UNL     1      -0.105   9.629  18.110  0.00  0.00    +0.000 A 
ATOM      3  C   UNL     1      -1.211  10.249  18.688  0.00  0.00    +0.000 A 
ATOM      4  N   UNL     1      -1.320  10.493  20.022  0.00  0.00    +0.000 NA
ATOM      5  C   UNL     1      -0.250  10.115  20.752  0.00  0.00    +0.000 A 
ATOM      6  C   UNL     1       0.898   9.490  20.280  0.00  0.00    +0.000 A 
ATOM      7  C   UNL     1       1.679   9.273  21.437  0.00  0.00    +0.000 A 
ATOM      8  N   UNL     1       1.090   9.708  22.555  0.00  0.00    +0.000 NA
ATOM      9  N   UNL     1      -0.080  10.240  22.113  0.00  0.00    +0.000 N 
ENDROOT
BRANCH   3  10
ATOM     10  C   UNL     1      -2.361  10.678  17.855  0.00  0.00    +0.000 A 
ATOM     11  C   UNL     1      -3.448  11.363  18.425  0.00  0.00    +0.000 A 
ATOM     12  C   UNL     1      -4.521  11.800  17.645  0.00  0.00    +0.000 A 
ATOM     13  C   UNL     1      -4.538  11.555  16.276  0.00  0.00    +0.000 A 
ATOM     14  C   UNL     1      -3.490  10.856  15.688  0.00  0.00    +0.000 A 
ATOM     15  C   UNL     1      -2.414  10.425  16.469  0.00  0.00    +0.000 A 
ENDBRANCH   3  10
BRANCH   1  16
ATOM     16  C   UNL     1       2.145   8.526  18.330  0.00  0.00    +0.000 C 
ATOM     17  O   UNL     1       2.635   8.803  17.250  0.00  0.00    +0.000 OA
BRANCH  16  18
ATOM     18  O   UNL     1       2.584   7.564  19.185  0.00  0.00    +0.000 OA
BRANCH  18  20
ATOM     19  C   UNL     1       2.066   5.333  20.000  0.00  0.00    +0.000 C 
ATOM     20  C   UNL     1       2.319   6.216  18.774  0.00  0.00    +0.000 C 
BRANCH  20  21
ATOM     21  C   UNL     1       3.498   5.607  17.984  0.00  0.00    +0.000 C 
ATOM     22  O   UNL     1       3.382   4.540  17.385  0.00  0.00    +0.000 OA
ATOM     23  N   UNL     1       4.654   6.374  17.938  0.00  0.00    +0.000 N 
ATOM     24  H   UNL     1       4.680   7.223  18.488  0.00  0.00    +0.000 HD
BRANCH  23  25
ATOM     25  C   UNL     1       5.864   5.951  17.201  0.00  0.00    +0.000 C 
ATOM     26  C   UNL     1       6.993   6.983  17.369  0.00  0.00    +0.000 C 
ATOM     27  C   UNL     1       6.361   4.606  17.766  0.00  0.00    +0.000 C 
ATOM     28  C   UNL     1       5.557   5.744  15.706  0.00  0.00    +0.000 C 
ENDBRANCH  23  25
ENDBRANCH  20  21
ENDBRANCH  18  20
ENDBRANCH  16  18
ENDBRANCH   1  16
BRANCH   9  29
ATOM     29  C   UNL     1      -1.090  10.643  23.080  0.00  0.00    +0.000 C 
BRANCH  29  30
ATOM     30  C   UNL     1      -1.606  12.049  22.893  0.00  0.00    +0.000 A 
ATOM     31  C   UNL     1      -0.716  13.120  22.725  0.00  0.00    +0.000 A 
ATOM     32  C   UNL     1      -1.189  14.388  22.386  0.00  0.00    +0.000 A 
ATOM     33  C   UNL     1      -2.558  14.610  22.234  0.00  0.00    +0.000 A 
ATOM     34  C   UNL     1      -3.462  13.574  22.456  0.00  0.00    +0.000 A 
ATOM     35  C   UNL     1      -2.986  12.299  22.792  0.00  0.00    +0.000 A 
ENDBRANCH  29  30
ENDBRANCH   9  29
TORSDOF 8
ENDMDL
MODEL 4
REMARK VINA RESULT:      -8.0      1.435      2.664
REMARK  Name = 
REMARK  12 active torsions:
REMARK  status: ('A' for Active; 'I' for Inactive)
REMARK    1  A    between atoms: C_1  and  C_2
REMARK    2  A    between atoms: C_2  and  O_3
REMARK    3  A    between atoms: C_2  and  C_28
REMARK    4  A    between atoms: O_3  and  C_4
REMARK    5  A    between atoms: C_4  and  C_6
REMARK    6  A    between atoms: C_8  and  C_9
REMARK    7  A    between atoms: N_20  and  C_21
REMARK    8  A    between atoms: C_21  and  C_22
REMARK    9  A    between atoms: N_30  and  C_31
REMARK   10  A    between atoms: C_31  and  C_32
REMARK   11  A    between atoms: C_31  and  C_33
REMARK   12  A    between atoms: C_31  and  C_34
REMARK                            x       y       z     vdW  Elec       q    Type
REMARK                         _______ _______ _______ _____ _____    ______ ____
ROOT
ATOM      1  C   UNL     1       0.972   9.272  18.684  0.00  0.00    +0.000 A 
ATOM      2  C   UNL     1      -0.143   9.710  17.962  0.00  0.00    +0.000 A 
ATOM      3  C   UNL     1      -1.237  10.265  18.624  0.00  0.00    +0.000 A 
ATOM      4  N   UNL     1      -1.300  10.408  19.975  0.00  0.00    +0.000 NA
ATOM      5  C   UNL     1      -0.197   9.997  20.636  0.00  0.00    +0.000 A 
ATOM      6  C   UNL     1       0.942   9.431  20.078  0.00  0.00    +0.000 A 
ATOM      7  C   UNL     1       1.769   9.144  21.186  0.00  0.00    +0.000 A 
ATOM      8  N   UNL     1       1.216   9.484  22.354  0.00  0.00    +0.000 NA
ATOM      9  N   UNL     1       0.022  10.025  21.996  0.00  0.00    +0.000 N 
ENDROOT
BRANCH   3  10
ATOM     10  C   UNL     1      -2.424  10.733  17.868  0.00  0.00    +0.000 A 
ATOM     11  C   UNL     1      -2.545  10.483  16.490  0.00  0.00    +0.000 A 
ATOM     12  C   UNL     1      -3.673  10.890  15.774  0.00  0.00    +0.000 A 
ATOM     13  C   UNL     1      -4.705  11.566  16.417  0.00  0.00    +0.000 A 
ATOM     14  C   UNL     1      -4.602  11.852  17.774  0.00  0.00    +0.000 A 
ATOM     15  C   UNL     1      -3.475  11.438  18.490  0.00  0.00    +0.000 A 
ENDBRANCH   3  10
BRANCH   1  16
ATOM     16  C   UNL     1       2.130   8.636  18.018  0.00  0.00    +0.000 C 
ATOM     17  O   UNL     1       2.981   9.257  17.406  0.00  0.00    +0.000 OA
BRANCH  16  18
ATOM     18  O   UNL     1       2.104   7.290  18.208  0.00  0.00    +0.000 OA
BRANCH  18  20
ATOM     19  C   UNL     1       4.145   6.454  17.186  0.00  0.00    +0.000 C 
ATOM     20  C   UNL     1       3.375   6.688  18.489  0.00  0.00    +0.000 C 
BRANCH  20  21
ATOM     21  C   UNL     1       3.227   5.328  19.207  0.00  0.00    +0.000 C 
ATOM     22  O   UNL     1       4.042   4.960  20.052  0.00  0.00    +0.000 OA
ATOM     23  N   UNL     1       2.090   4.599  18.891  0.00  0.00    +0.000 N 
ATOM     24  H   UNL     1       1.488   4.956  18.158  0.00  0.00    +0.000 HD
BRANCH  23  25
ATOM     25  C   UNL     1       1.783   3.291  19.508  0.00  0.00    +0.000 C 
ATOM     26  C   UNL     1       1.378   3.467  20.983  0.00  0.00    +0.000 C 
ATOM     27  C   UNL     1       0.599   2.642  18.765  0.00  0.00    +0.000 C 
ATOM     28  C   UNL     1       2.984   2.333  19.402  0.00  0.00    +0.000 C 
ENDBRANCH  23  25
ENDBRANCH  20  21
ENDBRANCH  18  20
ENDBRANCH  16  18
ENDBRANCH   1  16
BRANCH   9  29
ATOM     29  C   UNL     1      -0.958  10.337  23.027  0.00  0.00    +0.000 C 
BRANCH  29  30
ATOM     30  C   UNL     1      -1.484  11.750  22.978  0.00  0.00    +0.000 A 
ATOM     31  C   UNL     1      -2.809  12.032  23.343  0.00  0.00    +0.000 A 
ATOM     32  C   UNL     1      -3.247  13.352  23.460  0.00  0.00    +0.000 A 
ATOM     33  C   UNL     1      -2.376  14.407  23.189  0.00  0.00    +0.000 A 
ATOM     34  C   UNL     1      -1.074  14.148  22.767  0.00  0.00    +0.000 A 
ATOM     35  C   UNL     1      -0.633  12.822  22.655  0.00  0.00    +0.000 A 
ENDBRANCH  29  30
ENDBRANCH   9  29
TORSDOF 8
ENDMDL
MODEL 5
REMARK VINA RESULT:      -8.0      0.560      1.008
REMARK  Name = 
REMARK  12 active torsions:
REMARK  status: ('A' for Active; 'I' for Inactive)
REMARK    1  A    between atoms: C_1  and  C_2
REMARK    2  A    between atoms: C_2  and  O_3
REMARK    3  A    between atoms: C_2  and  C_28
REMARK    4  A    between atoms: O_3  and  C_4
REMARK    5  A    between atoms: C_4  and  C_6
REMARK    6  A    between atoms: C_8  and  C_9
REMARK    7  A    between atoms: N_20  and  C_21
REMARK    8  A    between atoms: C_21  and  C_22
REMARK    9  A    between atoms: N_30  and  C_31
REMARK   10  A    between atoms: C_31  and  C_32
REMARK   11  A    between atoms: C_31  and  C_33
REMARK   12  A    between atoms: C_31  and  C_34
REMARK                            x       y       z     vdW  Elec       q    Type
REMARK                         _______ _______ _______ _____ _____    ______ ____
ROOT
ATOM      1  C   UNL     1       1.033   9.166  19.038  0.00  0.00    +0.000 A 
ATOM      2  C   UNL     1      -0.020   9.564  18.208  0.00  0.00    +0.000 A 
ATOM      3  C   UNL     1      -1.142  10.190  18.746  0.00  0.00    +0.000 A 
ATOM      4  N   UNL     1      -1.293  10.443  20.074  0.00  0.00    +0.000 NA
ATOM      5  C   UNL     1      -0.248  10.068  20.840  0.00  0.00    +0.000 A 
ATOM      6  C   UNL     1       0.913   9.438  20.409  0.00  0.00    +0.000 A 
ATOM      7  C   UNL     1       1.656   9.227  21.592  0.00  0.00    +0.000 A 
ATOM      8  N   UNL     1       1.033   9.670  22.688  0.00  0.00    +0.000 NA
ATOM      9  N   UNL     1      -0.122  10.202  22.206  0.00  0.00    +0.000 N 
ENDROOT
BRANCH   3  10
ATOM     10  C   UNL     1      -2.264  10.616  17.874  0.00  0.00    +0.000 A 
ATOM     11  C   UNL     1      -2.290  10.269  16.512  0.00  0.00    +0.000 A 
ATOM     12  C   UNL     1      -3.358  10.637  15.689  0.00  0.00    +0.000 A 
ATOM     13  C   UNL     1      -4.422  11.369  16.206  0.00  0.00    +0.000 A 
ATOM     14  C   UNL     1      -4.411  11.750  17.543  0.00  0.00    +0.000 A 
ATOM     15  C   UNL     1      -3.346  11.376  18.367  0.00  0.00    +0.000 A 
ENDBRANCH   3  10
BRANCH   1  16
ATOM     16  C   UNL     1       2.219   8.458  18.507  0.00  0.00    +0.000 C 
ATOM     17  O   UNL     1       3.024   8.966  17.747  0.00  0.00    +0.000 OA
BRANCH  16  18
ATOM     18  O   UNL     1       2.275   7.194  19.003  0.00  0.00    +0.000 OA
BRANCH  18  20
ATOM     19  C   UNL     1       1.991   4.879  18.316  0.00  0.00    +0.000 C 
ATOM     20  C   UNL     1       2.737   6.196  18.081  0.00  0.00    +0.000 C 
BRANCH  20  21
ATOM     21  C   UNL     1       4.249   5.922  18.231  0.00  0.00    +0.000 C 
ATOM     22  O   UNL     1       4.746   5.667  19.327  0.00  0.00    +0.000 OA
ATOM     23  N   UNL     1       4.981   5.910  17.053  0.00  0.00    +0.000 N 
ATOM     24  H   UNL     1       4.503   6.165  16.197  0.00  0.00    +0.000 HD
BRANCH  23  25
ATOM     25  C   UNL     1       6.433   5.635  17.017  0.00  0.00    +0.000 C 
ATOM     26  C   UNL     1       6.874   5.216  15.603  0.00  0.00    +0.000 C 
ATOM     27  C   UNL     1       7.203   6.915  17.395  0.00  0.00    +0.000 C 
ATOM     28  C   UNL     1       6.814   4.543  18.033  0.00  0.00    +0.000 C 
ENDBRANCH  23  25
ENDBRANCH  20  21
ENDBRANCH  18  20
ENDBRANCH  16  18
ENDBRANCH   1  16
BRANCH   9  29
ATOM     29  C   UNL     1      -1.161  10.614  23.137  0.00  0.00    +0.000 C 
BRANCH  29  30
ATOM     30  C   UNL     1      -1.656  12.024  22.934  0.00  0.00    +0.000 A 
ATOM     31  C   UNL     1      -3.031  12.306  22.942  0.00  0.00    +0.000 A 
ATOM     32  C   UNL     1      -3.483  13.626  22.922  0.00  0.00    +0.000 A 
ATOM     33  C   UNL     1      -2.572  14.681  22.870  0.00  0.00    +0.000 A 
ATOM     34  C   UNL     1      -1.205  14.420  22.801  0.00  0.00    +0.000 A 
ATOM     35  C   UNL     1      -0.751  13.094  22.826  0.00  0.00    +0.000 A 
ENDBRANCH  29  30
ENDBRANCH   9  29
TORSDOF 8
ENDMDL
MODEL 6
REMARK VINA RESULT:      -7.9      1.445      2.503
REMARK  Name = 
REMARK  12 active torsions:
REMARK  status: ('A' for Active; 'I' for Inactive)
REMARK    1  A    between atoms: C_1  and  C_2
REMARK    2  A    between atoms: C_2  and  O_3
REMARK    3  A    between atoms: C_2  and  C_28
REMARK    4  A    between atoms: O_3  and  C_4
REMARK    5  A    between atoms: C_4  and  C_6
REMARK    6  A    between atoms: C_8  and  C_9
REMARK    7  A    between atoms: N_20  and  C_21
REMARK    8  A    between atoms: C_21  and  C_22
REMARK    9  A    between atoms: N_30  and  C_31
REMARK   10  A    between atoms: C_31  and  C_32
REMARK   11  A    between atoms: C_31  and  C_33
REMARK   12  A    between atoms: C_31  and  C_34
REMARK                            x       y       z     vdW  Elec       q    Type
REMARK                         _______ _______ _______ _____ _____    ______ ____
ROOT
ATOM      1  C   UNL     1       0.968   9.292  18.700  0.00  0.00    +0.000 A 
ATOM      2  C   UNL     1      -0.153   9.710  17.975  0.00  0.00    +0.000 A 
ATOM      3  C   UNL     1      -1.254  10.255  18.633  0.00  0.00    +0.000 A 
ATOM      4  N   UNL     1      -1.319  10.407  19.983  0.00  0.00    +0.000 NA
ATOM      5  C   UNL     1      -0.211  10.016  20.647  0.00  0.00    +0.000 A 
ATOM      6  C   UNL     1       0.936   9.461  20.093  0.00  0.00    +0.000 A 
ATOM      7  C   UNL     1       1.767   9.194  21.203  0.00  0.00    +0.000 A 
ATOM      8  N   UNL     1       1.209   9.534  22.369  0.00  0.00    +0.000 NA
ATOM      9  N   UNL     1       0.007  10.057  22.006  0.00  0.00    +0.000 N 
ENDROOT
BRANCH   3  10
ATOM     10  C   UNL     1      -2.447  10.700  17.873  0.00  0.00    +0.000 A 
ATOM     11  C   UNL     1      -3.500  11.374  18.515  0.00  0.00    +0.000 A 
ATOM     12  C   UNL     1      -4.614  11.827  17.804  0.00  0.00    +0.000 A 
ATOM     13  C   UNL     1      -4.706  11.609  16.433  0.00  0.00    +0.000 A 
ATOM     14  C   UNL     1      -3.693  10.921  15.774  0.00  0.00    +0.000 A 
ATOM     15  C   UNL     1      -2.576  10.475  16.487  0.00  0.00    +0.000 A 
ENDBRANCH   3  10
BRANCH   1  16
ATOM     16  C   UNL     1       2.135   8.668  18.039  0.00  0.00    +0.000 C 
ATOM     17  O   UNL     1       2.996   9.299  17.451  0.00  0.00    +0.000 OA
BRANCH  16  18
ATOM     18  O   UNL     1       2.105   7.319  18.203  0.00  0.00    +0.000 OA
BRANCH  18  20
ATOM     19  C   UNL     1       4.122   6.462  17.151  0.00  0.00    +0.000 C 
ATOM     20  C   UNL     1       3.375   6.706  18.466  0.00  0.00    +0.000 C 
BRANCH  20  21
ATOM     21  C   UNL     1       3.227   5.350  19.190  0.00  0.00    +0.000 C 
ATOM     22  O   UNL     1       4.045   4.984  20.032  0.00  0.00    +0.000 OA
ATOM     23  N   UNL     1       2.087   4.622  18.881  0.00  0.00    +0.000 N 
ATOM     24  H   UNL     1       1.483   4.977  18.150  0.00  0.00    +0.000 HD
BRANCH  23  25
ATOM     25  C   UNL     1       1.779   3.318  19.506  0.00  0.00    +0.000 C 
ATOM     26  C   UNL     1       3.024   2.412  19.517  0.00  0.00    +0.000 C 
ATOM     27  C   UNL     1       1.343   3.543  20.967  0.00  0.00    +0.000 C 
ATOM     28  C   UNL     1       0.621   2.614  18.775  0.00  0.00    +0.000 C 
ENDBRANCH  23  25
ENDBRANCH  20  21
ENDBRANCH  18  20
ENDBRANCH  16  18
ENDBRANCH   1  16
BRANCH   9  29
ATOM     29  C   UNL     1      -0.976  10.363  23.035  0.00  0.00    +0.000 C 
BRANCH  29  30
ATOM     30  C   UNL     1      -1.512  11.772  22.984  0.00  0.00    +0.000 A 
ATOM     31  C   UNL     1      -2.839  12.045  23.351  0.00  0.00    +0.000 A 
ATOM     32  C   UNL     1      -3.285  13.363  23.465  0.00  0.00    +0.000 A 
ATOM     33  C   UNL     1      -2.422  14.423  23.191  0.00  0.00    +0.000 A 
ATOM     34  C   UNL     1      -1.119  14.172  22.768  0.00  0.00    +0.000 A 
ATOM     35  C   UNL     1      -0.669  12.849  22.658  0.00  0.00    +0.000 A 
ENDBRANCH  29  30
ENDBRANCH   9  29
TORSDOF 8
ENDMDL
MODEL 7
REMARK VINA RESULT:      -7.9      3.990      7.798
REMARK  Name = 
REMARK  12 active torsions:
REMARK  status: ('A' for Active; 'I' for Inactive)
REMARK    1  A    between atoms: C_1  and  C_2
REMARK    2  A    between atoms: C_2  and  O_3
REMARK    3  A    between atoms: C_2  and  C_28
REMARK    4  A    between atoms: O_3  and  C_4
REMARK    5  A    between atoms: C_4  and  C_6
REMARK    6  A    between atoms: C_8  and  C_9
REMARK    7  A    between atoms: N_20  and  C_21
REMARK    8  A    between atoms: C_21  and  C_22
REMARK    9  A    between atoms: N_30  and  C_31
REMARK   10  A    between atoms: C_31  and  C_32
REMARK   11  A    between atoms: C_31  and  C_33
REMARK   12  A    between atoms: C_31  and  C_34
REMARK                            x       y       z     vdW  Elec       q    Type
REMARK                         _______ _______ _______ _____ _____    ______ ____
ROOT
ATOM      1  C   UNL     1       5.614   6.644  17.158  0.00  0.00    +0.000 A 
ATOM      2  C   UNL     1       4.642   7.516  17.661  0.00  0.00    +0.000 A 
ATOM      3  C   UNL     1       3.406   7.025  18.080  0.00  0.00    +0.000 A 
ATOM      4  N   UNL     1       3.065   5.710  18.024  0.00  0.00    +0.000 NA
ATOM      5  C   UNL     1       4.035   4.897  17.557  0.00  0.00    +0.000 A 
ATOM      6  C   UNL     1       5.295   5.278  17.113  0.00  0.00    +0.000 A 
ATOM      7  C   UNL     1       5.899   4.072  16.694  0.00  0.00    +0.000 A 
ATOM      8  N   UNL     1       5.102   3.009  16.844  0.00  0.00    +0.000 NA
ATOM      9  N   UNL     1       3.974   3.530  17.394  0.00  0.00    +0.000 N 
ENDROOT
BRANCH   3  10
ATOM     10  C   UNL     1       2.369   7.941  18.615  0.00  0.00    +0.000 A 
ATOM     11  C   UNL     1       1.964   7.865  19.959  0.00  0.00    +0.000 A 
ATOM     12  C   UNL     1       1.012   8.744  20.481  0.00  0.00    +0.000 A 
ATOM     13  C   UNL     1       0.434   9.715  19.670  0.00  0.00    +0.000 A 
ATOM     14  C   UNL     1       0.795   9.797  18.329  0.00  0.00    +0.000 A 
ATOM     15  C   UNL     1       1.753   8.922  17.810  0.00  0.00    +0.000 A 
ENDBRANCH   3  10
BRANCH   1  16
ATOM     16  C   UNL     1       6.918   7.135  16.662  0.00  0.00    +0.000 C 
ATOM     17  O   UNL     1       7.654   6.485  15.941  0.00  0.00    +0.000 OA
BRANCH  16  18
ATOM     18  O   UNL     1       7.149   8.397  17.110  0.00  0.00    +0.000 OA
BRANCH  18  20
ATOM     19  C   UNL     1       8.504   7.743  19.020  0.00  0.00    +0.000 C 
ATOM     20  C   UNL     1       8.418   8.596  17.751  0.00  0.00    +0.000 C 
BRANCH  20  21
ATOM     21  C   UNL     1       8.642  10.071  18.150  0.00  0.00    +0.000 C 
ATOM     22  O   UNL     1       7.912  10.965  17.726  0.00  0.00    +0.000 OA
ATOM     23  N   UNL     1       9.661  10.301  19.063  0.00  0.00    +0.000 N 
ATOM     24  H   UNL     1      10.239   9.515  19.334  0.00  0.00    +0.000 HD
BRANCH  23  25
ATOM     25  C   UNL     1       9.988  11.650  19.571  0.00  0.00    +0.000 C 
ATOM     26  C   UNL     1       9.750  12.714  18.484  0.00  0.00    +0.000 C 
ATOM     27  C   UNL     1       9.074  11.980  20.767  0.00  0.00    +0.000 C 
ATOM     28  C   UNL     1      11.446  11.718  20.063  0.00  0.00    +0.000 C 
ENDBRANCH  23  25
ENDBRANCH  20  21
ENDBRANCH  18  20
ENDBRANCH  16  18
ENDBRANCH   1  16
BRANCH   9  29
ATOM     29  C   UNL     1       2.791   2.693  17.523  0.00  0.00    +0.000 C 
BRANCH  29  30
ATOM     30  C   UNL     1       2.237   2.609  18.924  0.00  0.00    +0.000 A 
ATOM     31  C   UNL     1       3.081   2.336  20.011  0.00  0.00    +0.000 A 
ATOM     32  C   UNL     1       2.603   2.423  21.319  0.00  0.00    +0.000 A 
ATOM     33  C   UNL     1       1.270   2.759  21.558  0.00  0.00    +0.000 A 
ATOM     34  C   UNL     1       0.401   2.975  20.491  0.00  0.00    +0.000 A 
ATOM     35  C   UNL     1       0.883   2.892  19.178  0.00  0.00    +0.000 A 
ENDBRANCH  29  30
ENDBRANCH   9  29
TORSDOF 8
ENDMDL
MODEL 8
REMARK VINA RESULT:      -7.8      3.981      7.815
REMARK  Name = 
REMARK  12 active torsions:
REMARK  status: ('A' for Active; 'I' for Inactive)
REMARK    1  A    between atoms: C_1  and  C_2
REMARK    2  A    between atoms: C_2  and  O_3
REMARK    3  A    between atoms: C_2  and  C_28
REMARK    4  A    between atoms: O_3  and  C_4
REMARK    5  A    between atoms: C_4  and  C_6
REMARK    6  A    between atoms: C_8  and  C_9
REMARK    7  A    between atoms: N_20  and  C_21
REMARK    8  A    between atoms: C_21  and  C_22
REMARK    9  A    between atoms: N_30  and  C_31
REMARK   10  A    between atoms: C_31  and  C_32
REMARK   11  A    between atoms: C_31  and  C_33
REMARK   12  A    between atoms: C_31  and  C_34
REMARK                            x       y       z     vdW  Elec       q    Type
REMARK                         _______ _______ _______ _____ _____    ______ ____
ROOT
ATOM      1  C   UNL     1       5.629   6.699  17.179  0.00  0.00    +0.000 A 
ATOM      2  C   UNL     1       4.652   7.568  17.677  0.00  0.00    +0.000 A 
ATOM      3  C   UNL     1       3.415   7.075  18.087  0.00  0.00    +0.000 A 
ATOM      4  N   UNL     1       3.076   5.759  18.026  0.00  0.00    +0.000 NA
ATOM      5  C   UNL     1       4.051   4.948  17.563  0.00  0.00    +0.000 A 
ATOM      6  C   UNL     1       5.313   5.333  17.129  0.00  0.00    +0.000 A 
ATOM      7  C   UNL     1       5.921   4.128  16.712  0.00  0.00    +0.000 A 
ATOM      8  N   UNL     1       5.126   3.064  16.854  0.00  0.00    +0.000 NA
ATOM      9  N   UNL     1       3.993   3.582  17.397  0.00  0.00    +0.000 N 
ENDROOT
BRANCH   3  10
ATOM     10  C   UNL     1       2.372   7.988  18.617  0.00  0.00    +0.000 A 
ATOM     11  C   UNL     1       1.768   8.949  17.788  0.00  0.00    +0.000 A 
ATOM     12  C   UNL     1       0.762   9.792  18.268  0.00  0.00    +0.000 A 
ATOM     13  C   UNL     1       0.343   9.701  19.591  0.00  0.00    +0.000 A 
ATOM     14  C   UNL     1       0.941   8.778  20.442  0.00  0.00    +0.000 A 
ATOM     15  C   UNL     1       1.942   7.931  19.959  0.00  0.00    +0.000 A 
ENDBRANCH   3  10
BRANCH   1  16
ATOM     16  C   UNL     1       6.936   7.194  16.693  0.00  0.00    +0.000 C 
ATOM     17  O   UNL     1       7.676   6.548  15.972  0.00  0.00    +0.000 OA
BRANCH  16  18
ATOM     18  O   UNL     1       7.165   8.453  17.151  0.00  0.00    +0.000 OA
BRANCH  18  20
ATOM     19  C   UNL     1       8.547   7.871  19.065  0.00  0.00    +0.000 C 
ATOM     20  C   UNL     1       8.449   8.659  17.755  0.00  0.00    +0.000 C 
BRANCH  20  21
ATOM     21  C   UNL     1       8.709  10.148  18.073  0.00  0.00    +0.000 C 
ATOM     22  O   UNL     1       7.949  11.028  17.674  0.00  0.00    +0.000 OA
ATOM     23  N   UNL     1       9.799  10.410  18.890  0.00  0.00    +0.000 N 
ATOM     24  H   UNL     1      10.396   9.632  19.146  0.00  0.00    +0.000 HD
BRANCH  23  25
ATOM     25  C   UNL     1      10.170  11.777  19.313  0.00  0.00    +0.000 C 
ATOM     26  C   UNL     1      11.555  11.783  19.984  0.00  0.00    +0.000 C 
ATOM     27  C   UNL     1      10.237  12.693  18.076  0.00  0.00    +0.000 C 
ATOM     28  C   UNL     1       9.118  12.363  20.273  0.00  0.00    +0.000 C 
ENDBRANCH  23  25
ENDBRANCH  20  21
ENDBRANCH  18  20
ENDBRANCH  16  18
ENDBRANCH   1  16
BRANCH   9  29
ATOM     29  C   UNL     1       2.811   2.742  17.516  0.00  0.00    +0.000 C 
BRANCH  29  30
ATOM     30  C   UNL     1       2.248   2.652  18.913  0.00  0.00    +0.000 A 
ATOM     31  C   UNL     1       3.088   2.382  20.005  0.00  0.00    +0.000 A 
ATOM     32  C   UNL     1       2.601   2.463  21.310  0.00  0.00    +0.000 A 
ATOM     33  C   UNL     1       1.265   2.792  21.542  0.00  0.00    +0.000 A 
ATOM     34  C   UNL     1       0.402   3.006  20.471  0.00  0.00    +0.000 A 
ATOM     35  C   UNL     1       0.892   2.928  19.160  0.00  0.00    +0.000 A 
ENDBRANCH  29  30
ENDBRANCH   9  29
TORSDOF 8
ENDMDL
MODEL 9
REMARK VINA RESULT:      -7.7      2.727     10.151
REMARK  Name = 
REMARK  12 active torsions:
REMARK  status: ('A' for Active; 'I' for Inactive)
REMARK    1  A    between atoms: C_1  and  C_2
REMARK    2  A    between atoms: C_2  and  O_3
REMARK    3  A    between atoms: C_2  and  C_28
REMARK    4  A    between atoms: O_3  and  C_4
REMARK    5  A    between atoms: C_4  and  C_6
REMARK    6  A    between atoms: C_8  and  C_9
REMARK    7  A    between atoms: N_20  and  C_21
REMARK    8  A    between atoms: C_21  and  C_22
REMARK    9  A    between atoms: N_30  and  C_31
REMARK   10  A    between atoms: C_31  and  C_32
REMARK   11  A    between atoms: C_31  and  C_33
REMARK   12  A    between atoms: C_31  and  C_34
REMARK                            x       y       z     vdW  Elec       q    Type
REMARK                         _______ _______ _______ _____ _____    ______ ____
ROOT
ATOM      1  C   UNL     1       2.920   7.316  18.097  0.00  0.00    +0.000 A 
ATOM      2  C   UNL     1       2.513   6.338  19.010  0.00  0.00    +0.000 A 
ATOM      3  C   UNL     1       3.114   5.080  19.008  0.00  0.00    +0.000 A 
ATOM      4  N   UNL     1       4.100   4.723  18.141  0.00  0.00    +0.000 NA
ATOM      5  C   UNL     1       4.483   5.699  17.292  0.00  0.00    +0.000 A 
ATOM      6  C   UNL     1       3.953   6.981  17.208  0.00  0.00    +0.000 A 
ATOM      7  C   UNL     1       4.662   7.583  16.145  0.00  0.00    +0.000 A 
ATOM      8  N   UNL     1       5.561   6.767  15.586  0.00  0.00    +0.000 NA
ATOM      9  N   UNL     1       5.452   5.626  16.316  0.00  0.00    +0.000 N 
ENDROOT
BRANCH   3  10
ATOM     10  C   UNL     1       2.690   4.036  19.972  0.00  0.00    +0.000 A 
ATOM     11  C   UNL     1       3.592   3.051  20.411  0.00  0.00    +0.000 A 
ATOM     12  C   UNL     1       3.213   2.082  21.343  0.00  0.00    +0.000 A 
ATOM     13  C   UNL     1       1.919   2.068  21.853  0.00  0.00    +0.000 A 
ATOM     14  C   UNL     1       0.997   3.014  21.418  0.00  0.00    +0.000 A 
ATOM     15  C   UNL     1       1.380   3.986  20.490  0.00  0.00    +0.000 A 
ENDBRANCH   3  10
BRANCH   1  16
ATOM     16  C   UNL     1       2.273   8.646  18.041  0.00  0.00    +0.000 C 
ATOM     17  O   UNL     1       2.692   9.572  17.370  0.00  0.00    +0.000 OA
BRANCH  16  18
ATOM     18  O   UNL     1       1.159   8.662  18.819  0.00  0.00    +0.000 OA
BRANCH  18  20
ATOM     19  C   UNL     1       0.512   9.601  20.966  0.00  0.00    +0.000 C 
ATOM     20  C   UNL     1       0.921   9.891  19.519  0.00  0.00    +0.000 C 
BRANCH  20  21
ATOM     21  C   UNL     1      -0.203  10.724  18.863  0.00  0.00    +0.000 C 
ATOM     22  O   UNL     1      -0.013  11.887  18.510  0.00  0.00    +0.000 OA
ATOM     23  N   UNL     1      -1.397  10.055  18.639  0.00  0.00    +0.000 N 
ATOM     24  H   UNL     1      -1.484   9.110  18.993  0.00  0.00    +0.000 HD
BRANCH  23  25
ATOM     25  C   UNL     1      -2.563  10.697  17.995  0.00  0.00    +0.000 C 
ATOM     26  C   UNL     1      -2.185  11.252  16.610  0.00  0.00    +0.000 C 
ATOM     27  C   UNL     1      -3.678   9.651  17.799  0.00  0.00    +0.000 C 
ATOM     28  C   UNL     1      -3.130  11.825  18.877  0.00  0.00    +0.000 C 
ENDBRANCH  23  25
ENDBRANCH  20  21
ENDBRANCH  18  20
ENDBRANCH  16  18
ENDBRANCH   1  16
BRANCH   9  29
ATOM     29  C   UNL     1       6.148   4.427  15.872  0.00  0.00    +0.000 C 
BRANCH  29  30
ATOM     30  C   UNL     1       6.368   4.351  14.381  0.00  0.00    +0.000 A 
ATOM     31  C   UNL     1       7.439   5.031  13.782  0.00  0.00    +0.000 A 
ATOM     32  C   UNL     1       7.742   4.828  12.435  0.00  0.00    +0.000 A 
ATOM     33  C   UNL     1       6.966   3.962  11.663  0.00  0.00    +0.000 A 
ATOM     34  C   UNL     1       5.863   3.324  12.225  0.00  0.00    +0.000 A 
ATOM     35  C   UNL     1       5.562   3.524  13.579  0.00  0.00    +0.000 A 
ENDBRANCH  29  30
ENDBRANCH   9  29
TORSDOF 8
ENDMDL
