MODEL 1
REMARK VINA RESULT:      -7.4      0.000      0.000
REMARK  Name = 
REMARK  9 active torsions:
REMARK  status: ('A' for Active; 'I' for Inactive)
REMARK    1  A    between atoms: C_1  and  O_2
REMARK    2  A    between atoms: O_2  and  C_3
REMARK    3  A    between atoms: C_7  and  C_8
REMARK    4  A    between atoms: C_8  and  C_9
REMARK    5  A    between atoms: C_8  and  N_10
REMARK    6  A    between atoms: N_10  and  C_11
REMARK    7  A    between atoms: N_10  and  C_12
REMARK    8  A    between atoms: C_12  and  C_13
REMARK    9  A    between atoms: C_15  and  C_16
REMARK                            x       y       z     vdW  Elec       q    Type
REMARK                         _______ _______ _______ _____ _____    ______ ____
ROOT
ATOM      1  N   UNL     1       7.390   5.649  16.705  0.00  0.00    +0.000 NA
ATOM      2  C   UNL     1       7.483   7.053  17.117  0.00  0.00    +0.000 C 
ENDROOT
BRANCH   1   3
ATOM      3  C   UNL     1       6.175   5.347  15.909  0.00  0.00    +0.000 C 
ATOM      4  C   UNL     1       5.096   6.447  15.888  0.00  0.00    +0.000 C 
BRANCH   3   9
ATOM      5  C   UNL     1       5.966   3.473  12.568  0.00  0.00    +0.000 A 
ATOM      6  C   UNL     1       7.040   4.020  11.866  0.00  0.00    +0.000 A 
ATOM      7  C   UNL     1       7.875   4.957  12.470  0.00  0.00    +0.000 A 
ATOM      8  C   UNL     1       7.610   5.381  13.772  0.00  0.00    +0.000 A 
ATOM      9  C   UNL     1       6.516   4.870  14.491  0.00  0.00    +0.000 A 
ATOM     10  C   UNL     1       5.710   3.892  13.877  0.00  0.00    +0.000 A 
BRANCH   5  12
ATOM     11  C   UNL     1       5.945   1.516  11.234  0.00  0.00    +0.000 C 
ATOM     12  O   UNL     1       5.222   2.569  11.860  0.00  0.00    +0.000 OA
ENDBRANCH   5  12
ENDBRANCH   3   9
ENDBRANCH   1   3
BRANCH   1  13
ATOM     13  C   UNL     1       7.535   4.729  17.864  0.00  0.00    +0.000 C 
BRANCH  13  14
ATOM     14  C   UNL     1       6.290   4.610  18.682  0.00  0.00    +0.000 A 
ATOM     15  N   UNL     1       5.375   3.664  18.636  0.00  0.00    +0.000 NA
ATOM     16  C   UNL     1       4.332   4.234  19.325  0.00  0.00    +0.000 A 
ATOM     17  N   UNL     1       4.621   5.418  19.884  0.00  0.00    +0.000 NA
ATOM     18  O   UNL     1       5.925   5.678  19.445  0.00  0.00    +0.000 OA
BRANCH  16  19
ATOM     19  C   UNL     1       2.975   3.612  19.356  0.00  0.00    +0.000 A 
ATOM     20  C   UNL     1       2.157   3.462  18.256  0.00  0.00    +0.000 A 
ATOM     21  C   UNL     1       0.935   2.802  18.583  0.00  0.00    +0.000 A 
ATOM     22  C   UNL     1       0.867   2.470  19.917  0.00  0.00    +0.000 A 
ATOM     23  S   UNL     1       2.274   2.946  20.766  0.00  0.00    +0.000 S 
ENDBRANCH  16  19
ENDBRANCH  13  14
ENDBRANCH   1  13
TORSDOF 6
ENDMDL
MODEL 2
REMARK VINA RESULT:      -7.3      3.532      7.315
REMARK  Name = 
REMARK  9 active torsions:
REMARK  status: ('A' for Active; 'I' for Inactive)
REMARK    1  A    between atoms: C_1  and  O_2
REMARK    2  A    between atoms: O_2  and  C_3
REMARK    3  A    between atoms: C_7  and  C_8
REMARK    4  A    between atoms: C_8  and  C_9
REMARK    5  A    between atoms: C_8  and  N_10
REMARK    6  A    between atoms: N_10  and  C_11
REMARK    7  A    between atoms: N_10  and  C_12
REMARK    8  A    between atoms: C_12  and  C_13
REMARK    9  A    between atoms: C_15  and  C_16
REMARK                            x       y       z     vdW  Elec       q    Type
REMARK                         _______ _______ _______ _____ _____    ______ ____
ROOT
ATOM      1  N   UNL     1       4.260   4.590  19.236  0.00  0.00    +0.000 NA
ATOM      2  C   UNL     1       4.598   3.166  19.137  0.00  0.00    +0.000 C 
ENDROOT
BRANCH   1   3
ATOM      3  C   UNL     1       3.216   5.015  18.273  0.00  0.00    +0.000 C 
ATOM      4  C   UNL     1       2.112   3.981  17.979  0.00  0.00    +0.000 C 
BRANCH   3   9
ATOM      5  C   UNL     1       1.688   7.881  20.315  0.00  0.00    +0.000 A 
ATOM      6  C   UNL     1       1.602   8.896  19.363  0.00  0.00    +0.000 A 
ATOM      7  C   UNL     1       1.984   8.662  18.045  0.00  0.00    +0.000 A 
ATOM      8  C   UNL     1       2.494   7.415  17.684  0.00  0.00    +0.000 A 
ATOM      9  C   UNL     1       2.621   6.383  18.630  0.00  0.00    +0.000 A 
ATOM     10  C   UNL     1       2.188   6.628  19.948  0.00  0.00    +0.000 A 
BRANCH   5  12
ATOM     11  C   UNL     1       0.763   9.557  21.709  0.00  0.00    +0.000 C 
ATOM     12  O   UNL     1       1.287   8.242  21.573  0.00  0.00    +0.000 OA
ENDBRANCH   5  12
ENDBRANCH   3   9
ENDBRANCH   1   3
BRANCH   1  13
ATOM     13  C   UNL     1       5.473   5.446  19.153  0.00  0.00    +0.000 C 
BRANCH  13  14
ATOM     14  C   UNL     1       6.274   5.214  17.913  0.00  0.00    +0.000 A 
ATOM     15  N   UNL     1       5.895   5.364  16.661  0.00  0.00    +0.000 NA
ATOM     16  C   UNL     1       6.881   4.698  15.977  0.00  0.00    +0.000 A 
ATOM     17  N   UNL     1       7.892   4.265  16.745  0.00  0.00    +0.000 NA
ATOM     18  O   UNL     1       7.483   4.598  18.042  0.00  0.00    +0.000 OA
BRANCH  16  19
ATOM     19  C   UNL     1       6.771   4.411  14.515  0.00  0.00    +0.000 A 
ATOM     20  C   UNL     1       5.754   3.682  13.935  0.00  0.00    +0.000 A 
ATOM     21  C   UNL     1       5.892   3.603  12.518  0.00  0.00    +0.000 A 
ATOM     22  C   UNL     1       7.006   4.276  12.068  0.00  0.00    +0.000 A 
ATOM     23  S   UNL     1       7.873   5.004  13.351  0.00  0.00    +0.000 S 
ENDBRANCH  16  19
ENDBRANCH  13  14
ENDBRANCH   1  13
TORSDOF 6
ENDMDL
MODEL 3
REMARK VINA RESULT:      -7.1      3.756      7.345
REMARK  Name = 
REMARK  9 active torsions:
REMARK  status: ('A' for Active; 'I' for Inactive)
REMARK    1  A    between atoms: C_1  and  O_2
REMARK    2  A    between atoms: O_2  and  C_3
REMARK    3  A    between atoms: C_7  and  C_8
REMARK    4  A    between atoms: C_8  and  C_9
REMARK    5  A    between atoms: C_8  and  N_10
REMARK    6  A    between atoms: N_10  and  C_11
REMARK    7  A    between atoms: N_10  and  C_12
REMARK    8  A    between atoms: C_12  and  C_13
REMARK    9  A    between atoms: C_15  and  C_16
REMARK                            x       y       z     vdW  Elec       q    Type
REMARK                         _______ _______ _______ _____ _____    ______ ____
ROOT
ATOM      1  N   UNL     1       2.630   3.133  20.565  0.00  0.00    +0.000 NA
ATOM      2  C   UNL     1       1.811   2.388  21.528  0.00  0.00    +0.000 C 
ENDROOT
BRANCH   1   3
ATOM      3  C   UNL     1       1.852   3.677  19.426  0.00  0.00    +0.000 C 
ATOM      4  C   UNL     1       0.396   3.185  19.312  0.00  0.00    +0.000 C 
BRANCH   3   9
ATOM      5  C   UNL     1       1.692   7.373  20.438  0.00  0.00    +0.000 A 
ATOM      6  C   UNL     1       2.146   8.007  19.282  0.00  0.00    +0.000 A 
ATOM      7  C   UNL     1       2.461   7.263  18.148  0.00  0.00    +0.000 A 
ATOM      8  C   UNL     1       2.360   5.873  18.182  0.00  0.00    +0.000 A 
ATOM      9  C   UNL     1       1.935   5.206  19.344  0.00  0.00    +0.000 A 
ATOM     10  C   UNL     1       1.580   5.980  20.466  0.00  0.00    +0.000 A 
BRANCH   5  12
ATOM     11  C   UNL     1       0.854   9.474  21.141  0.00  0.00    +0.000 C 
ATOM     12  O   UNL     1       1.423   8.216  21.483  0.00  0.00    +0.000 OA
ENDBRANCH   5  12
ENDBRANCH   3   9
ENDBRANCH   1   3
BRANCH   1  13
ATOM     13  C   UNL     1       3.798   2.335  20.108  0.00  0.00    +0.000 C 
BRANCH  13  14
ATOM     14  C   UNL     1       4.692   3.082  19.172  0.00  0.00    +0.000 A 
ATOM     15  N   UNL     1       5.601   3.987  19.466  0.00  0.00    +0.000 NA
ATOM     16  C   UNL     1       5.848   4.559  18.242  0.00  0.00    +0.000 A 
ATOM     17  N   UNL     1       5.226   3.960  17.216  0.00  0.00    +0.000 NA
ATOM     18  O   UNL     1       4.443   2.979  17.837  0.00  0.00    +0.000 OA
BRANCH  16  19
ATOM     19  C   UNL     1       6.669   5.800  18.103  0.00  0.00    +0.000 A 
ATOM     20  C   UNL     1       6.418   6.807  17.195  0.00  0.00    +0.000 A 
ATOM     21  C   UNL     1       7.347   7.882  17.317  0.00  0.00    +0.000 A 
ATOM     22  C   UNL     1       8.270   7.658  18.315  0.00  0.00    +0.000 A 
ATOM     23  S   UNL     1       8.008   6.162  19.101  0.00  0.00    +0.000 S 
ENDBRANCH  16  19
ENDBRANCH  13  14
ENDBRANCH   1  13
TORSDOF 6
ENDMDL
MODEL 4
REMARK VINA RESULT:      -7.0      4.421      5.836
REMARK  Name = 
REMARK  9 active torsions:
REMARK  status: ('A' for Active; 'I' for Inactive)
REMARK    1  A    between atoms: C_1  and  O_2
REMARK    2  A    between atoms: O_2  and  C_3
REMARK    3  A    between atoms: C_7  and  C_8
REMARK    4  A    between atoms: C_8  and  C_9
REMARK    5  A    between atoms: C_8  and  N_10
REMARK    6  A    between atoms: N_10  and  C_11
REMARK    7  A    between atoms: N_10  and  C_12
REMARK    8  A    between atoms: C_12  and  C_13
REMARK    9  A    between atoms: C_15  and  C_16
REMARK                            x       y       z     vdW  Elec       q    Type
REMARK                         _______ _______ _______ _____ _____    ______ ____
ROOT
ATOM      1  N   UNL     1       2.788   4.996  18.736  0.00  0.00    +0.000 NA
ATOM      2  C   UNL     1       1.603   4.158  18.528  0.00  0.00    +0.000 C 
ENDROOT
BRANCH   1   3
ATOM      3  C   UNL     1       4.014   4.220  19.040  0.00  0.00    +0.000 C 
ATOM      4  C   UNL     1       3.793   2.753  19.457  0.00  0.00    +0.000 C 
BRANCH   3   9
ATOM      5  C   UNL     1       5.591   4.328  15.545  0.00  0.00    +0.000 A 
ATOM      6  C   UNL     1       6.924   4.615  15.841  0.00  0.00    +0.000 A 
ATOM      7  C   UNL     1       7.344   4.727  17.164  0.00  0.00    +0.000 A 
ATOM      8  C   UNL     1       6.418   4.591  18.197  0.00  0.00    +0.000 A 
ATOM      9  C   UNL     1       5.063   4.334  17.927  0.00  0.00    +0.000 A 
ATOM     10  C   UNL     1       4.667   4.181  16.583  0.00  0.00    +0.000 A 
BRANCH   5  12
ATOM     11  C   UNL     1       6.365   3.801  13.369  0.00  0.00    +0.000 C 
ATOM     12  O   UNL     1       5.307   4.251  14.208  0.00  0.00    +0.000 OA
ENDBRANCH   5  12
ENDBRANCH   3   9
ENDBRANCH   1   3
BRANCH   1  13
ATOM     13  C   UNL     1       2.537   6.055  19.750  0.00  0.00    +0.000 C 
BRANCH  13  14
ATOM     14  C   UNL     1       2.345   7.410  19.151  0.00  0.00    +0.000 A 
ATOM     15  N   UNL     1       1.690   8.435  19.655  0.00  0.00    +0.000 NA
ATOM     16  C   UNL     1       1.551   9.257  18.563  0.00  0.00    +0.000 A 
ATOM     17  N   UNL     1       2.195   8.832  17.466  0.00  0.00    +0.000 NA
ATOM     18  O   UNL     1       2.717   7.592  17.853  0.00  0.00    +0.000 OA
BRANCH  16  19
ATOM     19  C   UNL     1       0.675  10.466  18.592  0.00  0.00    +0.000 A 
ATOM     20  C   UNL     1       1.128  11.757  18.761  0.00  0.00    +0.000 A 
ATOM     21  C   UNL     1       0.067  12.709  18.710  0.00  0.00    +0.000 A 
ATOM     22  C   UNL     1      -1.155  12.111  18.501  0.00  0.00    +0.000 A 
ATOM     23  S   UNL     1      -1.018  10.411  18.360  0.00  0.00    +0.000 S 
ENDBRANCH  16  19
ENDBRANCH  13  14
ENDBRANCH   1  13
TORSDOF 6
ENDMDL
MODEL 5
REMARK VINA RESULT:      -7.0      4.819      6.006
REMARK  Name = 
REMARK  9 active torsions:
REMARK  status: ('A' for Active; 'I' for Inactive)
REMARK    1  A    between atoms: C_1  and  O_2
REMARK    2  A    between atoms: O_2  and  C_3
REMARK    3  A    between atoms: C_7  and  C_8
REMARK    4  A    between atoms: C_8  and  C_9
REMARK    5  A    between atoms: C_8  and  N_10
REMARK    6  A    between atoms: N_10  and  C_11
REMARK    7  A    between atoms: N_10  and  C_12
REMARK    8  A    between atoms: C_12  and  C_13
REMARK    9  A    between atoms: C_15  and  C_16
REMARK                            x       y       z     vdW  Elec       q    Type
REMARK                         _______ _______ _______ _____ _____    ______ ____
ROOT
ATOM      1  N   UNL     1       2.401   5.108  19.187  0.00  0.00    +0.000 NA
ATOM      2  C   UNL     1       1.501   4.034  18.753  0.00  0.00    +0.000 C 
ENDROOT
BRANCH   1   3
ATOM      3  C   UNL     1       3.836   4.740  19.117  0.00  0.00    +0.000 C 
ATOM      4  C   UNL     1       4.178   3.294  19.528  0.00  0.00    +0.000 C 
BRANCH   3   9
ATOM      5  C   UNL     1       5.578   4.376  15.719  0.00  0.00    +0.000 A 
ATOM      6  C   UNL     1       5.547   5.685  15.240  0.00  0.00    +0.000 A 
ATOM      7  C   UNL     1       5.014   6.709  16.019  0.00  0.00    +0.000 A 
ATOM      8  C   UNL     1       4.471   6.415  17.269  0.00  0.00    +0.000 A 
ATOM      9  C   UNL     1       4.461   5.100  17.764  0.00  0.00    +0.000 A 
ATOM     10  C   UNL     1       5.045   4.087  16.978  0.00  0.00    +0.000 A 
BRANCH   5  12
ATOM     11  C   UNL     1       6.267   3.891  13.505  0.00  0.00    +0.000 C 
ATOM     12  O   UNL     1       6.122   3.464  14.854  0.00  0.00    +0.000 OA
ENDBRANCH   5  12
ENDBRANCH   3   9
ENDBRANCH   1   3
BRANCH   1  13
ATOM     13  C   UNL     1       2.026   5.625  20.529  0.00  0.00    +0.000 C 
BRANCH  13  14
ATOM     14  C   UNL     1       1.736   7.091  20.536  0.00  0.00    +0.000 A 
ATOM     15  N   UNL     1       1.122   7.794  21.465  0.00  0.00    +0.000 NA
ATOM     16  C   UNL     1       0.838   8.964  20.805  0.00  0.00    +0.000 A 
ATOM     17  N   UNL     1       1.359   9.043  19.571  0.00  0.00    +0.000 NA
ATOM     18  O   UNL     1       1.949   7.788  19.384  0.00  0.00    +0.000 OA
BRANCH  16  19
ATOM     19  C   UNL     1      -0.055  10.006  21.395  0.00  0.00    +0.000 A 
ATOM     20  C   UNL     1      -0.434  10.053  22.720  0.00  0.00    +0.000 A 
ATOM     21  C   UNL     1      -1.260  11.180  23.002  0.00  0.00    +0.000 A 
ATOM     22  C   UNL     1      -1.479  11.953  21.884  0.00  0.00    +0.000 A 
ATOM     23  S   UNL     1      -0.684  11.323  20.507  0.00  0.00    +0.000 S 
ENDBRANCH  16  19
ENDBRANCH  13  14
ENDBRANCH   1  13
TORSDOF 6
ENDMDL
MODEL 6
REMARK VINA RESULT:      -7.0      4.504      6.171
REMARK  Name = 
REMARK  9 active torsions:
REMARK  status: ('A' for Active; 'I' for Inactive)
REMARK    1  A    between atoms: C_1  and  O_2
REMARK    2  A    between atoms: O_2  and  C_3
REMARK    3  A    between atoms: C_7  and  C_8
REMARK    4  A    between atoms: C_8  and  C_9
REMARK    5  A    between atoms: C_8  and  N_10
REMARK    6  A    between atoms: N_10  and  C_11
REMARK    7  A    between atoms: N_10  and  C_12
REMARK    8  A    between atoms: C_12  and  C_13
REMARK    9  A    between atoms: C_15  and  C_16
REMARK                            x       y       z     vdW  Elec       q    Type
REMARK                         _______ _______ _______ _____ _____    ______ ____
ROOT
ATOM      1  N   UNL     1       2.639   4.705  19.007  0.00  0.00    +0.000 NA
ATOM      2  C   UNL     1       1.566   3.706  19.057  0.00  0.00    +0.000 C 
ENDROOT
BRANCH   1   3
ATOM      3  C   UNL     1       3.998   4.111  18.990  0.00  0.00    +0.000 C 
ATOM      4  C   UNL     1       4.067   2.588  19.213  0.00  0.00    +0.000 C 
BRANCH   3   9
ATOM      5  C   UNL     1       6.301   6.130  16.681  0.00  0.00    +0.000 A 
ATOM      6  C   UNL     1       6.354   5.317  15.548  0.00  0.00    +0.000 A 
ATOM      7  C   UNL     1       5.613   4.140  15.490  0.00  0.00    +0.000 A 
ATOM      8  C   UNL     1       4.846   3.750  16.587  0.00  0.00    +0.000 A 
ATOM      9  C   UNL     1       4.800   4.534  17.753  0.00  0.00    +0.000 A 
ATOM     10  C   UNL     1       5.521   5.743  17.774  0.00  0.00    +0.000 A 
BRANCH   5  12
ATOM     11  C   UNL     1       7.791   7.593  17.797  0.00  0.00    +0.000 C 
ATOM     12  O   UNL     1       7.079   7.254  16.613  0.00  0.00    +0.000 OA
ENDBRANCH   5  12
ENDBRANCH   3   9
ENDBRANCH   1   3
BRANCH   1  13
ATOM     13  C   UNL     1       2.491   5.720  20.084  0.00  0.00    +0.000 C 
BRANCH  13  14
ATOM     14  C   UNL     1       2.258   7.101  19.563  0.00  0.00    +0.000 A 
ATOM     15  N   UNL     1       1.666   8.108  20.170  0.00  0.00    +0.000 NA
ATOM     16  C   UNL     1       1.432   8.977  19.132  0.00  0.00    +0.000 A 
ATOM     17  N   UNL     1       1.964   8.595  17.961  0.00  0.00    +0.000 NA
ATOM     18  O   UNL     1       2.506   7.335  18.244  0.00  0.00    +0.000 OA
BRANCH  16  19
ATOM     19  C   UNL     1       0.577  10.190  19.296  0.00  0.00    +0.000 A 
ATOM     20  C   UNL     1      -0.465  10.533  18.460  0.00  0.00    +0.000 A 
ATOM     21  C   UNL     1      -1.124  11.724  18.885  0.00  0.00    +0.000 A 
ATOM     22  C   UNL     1      -0.563  12.245  20.030  0.00  0.00    +0.000 A 
ATOM     23  S   UNL     1       0.744  11.295  20.590  0.00  0.00    +0.000 S 
ENDBRANCH  16  19
ENDBRANCH  13  14
ENDBRANCH   1  13
TORSDOF 6
ENDMDL
MODEL 7
REMARK VINA RESULT:      -6.9      4.376      5.490
REMARK  Name = 
REMARK  9 active torsions:
REMARK  status: ('A' for Active; 'I' for Inactive)
REMARK    1  A    between atoms: C_1  and  O_2
REMARK    2  A    between atoms: O_2  and  C_3
REMARK    3  A    between atoms: C_7  and  C_8
REMARK    4  A    between atoms: C_8  and  C_9
REMARK    5  A    between atoms: C_8  and  N_10
REMARK    6  A    between atoms: N_10  and  C_11
REMARK    7  A    between atoms: N_10  and  C_12
REMARK    8  A    between atoms: C_12  and  C_13
REMARK    9  A    between atoms: C_15  and  C_16
REMARK                            x       y       z     vdW  Elec       q    Type
REMARK                         _______ _______ _______ _____ _____    ______ ____
ROOT
ATOM      1  N   UNL     1       2.801   4.641  18.584  0.00  0.00    +0.000 NA
ATOM      2  C   UNL     1       1.489   4.013  18.396  0.00  0.00    +0.000 C 
ENDROOT
BRANCH   1   3
ATOM      3  C   UNL     1       3.922   3.670  18.596  0.00  0.00    +0.000 C 
ATOM      4  C   UNL     1       3.532   2.191  18.407  0.00  0.00    +0.000 C 
BRANCH   3   9
ATOM      5  C   UNL     1       5.798   4.538  15.364  0.00  0.00    +0.000 A 
ATOM      6  C   UNL     1       7.055   4.897  15.850  0.00  0.00    +0.000 A 
ATOM      7  C   UNL     1       7.333   4.817  17.212  0.00  0.00    +0.000 A 
ATOM      8  C   UNL     1       6.336   4.415  18.100  0.00  0.00    +0.000 A 
ATOM      9  C   UNL     1       5.051   4.077  17.640  0.00  0.00    +0.000 A 
ATOM     10  C   UNL     1       4.803   4.123  16.255  0.00  0.00    +0.000 A 
BRANCH   5  12
ATOM     11  C   UNL     1       6.169   3.603  13.220  0.00  0.00    +0.000 C 
ATOM     12  O   UNL     1       5.651   4.668  14.009  0.00  0.00    +0.000 OA
ENDBRANCH   5  12
ENDBRANCH   3   9
ENDBRANCH   1   3
BRANCH   1  13
ATOM     13  C   UNL     1       2.819   5.522  19.782  0.00  0.00    +0.000 C 
BRANCH  13  14
ATOM     14  C   UNL     1       2.477   6.943  19.473  0.00  0.00    +0.000 A 
ATOM     15  N   UNL     1       1.778   7.788  20.201  0.00  0.00    +0.000 NA
ATOM     16  C   UNL     1       1.498   8.786  19.301  0.00  0.00    +0.000 A 
ATOM     17  N   UNL     1       2.098   8.641  18.110  0.00  0.00    +0.000 NA
ATOM     18  O   UNL     1       2.743   7.403  18.218  0.00  0.00    +0.000 OA
BRANCH  16  19
ATOM     19  C   UNL     1       0.531   9.882  19.614  0.00  0.00    +0.000 A 
ATOM     20  C   UNL     1      -0.468  10.310  18.765  0.00  0.00    +0.000 A 
ATOM     21  C   UNL     1      -1.257  11.345  19.347  0.00  0.00    +0.000 A 
ATOM     22  C   UNL     1      -0.835  11.667  20.617  0.00  0.00    +0.000 A 
ATOM     23  S   UNL     1       0.502  10.717  21.104  0.00  0.00    +0.000 S 
ENDBRANCH  16  19
ENDBRANCH  13  14
ENDBRANCH   1  13
TORSDOF 6
ENDMDL
MODEL 8
REMARK VINA RESULT:      -6.9      3.419      7.232
REMARK  Name = 
REMARK  9 active torsions:
REMARK  status: ('A' for Active; 'I' for Inactive)
REMARK    1  A    between atoms: C_1  and  O_2
REMARK    2  A    between atoms: O_2  and  C_3
REMARK    3  A    between atoms: C_7  and  C_8
REMARK    4  A    between atoms: C_8  and  C_9
REMARK    5  A    between atoms: C_8  and  N_10
REMARK    6  A    between atoms: N_10  and  C_11
REMARK    7  A    between atoms: N_10  and  C_12
REMARK    8  A    between atoms: C_12  and  C_13
REMARK    9  A    between atoms: C_15  and  C_16
REMARK                            x       y       z     vdW  Elec       q    Type
REMARK                         _______ _______ _______ _____ _____    ______ ____
ROOT
ATOM      1  N   UNL     1       3.863   3.841  19.330  0.00  0.00    +0.000 NA
ATOM      2  C   UNL     1       3.777   2.377  19.282  0.00  0.00    +0.000 C 
ENDROOT
BRANCH   1   3
ATOM      3  C   UNL     1       2.833   4.519  18.507  0.00  0.00    +0.000 C 
ATOM      4  C   UNL     1       1.600   3.670  18.141  0.00  0.00    +0.000 C 
BRANCH   3   9
ATOM      5  C   UNL     1       2.067   8.268  18.775  0.00  0.00    +0.000 A 
ATOM      6  C   UNL     1       1.607   8.373  20.087  0.00  0.00    +0.000 A 
ATOM      7  C   UNL     1       1.584   7.256  20.918  0.00  0.00    +0.000 A 
ATOM      8  C   UNL     1       1.986   6.017  20.422  0.00  0.00    +0.000 A 
ATOM      9  C   UNL     1       2.424   5.876  19.093  0.00  0.00    +0.000 A 
ATOM     10  C   UNL     1       2.480   7.027  18.283  0.00  0.00    +0.000 A 
BRANCH   5  12
ATOM     11  C   UNL     1       0.823  10.180  18.138  0.00  0.00    +0.000 C 
ATOM     12  O   UNL     1       2.033   9.437  18.063  0.00  0.00    +0.000 OA
ENDBRANCH   5  12
ENDBRANCH   3   9
ENDBRANCH   1   3
BRANCH   1  13
ATOM     13  C   UNL     1       5.233   4.318  19.005  0.00  0.00    +0.000 C 
BRANCH  13  14
ATOM     14  C   UNL     1       5.382   4.763  17.587  0.00  0.00    +0.000 A 
ATOM     15  N   UNL     1       5.359   4.025  16.497  0.00  0.00    +0.000 NA
ATOM     16  C   UNL     1       5.876   4.881  15.555  0.00  0.00    +0.000 A 
ATOM     17  N   UNL     1       6.090   6.128  16.000  0.00  0.00    +0.000 NA
ATOM     18  O   UNL     1       5.772   6.049  17.361  0.00  0.00    +0.000 OA
BRANCH  16  19
ATOM     19  C   UNL     1       6.247   4.414  14.185  0.00  0.00    +0.000 A 
ATOM     20  C   UNL     1       5.548   3.471  13.463  0.00  0.00    +0.000 A 
ATOM     21  C   UNL     1       6.116   3.254  12.173  0.00  0.00    +0.000 A 
ATOM     22  C   UNL     1       7.225   4.040  11.957  0.00  0.00    +0.000 A 
ATOM     23  S   UNL     1       7.571   5.039  13.302  0.00  0.00    +0.000 S 
ENDBRANCH  16  19
ENDBRANCH  13  14
ENDBRANCH   1  13
TORSDOF 6
ENDMDL
MODEL 9
REMARK VINA RESULT:      -6.8      4.674      6.144
REMARK  Name = 
REMARK  9 active torsions:
REMARK  status: ('A' for Active; 'I' for Inactive)
REMARK    1  A    between atoms: C_1  and  O_2
REMARK    2  A    between atoms: O_2  and  C_3
REMARK    3  A    between atoms: C_7  and  C_8
REMARK    4  A    between atoms: C_8  and  C_9
REMARK    5  A    between atoms: C_8  and  N_10
REMARK    6  A    between atoms: N_10  and  C_11
REMARK    7  A    between atoms: N_10  and  C_12
REMARK    8  A    between atoms: C_12  and  C_13
REMARK    9  A    between atoms: C_15  and  C_16
REMARK                            x       y       z     vdW  Elec       q    Type
REMARK                         _______ _______ _______ _____ _____    ______ ____
ROOT
ATOM      1  N   UNL     1       2.764   4.967  19.004  0.00  0.00    +0.000 NA
ATOM      2  C   UNL     1       1.667   4.059  18.650  0.00  0.00    +0.000 C 
ENDROOT
BRANCH   1   3
ATOM      3  C   UNL     1       4.033   4.266  19.316  0.00  0.00    +0.000 C 
ATOM      4  C   UNL     1       4.015   2.735  19.135  0.00  0.00    +0.000 C 
BRANCH   3   9
ATOM      5  C   UNL     1       6.292   5.622  16.528  0.00  0.00    +0.000 A 
ATOM      6  C   UNL     1       7.370   6.128  17.255  0.00  0.00    +0.000 A 
ATOM      7  C   UNL     1       7.411   5.996  18.640  0.00  0.00    +0.000 A 
ATOM      8  C   UNL     1       6.348   5.390  19.309  0.00  0.00    +0.000 A 
ATOM      9  C   UNL     1       5.235   4.900  18.605  0.00  0.00    +0.000 A 
ATOM     10  C   UNL     1       5.234   5.004  17.201  0.00  0.00    +0.000 A 
BRANCH   5  12
ATOM     11  C   UNL     1       6.599   4.660  14.386  0.00  0.00    +0.000 C 
ATOM     12  O   UNL     1       6.371   5.821  15.176  0.00  0.00    +0.000 OA
ENDBRANCH   5  12
ENDBRANCH   3   9
ENDBRANCH   1   3
BRANCH   1  13
ATOM     13  C   UNL     1       2.368   5.904  20.089  0.00  0.00    +0.000 C 
BRANCH  13  14
ATOM     14  C   UNL     1       2.122   7.296  19.604  0.00  0.00    +0.000 A 
ATOM     15  N   UNL     1       1.586   8.302  20.262  0.00  0.00    +0.000 NA
ATOM     16  C   UNL     1       1.298   9.189  19.253  0.00  0.00    +0.000 A 
ATOM     17  N   UNL     1       1.746   8.817  18.045  0.00  0.00    +0.000 NA
ATOM     18  O   UNL     1       2.287   7.546  18.275  0.00  0.00    +0.000 OA
BRANCH  16  19
ATOM     19  C   UNL     1       0.473  10.412  19.490  0.00  0.00    +0.000 A 
ATOM     20  C   UNL     1      -0.642  10.758  18.757  0.00  0.00    +0.000 A 
ATOM     21  C   UNL     1      -1.246  11.959  19.234  0.00  0.00    +0.000 A 
ATOM     22  C   UNL     1      -0.573  12.482  20.314  0.00  0.00    +0.000 A 
ATOM     23  S   UNL     1       0.775  11.524  20.752  0.00  0.00    +0.000 S 
ENDBRANCH  16  19
ENDBRANCH  13  14
ENDBRANCH   1  13
TORSDOF 6
ENDMDL
