MODEL 1
REMARK VINA RESULT:      -7.7      0.000      0.000
REMARK  Name = 
REMARK  12 active torsions:
REMARK  status: ('A' for Active; 'I' for Inactive)
REMARK    1  A    between atoms: C_1  and  C_2
REMARK    2  A    between atoms: C_2  and  C_3
REMARK    3  A    between atoms: C_3  and  C_4
REMARK    4  A    between atoms: C_4  and  C_5
REMARK    5  A    between atoms: C_5  and  C_6
REMARK    6  A    between atoms: N_8  and  C_9
REMARK    7  A    between atoms: C_12  and  N_13
REMARK    8  A    between atoms: C_19  and  S_20
REMARK    9  A    between atoms: S_20  and  N_23
REMARK   10  A    between atoms: N_23  and  C_24
REMARK   11  A    between atoms: C_27  and  O_28
REMARK   12  A    between atoms: O_28  and  C_29
REMARK                            x       y       z     vdW  Elec       q    Type
REMARK                         _______ _______ _______ _____ _____    ______ ____
ROOT
ATOM      1  C   UNL     1       6.540   6.790  17.376  0.00  0.00    +0.000 A 
ATOM      2  C   UNL     1       7.068   5.513  17.303  0.00  0.00    +0.000 A 
ATOM      3  C   UNL     1       6.282   4.402  17.620  0.00  0.00    +0.000 A 
ATOM      4  C   UNL     1       4.929   4.501  18.030  0.00  0.00    +0.000 A 
ATOM      5  C   UNL     1       4.397   5.819  18.047  0.00  0.00    +0.000 A 
ATOM      6  C   UNL     1       5.208   6.939  17.758  0.00  0.00    +0.000 A 
ENDROOT
BRANCH   4   7
ATOM      7  N   UNL     1       4.298   3.321  18.374  0.00  0.00    +0.000 N 
ATOM      8  C   UNL     1       3.361   2.558  17.549  0.00  0.00    +0.000 C 
ATOM      9  C   UNL     1       1.976   2.470  18.209  0.00  0.00    +0.000 C 
ATOM     10  O   UNL     1       2.085   1.893  19.520  0.00  0.00    +0.000 OA
ATOM     11  C   UNL     1       2.951   2.700  20.340  0.00  0.00    +0.000 C 
ATOM     12  C   UNL     1       4.369   2.790  19.750  0.00  0.00    +0.000 C 
ENDBRANCH   4   7
BRANCH   1  15
ATOM     13  C   UNL     1       8.263   8.483  17.950  0.00  0.00    +0.000 C 
ATOM     14  O   UNL     1       8.579   8.027  19.031  0.00  0.00    +0.000 OA
ATOM     15  N   UNL     1       7.314   7.938  17.075  0.00  0.00    +0.000 N 
ATOM     16  H   UNL     1       7.285   8.288  16.121  0.00  0.00    +0.000 HD
BRANCH  13  17
ATOM     17  C   UNL     1       8.912   9.747  17.446  0.00  0.00    +0.000 C 
BRANCH  17  18
ATOM     18  C   UNL     1       9.255  10.701  18.579  0.00  0.00    +0.000 C 
BRANCH  18  19
ATOM     19  C   UNL     1      10.518  11.525  18.311  0.00  0.00    +0.000 C 
BRANCH  19  21
ATOM     20  C   UNL     1      11.402  13.315  16.780  0.00  0.00    +0.000 C 
ATOM     21  C   UNL     1      10.182  12.779  17.507  0.00  0.00    +0.000 C 
ENDBRANCH  19  21
ENDBRANCH  18  19
ENDBRANCH  17  18
ENDBRANCH  13  17
ENDBRANCH   1  15
BRANCH   5  22
ATOM     22  S   UNL     1       2.727   6.157  18.595  0.00  0.00    +0.000 S 
ATOM     23  O   UNL     1       1.798   5.531  17.662  0.00  0.00    +0.000 OA
ATOM     24  O   UNL     1       2.696   5.906  19.999  0.00  0.00    +0.000 OA
BRANCH  22  25
ATOM     25  N   UNL     1       2.441   7.813  18.324  0.00  0.00    +0.000 N 
ATOM     26  H   UNL     1       2.232   8.022  17.352  0.00  0.00    +0.000 HD
BRANCH  25  27
ATOM     27  C   UNL     1       1.604   8.427  19.307  0.00  0.00    +0.000 A 
ATOM     28  C   UNL     1       0.838   9.490  18.853  0.00  0.00    +0.000 A 
ATOM     29  C   UNL     1       0.010  10.173  19.732  0.00  0.00    +0.000 A 
ATOM     30  C   UNL     1      -0.083   9.786  21.071  0.00  0.00    +0.000 A 
ATOM     31  C   UNL     1       0.708   8.729  21.535  0.00  0.00    +0.000 A 
ATOM     32  C   UNL     1       1.568   8.053  20.653  0.00  0.00    +0.000 A 
BRANCH  30  33
ATOM     33  O   UNL     1      -0.949  10.521  21.831  0.00  0.00    +0.000 OA
ATOM     34  C   UNL     1      -0.836  10.338  23.240  0.00  0.00    +0.000 C 
ENDBRANCH  30  33
ENDBRANCH  25  27
ENDBRANCH  22  25
ENDBRANCH   5  22
TORSDOF 10
ENDMDL
MODEL 2
REMARK VINA RESULT:      -7.4      1.253      1.744
REMARK  Name = 
REMARK  12 active torsions:
REMARK  status: ('A' for Active; 'I' for Inactive)
REMARK    1  A    between atoms: C_1  and  C_2
REMARK    2  A    between atoms: C_2  and  C_3
REMARK    3  A    between atoms: C_3  and  C_4
REMARK    4  A    between atoms: C_4  and  C_5
REMARK    5  A    between atoms: C_5  and  C_6
REMARK    6  A    between atoms: N_8  and  C_9
REMARK    7  A    between atoms: C_12  and  N_13
REMARK    8  A    between atoms: C_19  and  S_20
REMARK    9  A    between atoms: S_20  and  N_23
REMARK   10  A    between atoms: N_23  and  C_24
REMARK   11  A    between atoms: C_27  and  O_28
REMARK   12  A    between atoms: O_28  and  C_29
REMARK                            x       y       z     vdW  Elec       q    Type
REMARK                         _______ _______ _______ _____ _____    ______ ____
ROOT
ATOM      1  C   UNL     1       5.922   6.648  17.294  0.00  0.00    +0.000 A 
ATOM      2  C   UNL     1       6.149   5.453  16.636  0.00  0.00    +0.000 A 
ATOM      3  C   UNL     1       5.302   4.362  16.836  0.00  0.00    +0.000 A 
ATOM      4  C   UNL     1       4.183   4.397  17.706  0.00  0.00    +0.000 A 
ATOM      5  C   UNL     1       3.942   5.651  18.330  0.00  0.00    +0.000 A 
ATOM      6  C   UNL     1       4.823   6.740  18.149  0.00  0.00    +0.000 A 
ENDROOT
BRANCH   4   7
ATOM      7  N   UNL     1       3.475   3.220  17.854  0.00  0.00    +0.000 N 
ATOM      8  C   UNL     1       2.145   2.927  17.319  0.00  0.00    +0.000 C 
ATOM      9  C   UNL     1       1.136   2.651  18.445  0.00  0.00    +0.000 C 
ATOM     10  O   UNL     1       1.598   1.574  19.275  0.00  0.00    +0.000 OA
ATOM     11  C   UNL     1       2.872   1.914  19.853  0.00  0.00    +0.000 C 
ATOM     12  C   UNL     1       3.939   2.160  18.771  0.00  0.00    +0.000 C 
ENDBRANCH   4   7
BRANCH   1  15
ATOM     13  C   UNL     1       7.901   8.012  17.913  0.00  0.00    +0.000 C 
ATOM     14  O   UNL     1       8.326   7.285  18.790  0.00  0.00    +0.000 OA
ATOM     15  N   UNL     1       6.770   7.771  17.124  0.00  0.00    +0.000 N 
ATOM     16  H   UNL     1       6.634   8.341  16.294  0.00  0.00    +0.000 HD
BRANCH  13  17
ATOM     17  C   UNL     1       8.610   9.305  17.597  0.00  0.00    +0.000 C 
BRANCH  17  18
ATOM     18  C   UNL     1       9.058  10.031  18.855  0.00  0.00    +0.000 C 
BRANCH  18  19
ATOM     19  C   UNL     1       9.404  11.503  18.611  0.00  0.00    +0.000 C 
BRANCH  19  21
ATOM     20  C   UNL     1      11.916  11.652  18.601  0.00  0.00    +0.000 C 
ATOM     21  C   UNL     1      10.649  11.901  19.400  0.00  0.00    +0.000 C 
ENDBRANCH  19  21
ENDBRANCH  18  19
ENDBRANCH  17  18
ENDBRANCH  13  17
ENDBRANCH   1  15
BRANCH   5  22
ATOM     22  S   UNL     1       2.615   5.881  19.509  0.00  0.00    +0.000 S 
ATOM     23  O   UNL     1       1.363   6.014  18.776  0.00  0.00    +0.000 OA
ATOM     24  O   UNL     1       2.807   4.911  20.538  0.00  0.00    +0.000 OA
BRANCH  22  25
ATOM     25  N   UNL     1       2.805   7.435  20.175  0.00  0.00    +0.000 N 
ATOM     26  H   UNL     1       3.762   7.775  20.113  0.00  0.00    +0.000 HD
BRANCH  25  27
ATOM     27  C   UNL     1       1.773   8.354  19.812  0.00  0.00    +0.000 A 
ATOM     28  C   UNL     1       0.866   8.655  20.817  0.00  0.00    +0.000 A 
ATOM     29  C   UNL     1      -0.191   9.517  20.561  0.00  0.00    +0.000 A 
ATOM     30  C   UNL     1      -0.341  10.110  19.306  0.00  0.00    +0.000 A 
ATOM     31  C   UNL     1       0.560   9.788  18.285  0.00  0.00    +0.000 A 
ATOM     32  C   UNL     1       1.615   8.893  18.532  0.00  0.00    +0.000 A 
BRANCH  30  33
ATOM     33  O   UNL     1      -1.406  10.957  19.185  0.00  0.00    +0.000 OA
ATOM     34  C   UNL     1      -1.722  11.360  17.854  0.00  0.00    +0.000 C 
ENDBRANCH  30  33
ENDBRANCH  25  27
ENDBRANCH  22  25
ENDBRANCH   5  22
TORSDOF 10
ENDMDL
MODEL 3
REMARK VINA RESULT:      -7.3      1.091      1.493
REMARK  Name = 
REMARK  12 active torsions:
REMARK  status: ('A' for Active; 'I' for Inactive)
REMARK    1  A    between atoms: C_1  and  C_2
REMARK    2  A    between atoms: C_2  and  C_3
REMARK    3  A    between atoms: C_3  and  C_4
REMARK    4  A    between atoms: C_4  and  C_5
REMARK    5  A    between atoms: C_5  and  C_6
REMARK    6  A    between atoms: N_8  and  C_9
REMARK    7  A    between atoms: C_12  and  N_13
REMARK    8  A    between atoms: C_19  and  S_20
REMARK    9  A    between atoms: S_20  and  N_23
REMARK   10  A    between atoms: N_23  and  C_24
REMARK   11  A    between atoms: C_27  and  O_28
REMARK   12  A    between atoms: O_28  and  C_29
REMARK                            x       y       z     vdW  Elec       q    Type
REMARK                         _______ _______ _______ _____ _____    ______ ____
ROOT
ATOM      1  C   UNL     1       6.047   6.669  17.259  0.00  0.00    +0.000 A 
ATOM      2  C   UNL     1       6.325   5.432  16.704  0.00  0.00    +0.000 A 
ATOM      3  C   UNL     1       5.478   4.346  16.936  0.00  0.00    +0.000 A 
ATOM      4  C   UNL     1       4.311   4.429  17.736  0.00  0.00    +0.000 A 
ATOM      5  C   UNL     1       4.022   5.721  18.252  0.00  0.00    +0.000 A 
ATOM      6  C   UNL     1       4.901   6.807  18.040  0.00  0.00    +0.000 A 
ENDROOT
BRANCH   4   7
ATOM      7  N   UNL     1       3.607   3.256  17.931  0.00  0.00    +0.000 N 
ATOM      8  C   UNL     1       2.313   2.905  17.346  0.00  0.00    +0.000 C 
ATOM      9  C   UNL     1       1.245   2.698  18.432  0.00  0.00    +0.000 C 
ATOM     10  O   UNL     1       1.671   1.690  19.363  0.00  0.00    +0.000 OA
ATOM     11  C   UNL     1       2.907   2.089  19.984  0.00  0.00    +0.000 C 
ATOM     12  C   UNL     1       4.030   2.271  18.947  0.00  0.00    +0.000 C 
ENDBRANCH   4   7
BRANCH   1  15
ATOM     13  C   UNL     1       7.987   8.090  17.874  0.00  0.00    +0.000 C 
ATOM     14  O   UNL     1       8.380   7.425  18.811  0.00  0.00    +0.000 OA
ATOM     15  N   UNL     1       6.893   7.788  17.053  0.00  0.00    +0.000 N 
ATOM     16  H   UNL     1       6.788   8.303  16.184  0.00  0.00    +0.000 HD
BRANCH  13  17
ATOM     17  C   UNL     1       8.697   9.369  17.506  0.00  0.00    +0.000 C 
BRANCH  17  18
ATOM     18  C   UNL     1       8.831  10.307  18.696  0.00  0.00    +0.000 C 
BRANCH  18  19
ATOM     19  C   UNL     1      10.255  10.838  18.886  0.00  0.00    +0.000 C 
BRANCH  19  21
ATOM     20  C   UNL     1       9.696  12.945  17.628  0.00  0.00    +0.000 C 
ATOM     21  C   UNL     1      10.643  11.762  17.734  0.00  0.00    +0.000 C 
ENDBRANCH  19  21
ENDBRANCH  18  19
ENDBRANCH  17  18
ENDBRANCH  13  17
ENDBRANCH   1  15
BRANCH   5  22
ATOM     22  S   UNL     1       2.627   6.017  19.333  0.00  0.00    +0.000 S 
ATOM     23  O   UNL     1       1.431   6.171  18.515  0.00  0.00    +0.000 OA
ATOM     24  O   UNL     1       2.720   5.067  20.393  0.00  0.00    +0.000 OA
BRANCH  22  25
ATOM     25  N   UNL     1       2.821   7.581  19.977  0.00  0.00    +0.000 N 
ATOM     26  H   UNL     1       3.716   7.998  19.735  0.00  0.00    +0.000 HD
BRANCH  25  27
ATOM     27  C   UNL     1       1.667   8.413  19.842  0.00  0.00    +0.000 A 
ATOM     28  C   UNL     1       1.548   9.070  18.626  0.00  0.00    +0.000 A 
ATOM     29  C   UNL     1       0.478   9.924  18.401  0.00  0.00    +0.000 A 
ATOM     30  C   UNL     1      -0.502  10.112  19.379  0.00  0.00    +0.000 A 
ATOM     31  C   UNL     1      -0.370   9.468  20.614  0.00  0.00    +0.000 A 
ATOM     32  C   UNL     1       0.728   8.625  20.855  0.00  0.00    +0.000 A 
BRANCH  30  33
ATOM     33  O   UNL     1      -1.518  10.957  19.030  0.00  0.00    +0.000 OA
ATOM     34  C   UNL     1      -1.910  10.912  17.660  0.00  0.00    +0.000 C 
ENDBRANCH  30  33
ENDBRANCH  25  27
ENDBRANCH  22  25
ENDBRANCH   5  22
TORSDOF 10
ENDMDL
MODEL 4
REMARK VINA RESULT:      -7.3      5.319      9.761
REMARK  Name = 
REMARK  12 active torsions:
REMARK  status: ('A' for Active; 'I' for Inactive)
REMARK    1  A    between atoms: C_1  and  C_2
REMARK    2  A    between atoms: C_2  and  C_3
REMARK    3  A    between atoms: C_3  and  C_4
REMARK    4  A    between atoms: C_4  and  C_5
REMARK    5  A    between atoms: C_5  and  C_6
REMARK    6  A    between atoms: N_8  and  C_9
REMARK    7  A    between atoms: C_12  and  N_13
REMARK    8  A    between atoms: C_19  and  S_20
REMARK    9  A    between atoms: S_20  and  N_23
REMARK   10  A    between atoms: N_23  and  C_24
REMARK   11  A    between atoms: C_27  and  O_28
REMARK   12  A    between atoms: O_28  and  C_29
REMARK                            x       y       z     vdW  Elec       q    Type
REMARK                         _______ _______ _______ _____ _____    ______ ____
ROOT
ATOM      1  C   UNL     1       9.261  10.282  19.054  0.00  0.00    +0.000 A 
ATOM      2  C   UNL     1       9.746  10.955  17.947  0.00  0.00    +0.000 A 
ATOM      3  C   UNL     1       9.995  12.328  18.007  0.00  0.00    +0.000 A 
ATOM      4  C   UNL     1       9.773  13.108  19.170  0.00  0.00    +0.000 A 
ATOM      5  C   UNL     1       9.322  12.383  20.307  0.00  0.00    +0.000 A 
ATOM      6  C   UNL     1       9.041  11.001  20.229  0.00  0.00    +0.000 A 
ENDROOT
BRANCH   4   7
ATOM      7  N   UNL     1      10.002  14.465  19.060  0.00  0.00    +0.000 N 
ATOM      8  C   UNL     1       8.991  15.519  18.979  0.00  0.00    +0.000 C 
ATOM      9  C   UNL     1       9.082  16.284  17.650  0.00  0.00    +0.000 C 
ATOM     10  O   UNL     1      10.400  16.831  17.480  0.00  0.00    +0.000 OA
ATOM     11  C   UNL     1      11.374  15.771  17.485  0.00  0.00    +0.000 C 
ATOM     12  C   UNL     1      11.359  14.993  18.813  0.00  0.00    +0.000 C 
ENDBRANCH   4   7
BRANCH   1  15
ATOM     13  C   UNL     1       8.065   8.306  18.145  0.00  0.00    +0.000 C 
ATOM     14  O   UNL     1       7.437   8.885  17.280  0.00  0.00    +0.000 OA
ATOM     15  N   UNL     1       8.985   8.892  19.024  0.00  0.00    +0.000 N 
ATOM     16  H   UNL     1       9.594   8.279  19.558  0.00  0.00    +0.000 HD
BRANCH  13  17
ATOM     17  C   UNL     1       7.883   6.822  18.342  0.00  0.00    +0.000 C 
BRANCH  17  18
ATOM     18  C   UNL     1       7.302   6.151  17.108  0.00  0.00    +0.000 C 
BRANCH  18  19
ATOM     19  C   UNL     1       5.797   5.887  17.217  0.00  0.00    +0.000 C 
BRANCH  19  21
ATOM     20  C   UNL     1       5.851   4.000  15.553  0.00  0.00    +0.000 C 
ATOM     21  C   UNL     1       5.248   5.350  15.897  0.00  0.00    +0.000 C 
ENDBRANCH  19  21
ENDBRANCH  18  19
ENDBRANCH  17  18
ENDBRANCH  13  17
ENDBRANCH   1  15
BRANCH   5  22
ATOM     22  S   UNL     1       8.926  13.196  21.851  0.00  0.00    +0.000 S 
ATOM     23  O   UNL     1      10.009  14.114  22.182  0.00  0.00    +0.000 OA
ATOM     24  O   UNL     1       7.565  13.612  21.759  0.00  0.00    +0.000 OA
BRANCH  22  25
ATOM     25  N   UNL     1       9.063  12.026  23.079  0.00  0.00    +0.000 N 
ATOM     26  H   UNL     1      10.028  11.785  23.288  0.00  0.00    +0.000 HD
BRANCH  25  27
ATOM     27  C   UNL     1       8.201  12.252  24.197  0.00  0.00    +0.000 A 
ATOM     28  C   UNL     1       7.039  11.494  24.213  0.00  0.00    +0.000 A 
ATOM     29  C   UNL     1       6.122  11.656  25.241  0.00  0.00    +0.000 A 
ATOM     30  C   UNL     1       6.366  12.557  26.280  0.00  0.00    +0.000 A 
ATOM     31  C   UNL     1       7.526  13.338  26.251  0.00  0.00    +0.000 A 
ATOM     32  C   UNL     1       8.444  13.198  25.196  0.00  0.00    +0.000 A 
BRANCH  30  33
ATOM     33  O   UNL     1       5.399  12.609  27.245  0.00  0.00    +0.000 OA
ATOM     34  C   UNL     1       4.867  13.904  27.512  0.00  0.00    +0.000 C 
ENDBRANCH  30  33
ENDBRANCH  25  27
ENDBRANCH  22  25
ENDBRANCH   5  22
TORSDOF 10
ENDMDL
MODEL 5
REMARK VINA RESULT:      -7.2      0.587      1.029
REMARK  Name = 
REMARK  12 active torsions:
REMARK  status: ('A' for Active; 'I' for Inactive)
REMARK    1  A    between atoms: C_1  and  C_2
REMARK    2  A    between atoms: C_2  and  C_3
REMARK    3  A    between atoms: C_3  and  C_4
REMARK    4  A    between atoms: C_4  and  C_5
REMARK    5  A    between atoms: C_5  and  C_6
REMARK    6  A    between atoms: N_8  and  C_9
REMARK    7  A    between atoms: C_12  and  N_13
REMARK    8  A    between atoms: C_19  and  S_20
REMARK    9  A    between atoms: S_20  and  N_23
REMARK   10  A    between atoms: N_23  and  C_24
REMARK   11  A    between atoms: C_27  and  O_28
REMARK   12  A    between atoms: O_28  and  C_29
REMARK                            x       y       z     vdW  Elec       q    Type
REMARK                         _______ _______ _______ _____ _____    ______ ____
ROOT
ATOM      1  C   UNL     1       6.545   6.936  17.432  0.00  0.00    +0.000 A 
ATOM      2  C   UNL     1       7.147   5.692  17.381  0.00  0.00    +0.000 A 
ATOM      3  C   UNL     1       6.415   4.538  17.669  0.00  0.00    +0.000 A 
ATOM      4  C   UNL     1       5.044   4.559  18.029  0.00  0.00    +0.000 A 
ATOM      5  C   UNL     1       4.437   5.845  18.026  0.00  0.00    +0.000 A 
ATOM      6  C   UNL     1       5.193   7.010  17.765  0.00  0.00    +0.000 A 
ENDROOT
BRANCH   4   7
ATOM      7  N   UNL     1       4.468   3.346  18.351  0.00  0.00    +0.000 N 
ATOM      8  C   UNL     1       3.749   2.451  17.445  0.00  0.00    +0.000 C 
ATOM      9  C   UNL     1       2.287   2.267  17.882  0.00  0.00    +0.000 C 
ATOM     10  O   UNL     1       2.228   1.777  19.231  0.00  0.00    +0.000 OA
ATOM     11  C   UNL     1       2.874   2.708  20.118  0.00  0.00    +0.000 C 
ATOM     12  C   UNL     1       4.358   2.902  19.756  0.00  0.00    +0.000 C 
ENDBRANCH   4   7
BRANCH   1  15
ATOM     13  C   UNL     1       8.242   8.654  18.010  0.00  0.00    +0.000 C 
ATOM     14  O   UNL     1       8.634   8.147  19.043  0.00  0.00    +0.000 OA
ATOM     15  N   UNL     1       7.263   8.127  17.158  0.00  0.00    +0.000 N 
ATOM     16  H   UNL     1       7.169   8.530  16.230  0.00  0.00    +0.000 HD
BRANCH  13  17
ATOM     17  C   UNL     1       8.821   9.967  17.548  0.00  0.00    +0.000 C 
BRANCH  17  18
ATOM     18  C   UNL     1       9.335  10.803  18.709  0.00  0.00    +0.000 C 
BRANCH  18  19
ATOM     19  C   UNL     1       9.795  12.202  18.288  0.00  0.00    +0.000 C 
BRANCH  19  21
ATOM     20  C   UNL     1      12.221  12.868  18.328  0.00  0.00    +0.000 C 
ATOM     21  C   UNL     1      11.137  12.131  17.562  0.00  0.00    +0.000 C 
ENDBRANCH  19  21
ENDBRANCH  18  19
ENDBRANCH  17  18
ENDBRANCH  13  17
ENDBRANCH   1  15
BRANCH   5  22
ATOM     22  S   UNL     1       2.732   6.087  18.510  0.00  0.00    +0.000 S 
ATOM     23  O   UNL     1       1.888   5.245  17.672  0.00  0.00    +0.000 OA
ATOM     24  O   UNL     1       2.699   6.036  19.936  0.00  0.00    +0.000 OA
BRANCH  22  25
ATOM     25  N   UNL     1       2.289   7.651  18.006  0.00  0.00    +0.000 N 
ATOM     26  H   UNL     1       1.811   7.654  17.108  0.00  0.00    +0.000 HD
BRANCH  25  27
ATOM     27  C   UNL     1       1.717   8.456  19.039  0.00  0.00    +0.000 A 
ATOM     28  C   UNL     1       1.767   7.910  20.313  0.00  0.00    +0.000 A 
ATOM     29  C   UNL     1       1.216   8.599  21.384  0.00  0.00    +0.000 A 
ATOM     30  C   UNL     1       0.633   9.855  21.200  0.00  0.00    +0.000 A 
ATOM     31  C   UNL     1       0.561  10.395  19.912  0.00  0.00    +0.000 A 
ATOM     32  C   UNL     1       1.093   9.687  18.821  0.00  0.00    +0.000 A 
BRANCH  30  33
ATOM     33  O   UNL     1       0.147  10.442  22.335  0.00  0.00    +0.000 OA
ATOM     34  C   UNL     1      -0.106   9.558  23.424  0.00  0.00    +0.000 C 
ENDBRANCH  30  33
ENDBRANCH  25  27
ENDBRANCH  22  25
ENDBRANCH   5  22
TORSDOF 10
ENDMDL
MODEL 6
REMARK VINA RESULT:      -7.1      4.928      9.674
REMARK  Name = 
REMARK  12 active torsions:
REMARK  status: ('A' for Active; 'I' for Inactive)
REMARK    1  A    between atoms: C_1  and  C_2
REMARK    2  A    between atoms: C_2  and  C_3
REMARK    3  A    between atoms: C_3  and  C_4
REMARK    4  A    between atoms: C_4  and  C_5
REMARK    5  A    between atoms: C_5  and  C_6
REMARK    6  A    between atoms: N_8  and  C_9
REMARK    7  A    between atoms: C_12  and  N_13
REMARK    8  A    between atoms: C_19  and  S_20
REMARK    9  A    between atoms: S_20  and  N_23
REMARK   10  A    between atoms: N_23  and  C_24
REMARK   11  A    between atoms: C_27  and  O_28
REMARK   12  A    between atoms: O_28  and  C_29
REMARK                            x       y       z     vdW  Elec       q    Type
REMARK                         _______ _______ _______ _____ _____    ______ ____
ROOT
ATOM      1  C   UNL     1       0.792   8.907  21.391  0.00  0.00    +0.000 A 
ATOM      2  C   UNL     1      -0.083   9.258  22.404  0.00  0.00    +0.000 A 
ATOM      3  C   UNL     1      -0.633  10.541  22.453  0.00  0.00    +0.000 A 
ATOM      4  C   UNL     1      -0.340  11.547  21.498  0.00  0.00    +0.000 A 
ATOM      5  C   UNL     1       0.520  11.145  20.441  0.00  0.00    +0.000 A 
ATOM      6  C   UNL     1       1.099   9.856  20.417  0.00  0.00    +0.000 A 
ENDROOT
BRANCH   4   7
ATOM      7  N   UNL     1      -0.907  12.789  21.712  0.00  0.00    +0.000 N 
ATOM      8  C   UNL     1      -0.395  13.844  22.585  0.00  0.00    +0.000 C 
ATOM      9  C   UNL     1      -1.386  14.169  23.714  0.00  0.00    +0.000 C 
ATOM     10  O   UNL     1      -2.661  14.538  23.165  0.00  0.00    +0.000 OA
ATOM     11  C   UNL     1      -3.184  13.457  22.371  0.00  0.00    +0.000 C 
ATOM     12  C   UNL     1      -2.252  13.113  21.196  0.00  0.00    +0.000 C 
ENDBRANCH   4   7
BRANCH   1  15
ATOM     13  C   UNL     1       1.981   7.106  20.165  0.00  0.00    +0.000 C 
ATOM     14  O   UNL     1       2.128   7.700  19.115  0.00  0.00    +0.000 OA
ATOM     15  N   UNL     1       1.377   7.618  21.320  0.00  0.00    +0.000 N 
ATOM     16  H   UNL     1       1.497   7.108  22.190  0.00  0.00    +0.000 HD
BRANCH  13  17
ATOM     17  C   UNL     1       2.472   5.687  20.303  0.00  0.00    +0.000 C 
BRANCH  17  18
ATOM     18  C   UNL     1       1.323   4.695  20.398  0.00  0.00    +0.000 C 
BRANCH  18  19
ATOM     19  C   UNL     1       1.739   3.347  20.995  0.00  0.00    +0.000 C 
BRANCH  19  21
ATOM     20  C   UNL     1       0.798   2.419  18.854  0.00  0.00    +0.000 C 
ATOM     21  C   UNL     1       1.895   2.298  19.897  0.00  0.00    +0.000 C 
ENDBRANCH  19  21
ENDBRANCH  18  19
ENDBRANCH  17  18
ENDBRANCH  13  17
ENDBRANCH   1  15
BRANCH   5  22
ATOM     22  S   UNL     1       1.056  12.288  19.172  0.00  0.00    +0.000 S 
ATOM     23  O   UNL     1       2.094  11.644  18.377  0.00  0.00    +0.000 OA
ATOM     24  O   UNL     1      -0.124  12.844  18.594  0.00  0.00    +0.000 OA
BRANCH  22  25
ATOM     25  N   UNL     1       1.923  13.527  19.953  0.00  0.00    +0.000 N 
ATOM     26  H   UNL     1       2.865  13.246  20.211  0.00  0.00    +0.000 HD
BRANCH  25  27
ATOM     27  C   UNL     1       1.782  14.811  19.341  0.00  0.00    +0.000 A 
ATOM     28  C   UNL     1       2.684  15.087  18.324  0.00  0.00    +0.000 A 
ATOM     29  C   UNL     1       2.650  16.316  17.682  0.00  0.00    +0.000 A 
ATOM     30  C   UNL     1       1.697  17.276  18.029  0.00  0.00    +0.000 A 
ATOM     31  C   UNL     1       0.802  17.008  19.071  0.00  0.00    +0.000 A 
ATOM     32  C   UNL     1       0.853  15.775  19.743  0.00  0.00    +0.000 A 
BRANCH  30  33
ATOM     33  O   UNL     1       1.750  18.437  17.309  0.00  0.00    +0.000 OA
ATOM     34  C   UNL     1       0.786  18.556  16.266  0.00  0.00    +0.000 C 
ENDBRANCH  30  33
ENDBRANCH  25  27
ENDBRANCH  22  25
ENDBRANCH   5  22
TORSDOF 10
ENDMDL
MODEL 7
REMARK VINA RESULT:      -7.0      5.398      9.748
REMARK  Name = 
REMARK  12 active torsions:
REMARK  status: ('A' for Active; 'I' for Inactive)
REMARK    1  A    between atoms: C_1  and  C_2
REMARK    2  A    between atoms: C_2  and  C_3
REMARK    3  A    between atoms: C_3  and  C_4
REMARK    4  A    between atoms: C_4  and  C_5
REMARK    5  A    between atoms: C_5  and  C_6
REMARK    6  A    between atoms: N_8  and  C_9
REMARK    7  A    between atoms: C_12  and  N_13
REMARK    8  A    between atoms: C_19  and  S_20
REMARK    9  A    between atoms: S_20  and  N_23
REMARK   10  A    between atoms: N_23  and  C_24
REMARK   11  A    between atoms: C_27  and  O_28
REMARK   12  A    between atoms: O_28  and  C_29
REMARK                            x       y       z     vdW  Elec       q    Type
REMARK                         _______ _______ _______ _____ _____    ______ ____
ROOT
ATOM      1  C   UNL     1       9.213  10.259  19.066  0.00  0.00    +0.000 A 
ATOM      2  C   UNL     1       9.574  10.886  17.887  0.00  0.00    +0.000 A 
ATOM      3  C   UNL     1       9.768  12.269  17.851  0.00  0.00    +0.000 A 
ATOM      4  C   UNL     1       9.608  13.105  18.985  0.00  0.00    +0.000 A 
ATOM      5  C   UNL     1       9.286  12.430  20.193  0.00  0.00    +0.000 A 
ATOM      6  C   UNL     1       9.060  11.035  20.215  0.00  0.00    +0.000 A 
ENDROOT
BRANCH   4   7
ATOM      7  N   UNL     1       9.768  14.462  18.782  0.00  0.00    +0.000 N 
ATOM      8  C   UNL     1      11.019  15.216  18.861  0.00  0.00    +0.000 C 
ATOM      9  C   UNL     1      10.966  16.277  19.972  0.00  0.00    +0.000 C 
ATOM     10  O   UNL     1       9.852  17.160  19.764  0.00  0.00    +0.000 OA
ATOM     11  C   UNL     1       8.624  16.409  19.766  0.00  0.00    +0.000 C 
ATOM     12  C   UNL     1       8.600  15.356  18.644  0.00  0.00    +0.000 C 
ENDBRANCH   4   7
BRANCH   1  15
ATOM     13  C   UNL     1       8.157   8.164  18.255  0.00  0.00    +0.000 C 
ATOM     14  O   UNL     1       7.562   8.643  17.310  0.00  0.00    +0.000 OA
ATOM     15  N   UNL     1       8.996   8.860  19.134  0.00  0.00    +0.000 N 
ATOM     16  H   UNL     1       9.595   8.321  19.753  0.00  0.00    +0.000 HD
BRANCH  13  17
ATOM     17  C   UNL     1       8.024   6.694  18.563  0.00  0.00    +0.000 C 
BRANCH  17  18
ATOM     18  C   UNL     1       6.867   6.057  17.809  0.00  0.00    +0.000 C 
BRANCH  18  19
ATOM     19  C   UNL     1       7.208   4.677  17.237  0.00  0.00    +0.000 C 
BRANCH  19  21
ATOM     20  C   UNL     1       5.611   4.443  15.307  0.00  0.00    +0.000 C 
ATOM     21  C   UNL     1       7.054   4.673  15.718  0.00  0.00    +0.000 C 
ENDBRANCH  19  21
ENDBRANCH  18  19
ENDBRANCH  17  18
ENDBRANCH  13  17
ENDBRANCH   1  15
BRANCH   5  22
ATOM     22  S   UNL     1       8.985  13.314  21.719  0.00  0.00    +0.000 S 
ATOM     23  O   UNL     1      10.135  14.164  21.997  0.00  0.00    +0.000 OA
ATOM     24  O   UNL     1       7.653  13.820  21.644  0.00  0.00    +0.000 OA
BRANCH  22  25
ATOM     25  N   UNL     1       9.071  12.175  22.980  0.00  0.00    +0.000 N 
ATOM     26  H   UNL     1      10.019  12.033  23.318  0.00  0.00    +0.000 HD
BRANCH  25  27
ATOM     27  C   UNL     1       8.052  12.326  23.972  0.00  0.00    +0.000 A 
ATOM     28  C   UNL     1       8.312  13.274  24.950  0.00  0.00    +0.000 A 
ATOM     29  C   UNL     1       7.400  13.480  25.975  0.00  0.00    +0.000 A 
ATOM     30  C   UNL     1       6.203  12.761  26.020  0.00  0.00    +0.000 A 
ATOM     31  C   UNL     1       5.952  11.788  25.047  0.00  0.00    +0.000 A 
ATOM     32  C   UNL     1       6.887  11.556  24.024  0.00  0.00    +0.000 A 
BRANCH  30  33
ATOM     33  O   UNL     1       5.377  13.071  27.064  0.00  0.00    +0.000 OA
ATOM     34  C   UNL     1       5.994  13.756  28.152  0.00  0.00    +0.000 C 
ENDBRANCH  30  33
ENDBRANCH  25  27
ENDBRANCH  22  25
ENDBRANCH   5  22
TORSDOF 10
ENDMDL
MODEL 8
REMARK VINA RESULT:      -7.0      5.213      9.760
REMARK  Name = 
REMARK  12 active torsions:
REMARK  status: ('A' for Active; 'I' for Inactive)
REMARK    1  A    between atoms: C_1  and  C_2
REMARK    2  A    between atoms: C_2  and  C_3
REMARK    3  A    between atoms: C_3  and  C_4
REMARK    4  A    between atoms: C_4  and  C_5
REMARK    5  A    between atoms: C_5  and  C_6
REMARK    6  A    between atoms: N_8  and  C_9
REMARK    7  A    between atoms: C_12  and  N_13
REMARK    8  A    between atoms: C_19  and  S_20
REMARK    9  A    between atoms: S_20  and  N_23
REMARK   10  A    between atoms: N_23  and  C_24
REMARK   11  A    between atoms: C_27  and  O_28
REMARK   12  A    between atoms: O_28  and  C_29
REMARK                            x       y       z     vdW  Elec       q    Type
REMARK                         _______ _______ _______ _____ _____    ______ ____
ROOT
ATOM      1  C   UNL     1       9.288  10.216  19.010  0.00  0.00    +0.000 A 
ATOM      2  C   UNL     1       9.735  10.777  17.827  0.00  0.00    +0.000 A 
ATOM      3  C   UNL     1      10.003  12.146  17.750  0.00  0.00    +0.000 A 
ATOM      4  C   UNL     1       9.837  13.032  18.844  0.00  0.00    +0.000 A 
ATOM      5  C   UNL     1       9.426  12.422  20.059  0.00  0.00    +0.000 A 
ATOM      6  C   UNL     1       9.125  11.043  20.121  0.00  0.00    +0.000 A 
ENDROOT
BRANCH   4   7
ATOM      7  N   UNL     1      10.078  14.371  18.599  0.00  0.00    +0.000 N 
ATOM      8  C   UNL     1      11.359  15.066  18.724  0.00  0.00    +0.000 C 
ATOM      9  C   UNL     1      11.296  16.172  19.788  0.00  0.00    +0.000 C 
ATOM     10  O   UNL     1      10.243  17.100  19.480  0.00  0.00    +0.000 OA
ATOM     11  C   UNL     1       8.980  16.410  19.438  0.00  0.00    +0.000 C 
ATOM     12  C   UNL     1       8.967  15.314  18.358  0.00  0.00    +0.000 C 
ENDBRANCH   4   7
BRANCH   1  15
ATOM     13  C   UNL     1       8.178   8.143  18.215  0.00  0.00    +0.000 C 
ATOM     14  O   UNL     1       7.670   8.610  17.214  0.00  0.00    +0.000 OA
ATOM     15  N   UNL     1       8.995   8.834  19.119  0.00  0.00    +0.000 N 
ATOM     16  H   UNL     1       9.524   8.292  19.796  0.00  0.00    +0.000 HD
BRANCH  13  17
ATOM     17  C   UNL     1       7.949   6.696  18.571  0.00  0.00    +0.000 C 
BRANCH  17  18
ATOM     18  C   UNL     1       7.213   5.948  17.471  0.00  0.00    +0.000 C 
BRANCH  18  19
ATOM     19  C   UNL     1       5.858   5.395  17.921  0.00  0.00    +0.000 C 
BRANCH  19  21
ATOM     20  C   UNL     1       4.020   3.898  17.076  0.00  0.00    +0.000 C 
ATOM     21  C   UNL     1       5.016   4.986  16.714  0.00  0.00    +0.000 C 
ENDBRANCH  19  21
ENDBRANCH  18  19
ENDBRANCH  17  18
ENDBRANCH  13  17
ENDBRANCH   1  15
BRANCH   5  22
ATOM     22  S   UNL     1       9.103  13.380  21.536  0.00  0.00    +0.000 S 
ATOM     23  O   UNL     1      10.279  14.190  21.829  0.00  0.00    +0.000 OA
ATOM     24  O   UNL     1       7.800  13.940  21.386  0.00  0.00    +0.000 OA
BRANCH  22  25
ATOM     25  N   UNL     1       9.087  12.290  22.843  0.00  0.00    +0.000 N 
ATOM     26  H   UNL     1      10.015  12.109  23.216  0.00  0.00    +0.000 HD
BRANCH  25  27
ATOM     27  C   UNL     1       8.050  12.537  23.794  0.00  0.00    +0.000 A 
ATOM     28  C   UNL     1       7.023  11.604  23.809  0.00  0.00    +0.000 A 
ATOM     29  C   UNL     1       5.953  11.765  24.678  0.00  0.00    +0.000 A 
ATOM     30  C   UNL     1       5.908  12.846  25.562  0.00  0.00    +0.000 A 
ATOM     31  C   UNL     1       6.931  13.799  25.530  0.00  0.00    +0.000 A 
ATOM     32  C   UNL     1       8.002  13.655  24.632  0.00  0.00    +0.000 A 
BRANCH  30  33
ATOM     33  O   UNL     1       4.816  12.881  26.382  0.00  0.00    +0.000 OA
ATOM     34  C   UNL     1       5.023  13.493  27.653  0.00  0.00    +0.000 C 
ENDBRANCH  30  33
ENDBRANCH  25  27
ENDBRANCH  22  25
ENDBRANCH   5  22
TORSDOF 10
ENDMDL
MODEL 9
REMARK VINA RESULT:      -6.9      4.709     10.437
REMARK  Name = 
REMARK  12 active torsions:
REMARK  status: ('A' for Active; 'I' for Inactive)
REMARK    1  A    between atoms: C_1  and  C_2
REMARK    2  A    between atoms: C_2  and  C_3
REMARK    3  A    between atoms: C_3  and  C_4
REMARK    4  A    between atoms: C_4  and  C_5
REMARK    5  A    between atoms: C_5  and  C_6
REMARK    6  A    between atoms: N_8  and  C_9
REMARK    7  A    between atoms: C_12  and  N_13
REMARK    8  A    between atoms: C_19  and  S_20
REMARK    9  A    between atoms: S_20  and  N_23
REMARK   10  A    between atoms: N_23  and  C_24
REMARK   11  A    between atoms: C_27  and  O_28
REMARK   12  A    between atoms: O_28  and  C_29
REMARK                            x       y       z     vdW  Elec       q    Type
REMARK                         _______ _______ _______ _____ _____    ______ ____
ROOT
ATOM      1  C   UNL     1      -1.908  10.596  17.595  0.00  0.00    +0.000 A 
ATOM      2  C   UNL     1      -2.711  11.618  18.069  0.00  0.00    +0.000 A 
ATOM      3  C   UNL     1      -2.524  12.126  19.357  0.00  0.00    +0.000 A 
ATOM      4  C   UNL     1      -1.532  11.641  20.246  0.00  0.00    +0.000 A 
ATOM      5  C   UNL     1      -0.689  10.627  19.716  0.00  0.00    +0.000 A 
ATOM      6  C   UNL     1      -0.905  10.096  18.425  0.00  0.00    +0.000 A 
ENDROOT
BRANCH   4   7
ATOM      7  N   UNL     1      -1.509  12.195  21.511  0.00  0.00    +0.000 N 
ATOM      8  C   UNL     1      -1.928  11.550  22.755  0.00  0.00    +0.000 C 
ATOM      9  C   UNL     1      -3.106  12.293  23.404  0.00  0.00    +0.000 C 
ATOM     10  O   UNL     1      -2.760  13.668  23.637  0.00  0.00    +0.000 OA
ATOM     11  C   UNL     1      -2.425  14.305  22.391  0.00  0.00    +0.000 C 
ATOM     12  C   UNL     1      -1.221  13.630  21.712  0.00  0.00    +0.000 C 
ENDBRANCH   4   7
BRANCH   1  15
ATOM     13  C   UNL     1      -2.864  10.648  15.305  0.00  0.00    +0.000 C 
ATOM     14  O   UNL     1      -3.443  11.712  15.399  0.00  0.00    +0.000 OA
ATOM     15  N   UNL     1      -2.079  10.049  16.299  0.00  0.00    +0.000 N 
ATOM     16  H   UNL     1      -1.483   9.270  16.034  0.00  0.00    +0.000 HD
BRANCH  13  17
ATOM     17  C   UNL     1      -2.957   9.850  14.028  0.00  0.00    +0.000 C 
BRANCH  17  18
ATOM     18  C   UNL     1      -4.365   9.855  13.455  0.00  0.00    +0.000 C 
BRANCH  18  19
ATOM     19  C   UNL     1      -4.393   9.788  11.925  0.00  0.00    +0.000 C 
BRANCH  19  21
ATOM     20  C   UNL     1      -6.653   8.688  12.055  0.00  0.00    +0.000 C 
ATOM     21  C   UNL     1      -5.832   9.793  11.413  0.00  0.00    +0.000 C 
ENDBRANCH  19  21
ENDBRANCH  18  19
ENDBRANCH  17  18
ENDBRANCH  13  17
ENDBRANCH   1  15
BRANCH   5  22
ATOM     22  S   UNL     1       0.583   9.844  20.703  0.00  0.00    +0.000 S 
ATOM     23  O   UNL     1       1.277  10.875  21.465  0.00  0.00    +0.000 OA
ATOM     24  O   UNL     1      -0.016   8.704  21.316  0.00  0.00    +0.000 OA
BRANCH  22  25
ATOM     25  N   UNL     1       1.793   9.320  19.627  0.00  0.00    +0.000 N 
ATOM     26  H   UNL     1       2.640   9.879  19.686  0.00  0.00    +0.000 HD
BRANCH  25  27
ATOM     27  C   UNL     1       1.962   7.901  19.588  0.00  0.00    +0.000 A 
ATOM     28  C   UNL     1       2.337   7.382  18.358  0.00  0.00    +0.000 A 
ATOM     29  C   UNL     1       2.502   6.013  18.205  0.00  0.00    +0.000 A 
ATOM     30  C   UNL     1       2.321   5.147  19.287  0.00  0.00    +0.000 A 
ATOM     31  C   UNL     1       1.920   5.668  20.521  0.00  0.00    +0.000 A 
ATOM     32  C   UNL     1       1.724   7.052  20.672  0.00  0.00    +0.000 A 
BRANCH  30  33
ATOM     33  O   UNL     1       2.535   3.825  19.016  0.00  0.00    +0.000 OA
ATOM     34  C   UNL     1       3.882   3.471  18.711  0.00  0.00    +0.000 C 
ENDBRANCH  30  33
ENDBRANCH  25  27
ENDBRANCH  22  25
ENDBRANCH   5  22
TORSDOF 10
ENDMDL
