MODEL 1
REMARK VINA RESULT:      -7.5      0.000      0.000
REMARK  Name = 
REMARK  11 active torsions:
REMARK  status: ('A' for Active; 'I' for Inactive)
REMARK    1  A    between atoms: C_1  and  O_2
REMARK    2  A    between atoms: O_2  and  C_3
REMARK    3  A    between atoms: C_6  and  C_7
REMARK    4  A    between atoms: C_7  and  C_8
REMARK    5  A    between atoms: C_8  and  N_9
REMARK    6  A    between atoms: C_13  and  C_14
REMARK    7  A    between atoms: C_14  and  N_15
REMARK    8  A    between atoms: N_15  and  C_16
REMARK    9  A    between atoms: C_17  and  C_19
REMARK   10  A    between atoms: C_21  and  C_22
REMARK   11  A    between atoms: C_24  and  C_25
REMARK                            x       y       z     vdW  Elec       q    Type
REMARK                         _______ _______ _______ _____ _____    ______ ____
ROOT
ATOM      1  N   UNL     1       1.959   4.345  18.242  0.00  0.00    +0.000 NA
ATOM      2  C   UNL     1       2.099   3.417  19.376  0.00  0.00    +0.000 C 
ATOM      3  C   UNL     1       1.327   3.895  20.602  0.00  0.00    +0.000 C 
ATOM      4  C   UNL     1       1.769   5.289  21.018  0.00  0.00    +0.000 C 
ATOM      5  C   UNL     1       1.622   6.246  19.830  0.00  0.00    +0.000 C 
ATOM      6  C   UNL     1       2.411   5.701  18.618  0.00  0.00    +0.000 C 
ENDROOT
BRANCH   1   7
ATOM      7  C   UNL     1       2.712   3.866  17.059  0.00  0.00    +0.000 C 
BRANCH   7   8
ATOM      8  C   UNL     1       4.090   3.279  17.422  0.00  0.00    +0.000 C 
BRANCH   8  12
ATOM      9  C   UNL     1       7.146   6.259  18.057  0.00  0.00    +0.000 A 
ATOM     10  C   UNL     1       6.661   5.507  19.127  0.00  0.00    +0.000 A 
ATOM     11  C   UNL     1       5.671   4.546  18.924  0.00  0.00    +0.000 A 
ATOM     12  C   UNL     1       5.141   4.337  17.644  0.00  0.00    +0.000 A 
ATOM     13  C   UNL     1       5.608   5.113  16.579  0.00  0.00    +0.000 A 
ATOM     14  C   UNL     1       6.607   6.069  16.785  0.00  0.00    +0.000 A 
BRANCH   9  16
ATOM     15  C   UNL     1       7.971   8.451  17.769  0.00  0.00    +0.000 C 
ATOM     16  O   UNL     1       8.113   7.173  18.376  0.00  0.00    +0.000 OA
ENDBRANCH   9  16
ENDBRANCH   8  12
ENDBRANCH   7   8
ENDBRANCH   1   7
BRANCH   5  17
ATOM     17  C   UNL     1       2.094   7.669  20.181  0.00  0.00    +0.000 C 
BRANCH  17  18
ATOM     18  N   UNL     1       1.014   8.661  20.290  0.00  0.00    +0.000 N 
ATOM     19  C   UNL     1       0.063   8.483  21.380  0.00  0.00    +0.000 C 
ATOM     20  C   UNL     1       0.845   9.586  19.244  0.00  0.00    +0.000 C 
ATOM     21  O   UNL     1       1.562   9.557  18.246  0.00  0.00    +0.000 OA
BRANCH  20  22
ATOM     22  C   UNL     1      -0.226  10.581  19.341  0.00  0.00    +0.000 A 
ATOM     23  C   UNL     1      -0.407  11.682  20.231  0.00  0.00    +0.000 A 
ATOM     24  C   UNL     1      -1.627  12.247  19.935  0.00  0.00    +0.000 A 
ATOM     25  C   UNL     1      -2.408  13.336  20.552  0.00  0.00    +0.000 C 
ATOM     26  O   UNL     1      -2.173  11.633  18.854  0.00  0.00    +0.000 OA
ATOM     27  C   UNL     1      -1.311  10.645  18.477  0.00  0.00    +0.000 A 
ATOM     28  C   UNL     1      -1.711   9.858  17.287  0.00  0.00    +0.000 C 
ENDBRANCH  20  22
ENDBRANCH  17  18
ENDBRANCH   5  17
TORSDOF 7
ENDMDL
MODEL 2
REMARK VINA RESULT:      -7.4      2.418      9.304
REMARK  Name = 
REMARK  11 active torsions:
REMARK  status: ('A' for Active; 'I' for Inactive)
REMARK    1  A    between atoms: C_1  and  O_2
REMARK    2  A    between atoms: O_2  and  C_3
REMARK    3  A    between atoms: C_6  and  C_7
REMARK    4  A    between atoms: C_7  and  C_8
REMARK    5  A    between atoms: C_8  and  N_9
REMARK    6  A    between atoms: C_13  and  C_14
REMARK    7  A    between atoms: C_14  and  N_15
REMARK    8  A    between atoms: N_15  and  C_16
REMARK    9  A    between atoms: C_17  and  C_19
REMARK   10  A    between atoms: C_21  and  C_22
REMARK   11  A    between atoms: C_24  and  C_25
REMARK                            x       y       z     vdW  Elec       q    Type
REMARK                         _______ _______ _______ _____ _____    ______ ____
ROOT
ATOM      1  N   UNL     1       1.474   9.311  19.389  0.00  0.00    +0.000 NA
ATOM      2  C   UNL     1       0.727   9.000  20.619  0.00  0.00    +0.000 C 
ATOM      3  C   UNL     1       1.445   7.958  21.472  0.00  0.00    +0.000 C 
ATOM      4  C   UNL     1       1.697   6.683  20.684  0.00  0.00    +0.000 C 
ATOM      5  C   UNL     1       2.473   7.020  19.405  0.00  0.00    +0.000 C 
ATOM      6  C   UNL     1       1.705   8.088  18.594  0.00  0.00    +0.000 C 
ENDROOT
BRANCH   1   7
ATOM      7  C   UNL     1       0.765  10.325  18.573  0.00  0.00    +0.000 C 
BRANCH   7   8
ATOM      8  C   UNL     1      -0.347   9.719  17.696  0.00  0.00    +0.000 C 
BRANCH   8  12
ATOM      9  C   UNL     1      -4.194  11.557  18.358  0.00  0.00    +0.000 A 
ATOM     10  C   UNL     1      -3.077  11.982  19.077  0.00  0.00    +0.000 A 
ATOM     11  C   UNL     1      -1.834  11.386  18.866  0.00  0.00    +0.000 A 
ATOM     12  C   UNL     1      -1.697  10.343  17.941  0.00  0.00    +0.000 A 
ATOM     13  C   UNL     1      -2.825   9.900  17.244  0.00  0.00    +0.000 A 
ATOM     14  C   UNL     1      -4.068  10.506  17.451  0.00  0.00    +0.000 A 
BRANCH   9  16
ATOM     15  C   UNL     1      -6.553  11.530  18.282  0.00  0.00    +0.000 C 
ATOM     16  O   UNL     1      -5.360  12.212  18.649  0.00  0.00    +0.000 OA
ENDBRANCH   9  16
ENDBRANCH   8  12
ENDBRANCH   7   8
ENDBRANCH   1   7
BRANCH   5  17
ATOM     17  C   UNL     1       2.723   5.770  18.543  0.00  0.00    +0.000 C 
BRANCH  17  18
ATOM     18  N   UNL     1       3.896   5.862  17.660  0.00  0.00    +0.000 N 
ATOM     19  C   UNL     1       4.443   7.193  17.427  0.00  0.00    +0.000 C 
ATOM     20  C   UNL     1       4.290   4.715  16.948  0.00  0.00    +0.000 C 
ATOM     21  O   UNL     1       3.661   3.663  17.034  0.00  0.00    +0.000 OA
BRANCH  20  22
ATOM     22  C   UNL     1       5.459   4.793  16.066  0.00  0.00    +0.000 A 
ATOM     23  C   UNL     1       5.559   4.951  14.652  0.00  0.00    +0.000 A 
ATOM     24  C   UNL     1       6.895   4.883  14.329  0.00  0.00    +0.000 A 
ATOM     25  C   UNL     1       7.622   4.883  13.045  0.00  0.00    +0.000 C 
ATOM     26  O   UNL     1       7.642   4.793  15.459  0.00  0.00    +0.000 OA
ATOM     27  C   UNL     1       6.774   4.769  16.511  0.00  0.00    +0.000 A 
ATOM     28  C   UNL     1       7.391   4.696  17.857  0.00  0.00    +0.000 C 
ENDBRANCH  20  22
ENDBRANCH  17  18
ENDBRANCH   5  17
TORSDOF 7
ENDMDL
MODEL 3
REMARK VINA RESULT:      -7.3      0.739      1.271
REMARK  Name = 
REMARK  11 active torsions:
REMARK  status: ('A' for Active; 'I' for Inactive)
REMARK    1  A    between atoms: C_1  and  O_2
REMARK    2  A    between atoms: O_2  and  C_3
REMARK    3  A    between atoms: C_6  and  C_7
REMARK    4  A    between atoms: C_7  and  C_8
REMARK    5  A    between atoms: C_8  and  N_9
REMARK    6  A    between atoms: C_13  and  C_14
REMARK    7  A    between atoms: C_14  and  N_15
REMARK    8  A    between atoms: N_15  and  C_16
REMARK    9  A    between atoms: C_17  and  C_19
REMARK   10  A    between atoms: C_21  and  C_22
REMARK   11  A    between atoms: C_24  and  C_25
REMARK                            x       y       z     vdW  Elec       q    Type
REMARK                         _______ _______ _______ _____ _____    ______ ____
ROOT
ATOM      1  N   UNL     1       2.002   4.211  18.409  0.00  0.00    +0.000 NA
ATOM      2  C   UNL     1       2.253   3.240  19.485  0.00  0.00    +0.000 C 
ATOM      3  C   UNL     1       1.545   3.629  20.780  0.00  0.00    +0.000 C 
ATOM      4  C   UNL     1       1.958   5.020  21.233  0.00  0.00    +0.000 C 
ATOM      5  C   UNL     1       1.696   6.022  20.104  0.00  0.00    +0.000 C 
ATOM      6  C   UNL     1       2.424   5.567  18.819  0.00  0.00    +0.000 C 
ENDROOT
BRANCH   1   7
ATOM      7  C   UNL     1       2.694   3.819  17.158  0.00  0.00    +0.000 C 
BRANCH   7   8
ATOM      8  C   UNL     1       4.111   3.265  17.405  0.00  0.00    +0.000 C 
BRANCH   8  12
ATOM      9  C   UNL     1       7.094   6.319  18.030  0.00  0.00    +0.000 A 
ATOM     10  C   UNL     1       6.734   5.463  19.070  0.00  0.00    +0.000 A 
ATOM     11  C   UNL     1       5.766   4.478  18.870  0.00  0.00    +0.000 A 
ATOM     12  C   UNL     1       5.136   4.348  17.626  0.00  0.00    +0.000 A 
ATOM     13  C   UNL     1       5.479   5.227  16.594  0.00  0.00    +0.000 A 
ATOM     14  C   UNL     1       6.455   6.208  16.796  0.00  0.00    +0.000 A 
BRANCH   9  16
ATOM     15  C   UNL     1       7.928   8.499  17.678  0.00  0.00    +0.000 C 
ATOM     16  O   UNL     1       8.050   7.247  18.342  0.00  0.00    +0.000 OA
ENDBRANCH   9  16
ENDBRANCH   8  12
ENDBRANCH   7   8
ENDBRANCH   1   7
BRANCH   5  17
ATOM     17  C   UNL     1       2.133   7.447  20.492  0.00  0.00    +0.000 C 
BRANCH  17  18
ATOM     18  N   UNL     1       1.061   8.452  20.431  0.00  0.00    +0.000 N 
ATOM     19  C   UNL     1       0.052   8.404  21.481  0.00  0.00    +0.000 C 
ATOM     20  C   UNL     1       0.960   9.255  19.280  0.00  0.00    +0.000 C 
ATOM     21  O   UNL     1       1.729   9.109  18.332  0.00  0.00    +0.000 OA
BRANCH  20  22
ATOM     22  C   UNL     1      -0.102  10.262  19.208  0.00  0.00    +0.000 A 
ATOM     23  C   UNL     1      -1.453  10.171  18.759  0.00  0.00    +0.000 A 
ATOM     24  C   UNL     1      -1.992  11.436  18.832  0.00  0.00    +0.000 A 
ATOM     25  C   UNL     1      -3.293  12.001  18.428  0.00  0.00    +0.000 C 
ATOM     26  O   UNL     1      -1.096  12.290  19.391  0.00  0.00    +0.000 OA
ATOM     27  C   UNL     1       0.036  11.573  19.645  0.00  0.00    +0.000 A 
ATOM     28  C   UNL     1       1.144  12.320  20.285  0.00  0.00    +0.000 C 
ENDBRANCH  20  22
ENDBRANCH  17  18
ENDBRANCH   5  17
TORSDOF 7
ENDMDL
MODEL 4
REMARK VINA RESULT:      -7.3      1.945      2.870
REMARK  Name = 
REMARK  11 active torsions:
REMARK  status: ('A' for Active; 'I' for Inactive)
REMARK    1  A    between atoms: C_1  and  O_2
REMARK    2  A    between atoms: O_2  and  C_3
REMARK    3  A    between atoms: C_6  and  C_7
REMARK    4  A    between atoms: C_7  and  C_8
REMARK    5  A    between atoms: C_8  and  N_9
REMARK    6  A    between atoms: C_13  and  C_14
REMARK    7  A    between atoms: C_14  and  N_15
REMARK    8  A    between atoms: N_15  and  C_16
REMARK    9  A    between atoms: C_17  and  C_19
REMARK   10  A    between atoms: C_21  and  C_22
REMARK   11  A    between atoms: C_24  and  C_25
REMARK                            x       y       z     vdW  Elec       q    Type
REMARK                         _______ _______ _______ _____ _____    ______ ____
ROOT
ATOM      1  N   UNL     1       3.295   4.322  19.258  0.00  0.00    +0.000 NA
ATOM      2  C   UNL     1       2.528   3.685  20.341  0.00  0.00    +0.000 C 
ATOM      3  C   UNL     1       1.176   4.359  20.554  0.00  0.00    +0.000 C 
ATOM      4  C   UNL     1       1.342   5.843  20.841  0.00  0.00    +0.000 C 
ATOM      5  C   UNL     1       2.143   6.494  19.709  0.00  0.00    +0.000 C 
ATOM      6  C   UNL     1       3.492   5.760  19.533  0.00  0.00    +0.000 C 
ENDROOT
BRANCH   1   7
ATOM      7  C   UNL     1       4.604   3.655  19.063  0.00  0.00    +0.000 C 
BRANCH   7   8
ATOM      8  C   UNL     1       5.707   4.625  18.595  0.00  0.00    +0.000 C 
BRANCH   8  12
ATOM      9  C   UNL     1       6.478   4.366  14.357  0.00  0.00    +0.000 A 
ATOM     10  C   UNL     1       7.426   4.927  15.213  0.00  0.00    +0.000 A 
ATOM     11  C   UNL     1       7.176   5.015  16.583  0.00  0.00    +0.000 A 
ATOM     12  C   UNL     1       5.964   4.553  17.111  0.00  0.00    +0.000 A 
ATOM     13  C   UNL     1       5.004   4.019  16.246  0.00  0.00    +0.000 A 
ATOM     14  C   UNL     1       5.261   3.925  14.875  0.00  0.00    +0.000 A 
BRANCH   9  16
ATOM     15  C   UNL     1       6.151   3.368  12.243  0.00  0.00    +0.000 C 
ATOM     16  O   UNL     1       6.831   4.335  13.036  0.00  0.00    +0.000 OA
ENDBRANCH   9  16
ENDBRANCH   8  12
ENDBRANCH   7   8
ENDBRANCH   1   7
BRANCH   5  17
ATOM     17  C   UNL     1       2.379   7.994  19.965  0.00  0.00    +0.000 C 
BRANCH  17  18
ATOM     18  N   UNL     1       1.197   8.843  19.751  0.00  0.00    +0.000 N 
ATOM     19  C   UNL     1       0.224   8.904  20.833  0.00  0.00    +0.000 C 
ATOM     20  C   UNL     1       0.978   9.374  18.467  0.00  0.00    +0.000 C 
ATOM     21  O   UNL     1       1.737   9.119  17.534  0.00  0.00    +0.000 OA
BRANCH  20  22
ATOM     22  C   UNL     1      -0.195  10.224  18.240  0.00  0.00    +0.000 A 
ATOM     23  C   UNL     1      -1.488   9.919  17.720  0.00  0.00    +0.000 A 
ATOM     24  C   UNL     1      -2.185  11.104  17.647  0.00  0.00    +0.000 A 
ATOM     25  C   UNL     1      -3.515  11.458  17.115  0.00  0.00    +0.000 C 
ATOM     26  O   UNL     1      -1.447  12.111  18.181  0.00  0.00    +0.000 OA
ATOM     27  C   UNL     1      -0.255  11.572  18.567  0.00  0.00    +0.000 A 
ATOM     28  C   UNL     1       0.701  12.508  19.204  0.00  0.00    +0.000 C 
ENDBRANCH  20  22
ENDBRANCH  17  18
ENDBRANCH   5  17
TORSDOF 7
ENDMDL
MODEL 5
REMARK VINA RESULT:      -7.2      1.863      8.172
REMARK  Name = 
REMARK  11 active torsions:
REMARK  status: ('A' for Active; 'I' for Inactive)
REMARK    1  A    between atoms: C_1  and  O_2
REMARK    2  A    between atoms: O_2  and  C_3
REMARK    3  A    between atoms: C_6  and  C_7
REMARK    4  A    between atoms: C_7  and  C_8
REMARK    5  A    between atoms: C_8  and  N_9
REMARK    6  A    between atoms: C_13  and  C_14
REMARK    7  A    between atoms: C_14  and  N_15
REMARK    8  A    between atoms: N_15  and  C_16
REMARK    9  A    between atoms: C_17  and  C_19
REMARK   10  A    between atoms: C_21  and  C_22
REMARK   11  A    between atoms: C_24  and  C_25
REMARK                            x       y       z     vdW  Elec       q    Type
REMARK                         _______ _______ _______ _____ _____    ______ ____
ROOT
ATOM      1  N   UNL     1       2.031   5.662  20.575  0.00  0.00    +0.000 NA
ATOM      2  C   UNL     1       0.796   4.899  20.333  0.00  0.00    +0.000 C 
ATOM      3  C   UNL     1       0.929   3.445  20.775  0.00  0.00    +0.000 C 
ATOM      4  C   UNL     1       2.099   2.766  20.082  0.00  0.00    +0.000 C 
ATOM      5  C   UNL     1       3.379   3.569  20.338  0.00  0.00    +0.000 C 
ATOM      6  C   UNL     1       3.177   5.033  19.885  0.00  0.00    +0.000 C 
ENDROOT
BRANCH   1   7
ATOM      7  C   UNL     1       1.886   7.072  20.142  0.00  0.00    +0.000 C 
BRANCH   7   8
ATOM      8  C   UNL     1       1.415   8.002  21.277  0.00  0.00    +0.000 C 
BRANCH   8  12
ATOM      9  C   UNL     1      -0.662  11.490  19.814  0.00  0.00    +0.000 A 
ATOM     10  C   UNL     1       0.092  10.702  18.944  0.00  0.00    +0.000 A 
ATOM     11  C   UNL     1       0.767   9.577  19.417  0.00  0.00    +0.000 A 
ATOM     12  C   UNL     1       0.706   9.234  20.774  0.00  0.00    +0.000 A 
ATOM     13  C   UNL     1      -0.026  10.043  21.648  0.00  0.00    +0.000 A 
ATOM     14  C   UNL     1      -0.708  11.165  21.170  0.00  0.00    +0.000 A 
BRANCH   9  16
ATOM     15  C   UNL     1      -1.895  13.475  20.147  0.00  0.00    +0.000 C 
ATOM     16  O   UNL     1      -1.277  12.569  19.240  0.00  0.00    +0.000 OA
ENDBRANCH   9  16
ENDBRANCH   8  12
ENDBRANCH   7   8
ENDBRANCH   1   7
BRANCH   5  17
ATOM     17  C   UNL     1       4.595   2.951  19.625  0.00  0.00    +0.000 C 
BRANCH  17  18
ATOM     18  N   UNL     1       4.798   3.421  18.246  0.00  0.00    +0.000 N 
ATOM     19  C   UNL     1       3.911   2.876  17.226  0.00  0.00    +0.000 C 
ATOM     20  C   UNL     1       5.938   4.195  17.964  0.00  0.00    +0.000 C 
ATOM     21  O   UNL     1       6.763   4.456  18.836  0.00  0.00    +0.000 OA
BRANCH  20  22
ATOM     22  C   UNL     1       6.151   4.672  16.594  0.00  0.00    +0.000 A 
ATOM     23  C   UNL     1       6.873   4.102  15.503  0.00  0.00    +0.000 A 
ATOM     24  C   UNL     1       6.818   5.003  14.464  0.00  0.00    +0.000 A 
ATOM     25  C   UNL     1       7.437   5.035  13.125  0.00  0.00    +0.000 C 
ATOM     26  O   UNL     1       6.026   6.053  14.802  0.00  0.00    +0.000 OA
ATOM     27  C   UNL     1       5.599   5.837  16.079  0.00  0.00    +0.000 A 
ATOM     28  C   UNL     1       4.692   6.866  16.641  0.00  0.00    +0.000 C 
ENDBRANCH  20  22
ENDBRANCH  17  18
ENDBRANCH   5  17
TORSDOF 7
ENDMDL
MODEL 6
REMARK VINA RESULT:      -7.1      1.551      2.063
REMARK  Name = 
REMARK  11 active torsions:
REMARK  status: ('A' for Active; 'I' for Inactive)
REMARK    1  A    between atoms: C_1  and  O_2
REMARK    2  A    between atoms: O_2  and  C_3
REMARK    3  A    between atoms: C_6  and  C_7
REMARK    4  A    between atoms: C_7  and  C_8
REMARK    5  A    between atoms: C_8  and  N_9
REMARK    6  A    between atoms: C_13  and  C_14
REMARK    7  A    between atoms: C_14  and  N_15
REMARK    8  A    between atoms: N_15  and  C_16
REMARK    9  A    between atoms: C_17  and  C_19
REMARK   10  A    between atoms: C_21  and  C_22
REMARK   11  A    between atoms: C_24  and  C_25
REMARK                            x       y       z     vdW  Elec       q    Type
REMARK                         _______ _______ _______ _____ _____    ______ ____
ROOT
ATOM      1  N   UNL     1       3.416   4.137  19.053  0.00  0.00    +0.000 NA
ATOM      2  C   UNL     1       2.517   3.073  19.527  0.00  0.00    +0.000 C 
ATOM      3  C   UNL     1       1.060   3.525  19.547  0.00  0.00    +0.000 C 
ATOM      4  C   UNL     1       0.884   4.769  20.402  0.00  0.00    +0.000 C 
ATOM      5  C   UNL     1       1.826   5.869  19.902  0.00  0.00    +0.000 C 
ATOM      6  C   UNL     1       3.281   5.347  19.890  0.00  0.00    +0.000 C 
ENDROOT
BRANCH   1   7
ATOM      7  C   UNL     1       4.827   3.682  19.037  0.00  0.00    +0.000 C 
BRANCH   7   8
ATOM      8  C   UNL     1       5.544   3.996  17.710  0.00  0.00    +0.000 C 
BRANCH   8  12
ATOM      9  C   UNL     1       7.515   7.834  17.787  0.00  0.00    +0.000 A 
ATOM     10  C   UNL     1       6.368   7.646  17.015  0.00  0.00    +0.000 A 
ATOM     11  C   UNL     1       5.733   6.405  16.986  0.00  0.00    +0.000 A 
ATOM     12  C   UNL     1       6.248   5.329  17.721  0.00  0.00    +0.000 A 
ATOM     13  C   UNL     1       7.415   5.513  18.469  0.00  0.00    +0.000 A 
ATOM     14  C   UNL     1       8.044   6.760  18.503  0.00  0.00    +0.000 A 
BRANCH   9  16
ATOM     15  C   UNL     1       8.868   9.452  18.845  0.00  0.00    +0.000 C 
ATOM     16  O   UNL     1       8.054   9.090  17.735  0.00  0.00    +0.000 OA
ENDBRANCH   9  16
ENDBRANCH   8  12
ENDBRANCH   7   8
ENDBRANCH   1   7
BRANCH   5  17
ATOM     17  C   UNL     1       1.721   7.144  20.758  0.00  0.00    +0.000 C 
BRANCH  17  18
ATOM     18  N   UNL     1       1.485   8.377  19.991  0.00  0.00    +0.000 N 
ATOM     19  C   UNL     1       2.134   8.479  18.691  0.00  0.00    +0.000 C 
ATOM     20  C   UNL     1       0.827   9.446  20.627  0.00  0.00    +0.000 C 
ATOM     21  O   UNL     1       0.478   9.370  21.803  0.00  0.00    +0.000 OA
BRANCH  20  22
ATOM     22  C   UNL     1       0.583  10.679  19.874  0.00  0.00    +0.000 A 
ATOM     23  C   UNL     1       1.297  11.913  19.836  0.00  0.00    +0.000 A 
ATOM     24  C   UNL     1       0.591  12.767  19.019  0.00  0.00    +0.000 A 
ATOM     25  C   UNL     1       0.761  14.188  18.661  0.00  0.00    +0.000 C 
ATOM     26  O   UNL     1      -0.462  12.113  18.465  0.00  0.00    +0.000 OA
ATOM     27  C   UNL     1      -0.449  10.842  18.959  0.00  0.00    +0.000 A 
ATOM     28  C   UNL     1      -1.515   9.943  18.458  0.00  0.00    +0.000 C 
ENDBRANCH  20  22
ENDBRANCH  17  18
ENDBRANCH   5  17
TORSDOF 7
ENDMDL
MODEL 7
REMARK VINA RESULT:      -7.1      2.091      7.640
REMARK  Name = 
REMARK  11 active torsions:
REMARK  status: ('A' for Active; 'I' for Inactive)
REMARK    1  A    between atoms: C_1  and  O_2
REMARK    2  A    between atoms: O_2  and  C_3
REMARK    3  A    between atoms: C_6  and  C_7
REMARK    4  A    between atoms: C_7  and  C_8
REMARK    5  A    between atoms: C_8  and  N_9
REMARK    6  A    between atoms: C_13  and  C_14
REMARK    7  A    between atoms: C_14  and  N_15
REMARK    8  A    between atoms: N_15  and  C_16
REMARK    9  A    between atoms: C_17  and  C_19
REMARK   10  A    between atoms: C_21  and  C_22
REMARK   11  A    between atoms: C_24  and  C_25
REMARK                            x       y       z     vdW  Elec       q    Type
REMARK                         _______ _______ _______ _____ _____    ______ ____
ROOT
ATOM      1  N   UNL     1       1.678   4.911  20.858  0.00  0.00    +0.000 NA
ATOM      2  C   UNL     1       0.595   4.207  20.151  0.00  0.00    +0.000 C 
ATOM      3  C   UNL     1       0.803   2.696  20.151  0.00  0.00    +0.000 C 
ATOM      4  C   UNL     1       2.145   2.327  19.538  0.00  0.00    +0.000 C 
ATOM      5  C   UNL     1       3.264   3.067  20.279  0.00  0.00    +0.000 C 
ATOM      6  C   UNL     1       2.989   4.588  20.259  0.00  0.00    +0.000 C 
ENDROOT
BRANCH   1   7
ATOM      7  C   UNL     1       1.461   6.377  20.851  0.00  0.00    +0.000 C 
BRANCH   7   8
ATOM      8  C   UNL     1       2.168   7.083  19.678  0.00  0.00    +0.000 C 
BRANCH   8  12
ATOM      9  C   UNL     1       0.843  11.147  19.092  0.00  0.00    +0.000 A 
ATOM     10  C   UNL     1       0.658  10.516  20.323  0.00  0.00    +0.000 A 
ATOM     11  C   UNL     1       1.082   9.201  20.512  0.00  0.00    +0.000 A 
ATOM     12  C   UNL     1       1.686   8.495  19.463  0.00  0.00    +0.000 A 
ATOM     13  C   UNL     1       1.843   9.121  18.223  0.00  0.00    +0.000 A 
ATOM     14  C   UNL     1       1.424  10.442  18.039  0.00  0.00    +0.000 A 
BRANCH   9  16
ATOM     15  C   UNL     1      -0.751  12.635  18.190  0.00  0.00    +0.000 C 
ATOM     16  O   UNL     1       0.385  12.435  19.022  0.00  0.00    +0.000 OA
ENDBRANCH   9  16
ENDBRANCH   8  12
ENDBRANCH   7   8
ENDBRANCH   1   7
BRANCH   5  17
ATOM     17  C   UNL     1       4.647   2.764  19.675  0.00  0.00    +0.000 C 
BRANCH  17  18
ATOM     18  N   UNL     1       4.829   3.241  18.296  0.00  0.00    +0.000 N 
ATOM     19  C   UNL     1       4.024   2.600  17.265  0.00  0.00    +0.000 C 
ATOM     20  C   UNL     1       5.888   4.127  18.028  0.00  0.00    +0.000 C 
ATOM     21  O   UNL     1       6.665   4.479  18.914  0.00  0.00    +0.000 OA
BRANCH  20  22
ATOM     22  C   UNL     1       6.079   4.612  16.658  0.00  0.00    +0.000 A 
ATOM     23  C   UNL     1       6.707   4.009  15.528  0.00  0.00    +0.000 A 
ATOM     24  C   UNL     1       6.677   4.932  14.506  0.00  0.00    +0.000 A 
ATOM     25  C   UNL     1       7.239   4.942  13.142  0.00  0.00    +0.000 C 
ATOM     26  O   UNL     1       5.984   6.032  14.895  0.00  0.00    +0.000 OA
ATOM     27  C   UNL     1       5.597   5.826  16.187  0.00  0.00    +0.000 A 
ATOM     28  C   UNL     1       4.797   6.910  16.804  0.00  0.00    +0.000 C 
ENDBRANCH  20  22
ENDBRANCH  17  18
ENDBRANCH   5  17
TORSDOF 7
ENDMDL
MODEL 8
REMARK VINA RESULT:      -7.0      2.530      9.271
REMARK  Name = 
REMARK  11 active torsions:
REMARK  status: ('A' for Active; 'I' for Inactive)
REMARK    1  A    between atoms: C_1  and  O_2
REMARK    2  A    between atoms: O_2  and  C_3
REMARK    3  A    between atoms: C_6  and  C_7
REMARK    4  A    between atoms: C_7  and  C_8
REMARK    5  A    between atoms: C_8  and  N_9
REMARK    6  A    between atoms: C_13  and  C_14
REMARK    7  A    between atoms: C_14  and  N_15
REMARK    8  A    between atoms: N_15  and  C_16
REMARK    9  A    between atoms: C_17  and  C_19
REMARK   10  A    between atoms: C_21  and  C_22
REMARK   11  A    between atoms: C_24  and  C_25
REMARK                            x       y       z     vdW  Elec       q    Type
REMARK                         _______ _______ _______ _____ _____    ______ ____
ROOT
ATOM      1  N   UNL     1       0.451  10.676  20.002  0.00  0.00    +0.000 NA
ATOM      2  C   UNL     1      -0.377  10.960  21.185  0.00  0.00    +0.000 C 
ATOM      3  C   UNL     1       0.164  10.276  22.437  0.00  0.00    +0.000 C 
ATOM      4  C   UNL     1       0.277   8.774  22.235  0.00  0.00    +0.000 C 
ATOM      5  C   UNL     1       1.138   8.489  20.999  0.00  0.00    +0.000 C 
ATOM      6  C   UNL     1       0.550   9.220  19.771  0.00  0.00    +0.000 C 
ENDROOT
BRANCH   1   7
ATOM      7  C   UNL     1      -0.086  11.349  18.795  0.00  0.00    +0.000 C 
BRANCH   7   8
ATOM      8  C   UNL     1      -0.949  10.417  17.922  0.00  0.00    +0.000 C 
BRANCH   8  12
ATOM      9  C   UNL     1      -5.007  11.788  17.409  0.00  0.00    +0.000 A 
ATOM     10  C   UNL     1      -4.319  11.208  16.343  0.00  0.00    +0.000 A 
ATOM     11  C   UNL     1      -3.006  10.769  16.507  0.00  0.00    +0.000 A 
ATOM     12  C   UNL     1      -2.359  10.918  17.740  0.00  0.00    +0.000 A 
ATOM     13  C   UNL     1      -3.042  11.526  18.797  0.00  0.00    +0.000 A 
ATOM     14  C   UNL     1      -4.361  11.958  18.632  0.00  0.00    +0.000 A 
BRANCH   9  16
ATOM     15  C   UNL     1      -7.190  12.149  18.229  0.00  0.00    +0.000 C 
ATOM     16  O   UNL     1      -6.287  12.184  17.131  0.00  0.00    +0.000 OA
ENDBRANCH   9  16
ENDBRANCH   8  12
ENDBRANCH   7   8
ENDBRANCH   1   7
BRANCH   5  17
ATOM     17  C   UNL     1       1.255   6.980  20.719  0.00  0.00    +0.000 C 
BRANCH  17  18
ATOM     18  N   UNL     1       2.375   6.606  19.842  0.00  0.00    +0.000 N 
ATOM     19  C   UNL     1       2.644   7.481  18.708  0.00  0.00    +0.000 C 
ATOM     20  C   UNL     1       2.980   5.350  20.026  0.00  0.00    +0.000 C 
ATOM     21  O   UNL     1       2.573   4.565  20.880  0.00  0.00    +0.000 OA
BRANCH  20  22
ATOM     22  C   UNL     1       4.099   4.966  19.160  0.00  0.00    +0.000 A 
ATOM     23  C   UNL     1       5.500   5.209  19.274  0.00  0.00    +0.000 A 
ATOM     24  C   UNL     1       6.094   4.694  18.143  0.00  0.00    +0.000 A 
ATOM     25  C   UNL     1       7.480   4.714  17.637  0.00  0.00    +0.000 C 
ATOM     26  O   UNL     1       5.168   4.059  17.380  0.00  0.00    +0.000 OA
ATOM     27  C   UNL     1       3.967   4.198  18.011  0.00  0.00    +0.000 A 
ATOM     28  C   UNL     1       2.810   3.550  17.349  0.00  0.00    +0.000 C 
ENDBRANCH  20  22
ENDBRANCH  17  18
ENDBRANCH   5  17
TORSDOF 7
ENDMDL
MODEL 9
REMARK VINA RESULT:      -7.0      1.253      1.791
REMARK  Name = 
REMARK  11 active torsions:
REMARK  status: ('A' for Active; 'I' for Inactive)
REMARK    1  A    between atoms: C_1  and  O_2
REMARK    2  A    between atoms: O_2  and  C_3
REMARK    3  A    between atoms: C_6  and  C_7
REMARK    4  A    between atoms: C_7  and  C_8
REMARK    5  A    between atoms: C_8  and  N_9
REMARK    6  A    between atoms: C_13  and  C_14
REMARK    7  A    between atoms: C_14  and  N_15
REMARK    8  A    between atoms: N_15  and  C_16
REMARK    9  A    between atoms: C_17  and  C_19
REMARK   10  A    between atoms: C_21  and  C_22
REMARK   11  A    between atoms: C_24  and  C_25
REMARK                            x       y       z     vdW  Elec       q    Type
REMARK                         _______ _______ _______ _____ _____    ______ ____
ROOT
ATOM      1  N   UNL     1       2.856   3.764  18.826  0.00  0.00    +0.000 NA
ATOM      2  C   UNL     1       2.202   3.096  19.962  0.00  0.00    +0.000 C 
ATOM      3  C   UNL     1       0.993   3.880  20.465  0.00  0.00    +0.000 C 
ATOM      4  C   UNL     1       1.381   5.297  20.852  0.00  0.00    +0.000 C 
ATOM      5  C   UNL     1       2.063   5.982  19.663  0.00  0.00    +0.000 C 
ATOM      6  C   UNL     1       3.267   5.136  19.191  0.00  0.00    +0.000 C 
ENDROOT
BRANCH   1   7
ATOM      7  C   UNL     1       4.026   2.991  18.348  0.00  0.00    +0.000 C 
BRANCH   7   8
ATOM      8  C   UNL     1       4.516   3.441  16.958  0.00  0.00    +0.000 C 
BRANCH   8  12
ATOM      9  C   UNL     1       6.967   6.987  17.151  0.00  0.00    +0.000 A 
ATOM     10  C   UNL     1       5.802   6.976  16.383  0.00  0.00    +0.000 A 
ATOM     11  C   UNL     1       5.012   5.828  16.316  0.00  0.00    +0.000 A 
ATOM     12  C   UNL     1       5.387   4.670  17.009  0.00  0.00    +0.000 A 
ATOM     13  C   UNL     1       6.570   4.676  17.754  0.00  0.00    +0.000 A 
ATOM     14  C   UNL     1       7.356   5.830  17.825  0.00  0.00    +0.000 A 
BRANCH   9  16
ATOM     15  C   UNL     1       8.388   8.459  18.327  0.00  0.00    +0.000 C 
ATOM     16  O   UNL     1       7.663   8.165  17.138  0.00  0.00    +0.000 OA
ENDBRANCH   9  16
ENDBRANCH   8  12
ENDBRANCH   7   8
ENDBRANCH   1   7
BRANCH   5  17
ATOM     17  C   UNL     1       2.516   7.412  20.009  0.00  0.00    +0.000 C 
BRANCH  17  18
ATOM     18  N   UNL     1       1.461   8.431  19.895  0.00  0.00    +0.000 N 
ATOM     19  C   UNL     1       0.573   8.592  21.039  0.00  0.00    +0.000 C 
ATOM     20  C   UNL     1       1.249   9.037  18.644  0.00  0.00    +0.000 C 
ATOM     21  O   UNL     1       1.905   8.711  17.657  0.00  0.00    +0.000 OA
BRANCH  20  22
ATOM     22  C   UNL     1       0.202  10.056  18.517  0.00  0.00    +0.000 A 
ATOM     23  C   UNL     1      -1.186   9.943  18.211  0.00  0.00    +0.000 A 
ATOM     24  C   UNL     1      -1.693  11.221  18.141  0.00  0.00    +0.000 A 
ATOM     25  C   UNL     1      -3.017  11.761  17.776  0.00  0.00    +0.000 C 
ATOM     26  O   UNL     1      -0.734  12.119  18.483  0.00  0.00    +0.000 OA
ATOM     27  C   UNL     1       0.404  11.412  18.739  0.00  0.00    +0.000 A 
ATOM     28  C   UNL     1       1.581  12.210  19.157  0.00  0.00    +0.000 C 
ENDBRANCH  20  22
ENDBRANCH  17  18
ENDBRANCH   5  17
TORSDOF 7
ENDMDL
