MODEL 1
REMARK VINA RESULT:      -6.4      0.000      0.000
REMARK  Name = 
REMARK  9 active torsions:
REMARK  status: ('A' for Active; 'I' for Inactive)
REMARK    1  A    between atoms: C_1  and  C_2
REMARK    2  A    between atoms: C_2  and  C_3
REMARK    3  A    between atoms: C_2  and  N_6
REMARK    4  A    between atoms: N_6  and  C_7
REMARK    5  A    between atoms: N_6  and  S_8
REMARK    6  A    between atoms: S_8  and  N_11
REMARK    7  A    between atoms: N_11  and  C_12
REMARK    8  A    between atoms: C_12  and  C_13
REMARK    9  A    between atoms: N_16  and  C_17
REMARK                            x       y       z     vdW  Elec       q    Type
REMARK                         _______ _______ _______ _____ _____    ______ ____
ROOT
ATOM      1  N   UNL     1       4.234   4.660  16.673  0.00  0.00    +0.000 NA
ATOM      2  H   UNL     1       4.573   5.479  17.173  0.00  0.00    +0.000 HD
ENDROOT
BRANCH   1   3
ATOM      3  S   UNL     1       3.212   3.819  17.718  0.00  0.00    +0.000 S 
ATOM      4  O   UNL     1       4.094   3.275  18.726  0.00  0.00    +0.000 OA
ATOM      5  O   UNL     1       2.343   2.970  16.927  0.00  0.00    +0.000 OA
BRANCH   3   6
ATOM      6  N   UNL     1       2.290   5.053  18.417  0.00  0.00    +0.000 NA
ATOM      7  C   UNL     1       2.580   6.428  17.969  0.00  0.00    +0.000 C 
BRANCH   6   9
ATOM      8  C   UNL     1       1.965   6.246  20.632  0.00  0.00    +0.000 C 
ATOM      9  C   UNL     1       2.171   4.905  19.915  0.00  0.00    +0.000 C 
BRANCH   9  10
ATOM     10  C   UNL     1       1.038   3.974  20.300  0.00  0.00    +0.000 C 
ATOM     11  C   UNL     1       1.024   2.511  19.938  0.00  0.00    +0.000 C 
ATOM     12  C   UNL     1       1.272   2.923  21.360  0.00  0.00    +0.000 C 
ENDBRANCH   9  10
ENDBRANCH   6   9
ENDBRANCH   3   6
ENDBRANCH   1   3
BRANCH   1  13
ATOM     13  C   UNL     1       5.420   3.846  16.273  0.00  0.00    +0.000 C 
BRANCH  13  14
ATOM     14  C   UNL     1       6.667   4.733  16.240  0.00  0.00    +0.000 C 
ATOM     15  C   UNL     1       7.542   4.552  17.473  0.00  0.00    +0.000 C 
ATOM     16  C   UNL     1       7.024   5.610  18.425  0.00  0.00    +0.000 C 
ATOM     17  N   UNL     1       6.727   6.767  17.564  0.00  0.00    +0.000 NA
ATOM     18  C   UNL     1       6.267   6.213  16.279  0.00  0.00    +0.000 C 
BRANCH  17  19
ATOM     19  C   UNL     1       7.880   7.676  17.420  0.00  0.00    +0.000 C 
ATOM     20  C   UNL     1       7.728   9.142  17.726  0.00  0.00    +0.000 C 
ATOM     21  C   UNL     1       8.480   8.256  18.672  0.00  0.00    +0.000 C 
ENDBRANCH  17  19
ENDBRANCH  13  14
ENDBRANCH   1  13
TORSDOF 7
ENDMDL
MODEL 2
REMARK VINA RESULT:      -6.1      1.973      3.570
REMARK  Name = 
REMARK  9 active torsions:
REMARK  status: ('A' for Active; 'I' for Inactive)
REMARK    1  A    between atoms: C_1  and  C_2
REMARK    2  A    between atoms: C_2  and  C_3
REMARK    3  A    between atoms: C_2  and  N_6
REMARK    4  A    between atoms: N_6  and  C_7
REMARK    5  A    between atoms: N_6  and  S_8
REMARK    6  A    between atoms: S_8  and  N_11
REMARK    7  A    between atoms: N_11  and  C_12
REMARK    8  A    between atoms: C_12  and  C_13
REMARK    9  A    between atoms: N_16  and  C_17
REMARK                            x       y       z     vdW  Elec       q    Type
REMARK                         _______ _______ _______ _____ _____    ______ ____
ROOT
ATOM      1  N   UNL     1       4.921   5.232  17.482  0.00  0.00    +0.000 NA
ATOM      2  H   UNL     1       4.617   6.202  17.453  0.00  0.00    +0.000 HD
ENDROOT
BRANCH   1   3
ATOM      3  S   UNL     1       4.290   4.549  18.889  0.00  0.00    +0.000 S 
ATOM      4  O   UNL     1       5.051   5.155  19.958  0.00  0.00    +0.000 OA
ATOM      5  O   UNL     1       4.233   3.111  18.716  0.00  0.00    +0.000 OA
BRANCH   3   6
ATOM      6  N   UNL     1       2.714   5.163  18.932  0.00  0.00    +0.000 NA
ATOM      7  C   UNL     1       2.458   6.378  18.137  0.00  0.00    +0.000 C 
BRANCH   6   9
ATOM      8  C   UNL     1       1.660   6.611  20.728  0.00  0.00    +0.000 C 
ATOM      9  C   UNL     1       2.154   5.212  20.333  0.00  0.00    +0.000 C 
BRANCH   9  10
ATOM     10  C   UNL     1       1.016   4.229  20.519  0.00  0.00    +0.000 C 
ATOM     11  C   UNL     1       0.878   2.973  19.697  0.00  0.00    +0.000 C 
ATOM     12  C   UNL     1       1.299   2.878  21.135  0.00  0.00    +0.000 C 
ENDBRANCH   9  10
ENDBRANCH   6   9
ENDBRANCH   3   6
ENDBRANCH   1   3
BRANCH   1  13
ATOM     13  C   UNL     1       6.414   5.221  17.474  0.00  0.00    +0.000 C 
BRANCH  13  14
ATOM     14  C   UNL     1       6.917   4.314  16.347  0.00  0.00    +0.000 C 
ATOM     15  C   UNL     1       7.659   5.088  15.266  0.00  0.00    +0.000 C 
ATOM     16  C   UNL     1       6.567   5.428  14.273  0.00  0.00    +0.000 C 
ATOM     17  N   UNL     1       5.709   4.232  14.244  0.00  0.00    +0.000 NA
ATOM     18  C   UNL     1       5.734   3.679  15.609  0.00  0.00    +0.000 C 
BRANCH  17  19
ATOM     19  C   UNL     1       6.130   3.258  13.220  0.00  0.00    +0.000 C 
ATOM     20  C   UNL     1       5.387   3.168  11.913  0.00  0.00    +0.000 C 
ATOM     21  C   UNL     1       6.749   3.791  11.955  0.00  0.00    +0.000 C 
ENDBRANCH  17  19
ENDBRANCH  13  14
ENDBRANCH   1  13
TORSDOF 7
ENDMDL
MODEL 3
REMARK VINA RESULT:      -5.9      2.172      3.596
REMARK  Name = 
REMARK  9 active torsions:
REMARK  status: ('A' for Active; 'I' for Inactive)
REMARK    1  A    between atoms: C_1  and  C_2
REMARK    2  A    between atoms: C_2  and  C_3
REMARK    3  A    between atoms: C_2  and  N_6
REMARK    4  A    between atoms: N_6  and  C_7
REMARK    5  A    between atoms: N_6  and  S_8
REMARK    6  A    between atoms: S_8  and  N_11
REMARK    7  A    between atoms: N_11  and  C_12
REMARK    8  A    between atoms: C_12  and  C_13
REMARK    9  A    between atoms: N_16  and  C_17
REMARK                            x       y       z     vdW  Elec       q    Type
REMARK                         _______ _______ _______ _____ _____    ______ ____
ROOT
ATOM      1  N   UNL     1       5.096   3.702  18.527  0.00  0.00    +0.000 NA
ATOM      2  H   UNL     1       6.082   3.451  18.565  0.00  0.00    +0.000 HD
ENDROOT
BRANCH   1   3
ATOM      3  S   UNL     1       4.238   2.497  19.335  0.00  0.00    +0.000 S 
ATOM      4  O   UNL     1       5.186   1.948  20.278  0.00  0.00    +0.000 OA
ATOM      5  O   UNL     1       3.576   1.665  18.350  0.00  0.00    +0.000 OA
BRANCH   3   6
ATOM      6  N   UNL     1       3.071   3.373  20.191  0.00  0.00    +0.000 NA
ATOM      7  C   UNL     1       2.630   2.802  21.477  0.00  0.00    +0.000 C 
BRANCH   6   9
ATOM      8  C   UNL     1       0.601   3.181  19.644  0.00  0.00    +0.000 C 
ATOM      9  C   UNL     1       1.943   3.847  19.306  0.00  0.00    +0.000 C 
BRANCH   9  10
ATOM     10  C   UNL     1       1.766   5.350  19.376  0.00  0.00    +0.000 C 
ATOM     11  C   UNL     1       2.907   6.296  19.654  0.00  0.00    +0.000 C 
ATOM     12  C   UNL     1       2.330   6.213  18.271  0.00  0.00    +0.000 C 
ENDBRANCH   9  10
ENDBRANCH   6   9
ENDBRANCH   3   6
ENDBRANCH   1   3
BRANCH   1  13
ATOM     13  C   UNL     1       4.706   3.802  17.090  0.00  0.00    +0.000 C 
BRANCH  13  14
ATOM     14  C   UNL     1       5.926   3.534  16.204  0.00  0.00    +0.000 C 
ATOM     15  C   UNL     1       7.134   4.365  16.613  0.00  0.00    +0.000 C 
ATOM     16  C   UNL     1       7.003   5.610  15.760  0.00  0.00    +0.000 C 
ATOM     17  N   UNL     1       6.513   5.118  14.461  0.00  0.00    +0.000 NA
ATOM     18  C   UNL     1       5.640   3.970  14.763  0.00  0.00    +0.000 C 
BRANCH  17  19
ATOM     19  C   UNL     1       7.609   4.781  13.534  0.00  0.00    +0.000 C 
ATOM     20  C   UNL     1       7.353   4.725  12.051  0.00  0.00    +0.000 C 
ATOM     21  C   UNL     1       8.128   5.869  12.632  0.00  0.00    +0.000 C 
ENDBRANCH  17  19
ENDBRANCH  13  14
ENDBRANCH   1  13
TORSDOF 7
ENDMDL
MODEL 4
REMARK VINA RESULT:      -5.8      3.192      5.292
REMARK  Name = 
REMARK  9 active torsions:
REMARK  status: ('A' for Active; 'I' for Inactive)
REMARK    1  A    between atoms: C_1  and  C_2
REMARK    2  A    between atoms: C_2  and  C_3
REMARK    3  A    between atoms: C_2  and  N_6
REMARK    4  A    between atoms: N_6  and  C_7
REMARK    5  A    between atoms: N_6  and  S_8
REMARK    6  A    between atoms: S_8  and  N_11
REMARK    7  A    between atoms: N_11  and  C_12
REMARK    8  A    between atoms: C_12  and  C_13
REMARK    9  A    between atoms: N_16  and  C_17
REMARK                            x       y       z     vdW  Elec       q    Type
REMARK                         _______ _______ _______ _____ _____    ______ ____
ROOT
ATOM      1  N   UNL     1       3.923   5.966  19.600  0.00  0.00    +0.000 NA
ATOM      2  H   UNL     1       4.532   6.467  20.243  0.00  0.00    +0.000 HD
ENDROOT
BRANCH   1   3
ATOM      3  S   UNL     1       4.783   4.635  19.026  0.00  0.00    +0.000 S 
ATOM      4  O   UNL     1       6.021   4.655  19.773  0.00  0.00    +0.000 OA
ATOM      5  O   UNL     1       4.768   4.668  17.577  0.00  0.00    +0.000 OA
BRANCH   3   6
ATOM      6  N   UNL     1       3.852   3.326  19.558  0.00  0.00    +0.000 NA
ATOM      7  C   UNL     1       4.566   2.053  19.770  0.00  0.00    +0.000 C 
BRANCH   6   9
ATOM      8  C   UNL     1       2.568   1.999  17.818  0.00  0.00    +0.000 C 
ATOM      9  C   UNL     1       2.560   3.189  18.789  0.00  0.00    +0.000 C 
BRANCH   9  10
ATOM     10  C   UNL     1       1.368   3.048  19.714  0.00  0.00    +0.000 C 
ATOM     11  C   UNL     1       1.474   3.183  21.211  0.00  0.00    +0.000 C 
ATOM     12  C   UNL     1       0.823   4.274  20.411  0.00  0.00    +0.000 C 
ENDBRANCH   9  10
ENDBRANCH   6   9
ENDBRANCH   3   6
ENDBRANCH   1   3
BRANCH   1  13
ATOM     13  C   UNL     1       3.545   6.906  18.504  0.00  0.00    +0.000 C 
BRANCH  13  14
ATOM     14  C   UNL     1       2.068   7.285  18.634  0.00  0.00    +0.000 C 
ATOM     15  C   UNL     1       1.653   8.359  17.638  0.00  0.00    +0.000 C 
ATOM     16  C   UNL     1       1.874   9.647  18.405  0.00  0.00    +0.000 C 
ATOM     17  N   UNL     1       1.452   9.334  19.781  0.00  0.00    +0.000 NA
ATOM     18  C   UNL     1       1.802   7.920  20.003  0.00  0.00    +0.000 C 
BRANCH  17  19
ATOM     19  C   UNL     1       0.023   9.617  20.012  0.00  0.00    +0.000 C 
ATOM     20  C   UNL     1      -0.387  10.819  20.822  0.00  0.00    +0.000 C 
ATOM     21  C   UNL     1      -0.574  10.821  19.335  0.00  0.00    +0.000 C 
ENDBRANCH  17  19
ENDBRANCH  13  14
ENDBRANCH   1  13
TORSDOF 7
ENDMDL
MODEL 5
REMARK VINA RESULT:      -5.8      2.265      4.008
REMARK  Name = 
REMARK  9 active torsions:
REMARK  status: ('A' for Active; 'I' for Inactive)
REMARK    1  A    between atoms: C_1  and  C_2
REMARK    2  A    between atoms: C_2  and  C_3
REMARK    3  A    between atoms: C_2  and  N_6
REMARK    4  A    between atoms: N_6  and  C_7
REMARK    5  A    between atoms: N_6  and  S_8
REMARK    6  A    between atoms: S_8  and  N_11
REMARK    7  A    between atoms: N_11  and  C_12
REMARK    8  A    between atoms: C_12  and  C_13
REMARK    9  A    between atoms: N_16  and  C_17
REMARK                            x       y       z     vdW  Elec       q    Type
REMARK                         _______ _______ _______ _____ _____    ______ ____
ROOT
ATOM      1  N   UNL     1       6.149   4.070  17.775  0.00  0.00    +0.000 NA
ATOM      2  H   UNL     1       5.640   3.744  16.956  0.00  0.00    +0.000 HD
ENDROOT
BRANCH   1   3
ATOM      3  S   UNL     1       5.060   4.113  19.061  0.00  0.00    +0.000 S 
ATOM      4  O   UNL     1       5.313   5.381  19.707  0.00  0.00    +0.000 OA
ATOM      5  O   UNL     1       5.150   2.860  19.782  0.00  0.00    +0.000 OA
BRANCH   3   6
ATOM      6  N   UNL     1       3.560   4.195  18.282  0.00  0.00    +0.000 NA
ATOM      7  C   UNL     1       2.994   5.542  18.080  0.00  0.00    +0.000 C 
BRANCH   6   9
ATOM      8  C   UNL     1       2.829   1.766  18.300  0.00  0.00    +0.000 C 
ATOM      9  C   UNL     1       2.575   3.187  18.823  0.00  0.00    +0.000 C 
BRANCH   9  10
ATOM     10  C   UNL     1       2.581   3.151  20.338  0.00  0.00    +0.000 C 
ATOM     11  C   UNL     1       2.052   4.281  21.184  0.00  0.00    +0.000 C 
ATOM     12  C   UNL     1       1.272   3.002  21.079  0.00  0.00    +0.000 C 
ENDBRANCH   9  10
ENDBRANCH   6   9
ENDBRANCH   3   6
ENDBRANCH   1   3
BRANCH   1  13
ATOM     13  C   UNL     1       6.700   5.422  17.461  0.00  0.00    +0.000 C 
BRANCH  13  14
ATOM     14  C   UNL     1       6.742   5.622  15.943  0.00  0.00    +0.000 C 
ATOM     15  C   UNL     1       5.362   5.872  15.352  0.00  0.00    +0.000 C 
ATOM     16  C   UNL     1       4.885   4.483  14.983  0.00  0.00    +0.000 C 
ATOM     17  N   UNL     1       6.089   3.802  14.475  0.00  0.00    +0.000 NA
ATOM     18  C   UNL     1       7.219   4.340  15.252  0.00  0.00    +0.000 C 
BRANCH  17  19
ATOM     19  C   UNL     1       6.260   3.967  13.020  0.00  0.00    +0.000 C 
ATOM     20  C   UNL     1       6.370   2.756  12.131  0.00  0.00    +0.000 C 
ATOM     21  C   UNL     1       5.114   3.573  12.127  0.00  0.00    +0.000 C 
ENDBRANCH  17  19
ENDBRANCH  13  14
ENDBRANCH   1  13
TORSDOF 7
ENDMDL
MODEL 6
REMARK VINA RESULT:      -5.8      1.582      2.384
REMARK  Name = 
REMARK  9 active torsions:
REMARK  status: ('A' for Active; 'I' for Inactive)
REMARK    1  A    between atoms: C_1  and  C_2
REMARK    2  A    between atoms: C_2  and  C_3
REMARK    3  A    between atoms: C_2  and  N_6
REMARK    4  A    between atoms: N_6  and  C_7
REMARK    5  A    between atoms: N_6  and  S_8
REMARK    6  A    between atoms: S_8  and  N_11
REMARK    7  A    between atoms: N_11  and  C_12
REMARK    8  A    between atoms: C_12  and  C_13
REMARK    9  A    between atoms: N_16  and  C_17
REMARK                            x       y       z     vdW  Elec       q    Type
REMARK                         _______ _______ _______ _____ _____    ______ ____
ROOT
ATOM      1  N   UNL     1       3.037   3.261  16.963  0.00  0.00    +0.000 NA
ATOM      2  H   UNL     1       2.287   3.229  16.276  0.00  0.00    +0.000 HD
ENDROOT
BRANCH   1   3
ATOM      3  S   UNL     1       2.579   2.278  18.254  0.00  0.00    +0.000 S 
ATOM      4  O   UNL     1       3.429   1.115  18.143  0.00  0.00    +0.000 OA
ATOM      5  O   UNL     1       1.134   2.168  18.257  0.00  0.00    +0.000 OA
BRANCH   3   6
ATOM      6  N   UNL     1       3.067   3.177  19.603  0.00  0.00    +0.000 NA
ATOM      7  C   UNL     1       4.232   2.666  20.348  0.00  0.00    +0.000 C 
BRANCH   6   9
ATOM      8  C   UNL     1       1.652   2.596  21.626  0.00  0.00    +0.000 C 
ATOM      9  C   UNL     1       1.903   3.581  20.476  0.00  0.00    +0.000 C 
BRANCH   9  10
ATOM     10  C   UNL     1       2.094   4.966  21.060  0.00  0.00    +0.000 C 
ATOM     11  C   UNL     1       2.635   6.124  20.261  0.00  0.00    +0.000 C 
ATOM     12  C   UNL     1       1.179   6.086  20.621  0.00  0.00    +0.000 C 
ENDBRANCH   9  10
ENDBRANCH   6   9
ENDBRANCH   3   6
ENDBRANCH   1   3
BRANCH   1  13
ATOM     13  C   UNL     1       3.217   4.684  17.376  0.00  0.00    +0.000 C 
BRANCH  13  14
ATOM     14  C   UNL     1       4.502   5.243  16.759  0.00  0.00    +0.000 C 
ATOM     15  C   UNL     1       5.668   4.270  16.867  0.00  0.00    +0.000 C 
ATOM     16  C   UNL     1       6.328   4.664  18.172  0.00  0.00    +0.000 C 
ATOM     17  N   UNL     1       6.237   6.133  18.204  0.00  0.00    +0.000 NA
ATOM     18  C   UNL     1       4.970   6.478  17.536  0.00  0.00    +0.000 C 
BRANCH  17  19
ATOM     19  C   UNL     1       7.408   6.786  17.590  0.00  0.00    +0.000 C 
ATOM     20  C   UNL     1       7.499   8.288  17.548  0.00  0.00    +0.000 C 
ATOM     21  C   UNL     1       8.364   7.515  18.496  0.00  0.00    +0.000 C 
ENDBRANCH  17  19
ENDBRANCH  13  14
ENDBRANCH   1  13
TORSDOF 7
ENDMDL
MODEL 7
REMARK VINA RESULT:      -5.8      4.483      6.743
REMARK  Name = 
REMARK  9 active torsions:
REMARK  status: ('A' for Active; 'I' for Inactive)
REMARK    1  A    between atoms: C_1  and  C_2
REMARK    2  A    between atoms: C_2  and  C_3
REMARK    3  A    between atoms: C_2  and  N_6
REMARK    4  A    between atoms: N_6  and  C_7
REMARK    5  A    between atoms: N_6  and  S_8
REMARK    6  A    between atoms: S_8  and  N_11
REMARK    7  A    between atoms: N_11  and  C_12
REMARK    8  A    between atoms: C_12  and  C_13
REMARK    9  A    between atoms: N_16  and  C_17
REMARK                            x       y       z     vdW  Elec       q    Type
REMARK                         _______ _______ _______ _____ _____    ______ ____
ROOT
ATOM      1  N   UNL     1       1.799   8.007  21.352  0.00  0.00    +0.000 NA
ATOM      2  H   UNL     1       2.390   7.760  22.144  0.00  0.00    +0.000 HD
ENDROOT
BRANCH   1   3
ATOM      3  S   UNL     1       0.697   9.164  21.888  0.00  0.00    +0.000 S 
ATOM      4  O   UNL     1       1.301   9.715  23.081  0.00  0.00    +0.000 OA
ATOM      5  O   UNL     1      -0.623   8.566  21.910  0.00  0.00    +0.000 OA
BRANCH   3   6
ATOM      6  N   UNL     1       0.753  10.333  20.666  0.00  0.00    +0.000 NA
ATOM      7  C   UNL     1       0.626  11.739  21.093  0.00  0.00    +0.000 C 
BRANCH   6   9
ATOM      8  C   UNL     1      -1.340  10.870  19.338  0.00  0.00    +0.000 C 
ATOM      9  C   UNL     1      -0.106   9.968  19.480  0.00  0.00    +0.000 C 
BRANCH   9  10
ATOM     10  C   UNL     1       0.677  10.013  18.183  0.00  0.00    +0.000 C 
ATOM     11  C   UNL     1       2.182  10.061  18.137  0.00  0.00    +0.000 C 
ATOM     12  C   UNL     1       1.467   8.799  17.752  0.00  0.00    +0.000 C 
ENDBRANCH   9  10
ENDBRANCH   6   9
ENDBRANCH   3   6
ENDBRANCH   1   3
BRANCH   1  13
ATOM     13  C   UNL     1       1.122   6.762  20.883  0.00  0.00    +0.000 C 
BRANCH  13  14
ATOM     14  C   UNL     1       2.159   5.652  20.689  0.00  0.00    +0.000 C 
ATOM     15  C   UNL     1       3.115   5.944  19.541  0.00  0.00    +0.000 C 
ATOM     16  C   UNL     1       2.442   5.286  18.354  0.00  0.00    +0.000 C 
ATOM     17  N   UNL     1       1.871   4.042  18.896  0.00  0.00    +0.000 NA
ATOM     18  C   UNL     1       1.468   4.347  20.280  0.00  0.00    +0.000 C 
BRANCH  17  19
ATOM     19  C   UNL     1       2.805   2.904  18.805  0.00  0.00    +0.000 C 
ATOM     20  C   UNL     1       2.648   1.884  17.709  0.00  0.00    +0.000 C 
ATOM     21  C   UNL     1       3.770   2.877  17.650  0.00  0.00    +0.000 C 
ENDBRANCH  17  19
ENDBRANCH  13  14
ENDBRANCH   1  13
TORSDOF 7
ENDMDL
MODEL 8
REMARK VINA RESULT:      -5.8      2.217      3.850
REMARK  Name = 
REMARK  9 active torsions:
REMARK  status: ('A' for Active; 'I' for Inactive)
REMARK    1  A    between atoms: C_1  and  C_2
REMARK    2  A    between atoms: C_2  and  C_3
REMARK    3  A    between atoms: C_2  and  N_6
REMARK    4  A    between atoms: N_6  and  C_7
REMARK    5  A    between atoms: N_6  and  S_8
REMARK    6  A    between atoms: S_8  and  N_11
REMARK    7  A    between atoms: N_11  and  C_12
REMARK    8  A    between atoms: C_12  and  C_13
REMARK    9  A    between atoms: N_16  and  C_17
REMARK                            x       y       z     vdW  Elec       q    Type
REMARK                         _______ _______ _______ _____ _____    ______ ____
ROOT
ATOM      1  N   UNL     1       5.788   3.639  17.811  0.00  0.00    +0.000 NA
ATOM      2  H   UNL     1       5.132   3.574  17.036  0.00  0.00    +0.000 HD
ENDROOT
BRANCH   1   3
ATOM      3  S   UNL     1       4.884   3.813  19.223  0.00  0.00    +0.000 S 
ATOM      4  O   UNL     1       5.188   5.149  19.685  0.00  0.00    +0.000 OA
ATOM      5  O   UNL     1       5.107   2.650  20.058  0.00  0.00    +0.000 OA
BRANCH   3   6
ATOM      6  N   UNL     1       3.290   3.788  18.656  0.00  0.00    +0.000 NA
ATOM      7  C   UNL     1       3.112   3.709  17.194  0.00  0.00    +0.000 C 
BRANCH   6   9
ATOM      8  C   UNL     1       1.911   5.896  18.354  0.00  0.00    +0.000 C 
ATOM      9  C   UNL     1       2.423   4.825  19.328  0.00  0.00    +0.000 C 
BRANCH   9  10
ATOM     10  C   UNL     1       1.232   4.198  20.024  0.00  0.00    +0.000 C 
ATOM     11  C   UNL     1       1.030   2.707  20.116  0.00  0.00    +0.000 C 
ATOM     12  C   UNL     1       1.437   3.478  21.337  0.00  0.00    +0.000 C 
ENDBRANCH   9  10
ENDBRANCH   6   9
ENDBRANCH   3   6
ENDBRANCH   1   3
BRANCH   1  13
ATOM     13  C   UNL     1       6.671   4.817  17.562  0.00  0.00    +0.000 C 
BRANCH  13  14
ATOM     14  C   UNL     1       7.104   4.836  16.093  0.00  0.00    +0.000 C 
ATOM     15  C   UNL     1       6.486   5.992  15.320  0.00  0.00    +0.000 C 
ATOM     16  C   UNL     1       5.213   5.393  14.759  0.00  0.00    +0.000 C 
ATOM     17  N   UNL     1       5.586   4.019  14.385  0.00  0.00    +0.000 NA
ATOM     18  C   UNL     1       6.590   3.585  15.373  0.00  0.00    +0.000 C 
BRANCH  17  19
ATOM     19  C   UNL     1       6.067   3.921  12.994  0.00  0.00    +0.000 C 
ATOM     20  C   UNL     1       5.943   2.623  12.242  0.00  0.00    +0.000 C 
ATOM     21  C   UNL     1       5.040   3.770  11.903  0.00  0.00    +0.000 C 
ENDBRANCH  17  19
ENDBRANCH  13  14
ENDBRANCH   1  13
TORSDOF 7
ENDMDL
MODEL 9
REMARK VINA RESULT:      -5.7      2.354      3.936
REMARK  Name = 
REMARK  9 active torsions:
REMARK  status: ('A' for Active; 'I' for Inactive)
REMARK    1  A    between atoms: C_1  and  C_2
REMARK    2  A    between atoms: C_2  and  C_3
REMARK    3  A    between atoms: C_2  and  N_6
REMARK    4  A    between atoms: N_6  and  C_7
REMARK    5  A    between atoms: N_6  and  S_8
REMARK    6  A    between atoms: S_8  and  N_11
REMARK    7  A    between atoms: N_11  and  C_12
REMARK    8  A    between atoms: C_12  and  C_13
REMARK    9  A    between atoms: N_16  and  C_17
REMARK                            x       y       z     vdW  Elec       q    Type
REMARK                         _______ _______ _______ _____ _____    ______ ____
ROOT
ATOM      1  N   UNL     1       5.144   5.265  18.672  0.00  0.00    +0.000 NA
ATOM      2  H   UNL     1       5.363   4.276  18.767  0.00  0.00    +0.000 HD
ENDROOT
BRANCH   1   3
ATOM      3  S   UNL     1       3.471   5.425  18.806  0.00  0.00    +0.000 S 
ATOM      4  O   UNL     1       3.033   5.774  17.473  0.00  0.00    +0.000 OA
ATOM      5  O   UNL     1       3.179   6.269  19.947  0.00  0.00    +0.000 OA
BRANCH   3   6
ATOM      6  N   UNL     1       2.966   3.846  19.144  0.00  0.00    +0.000 NA
ATOM      7  C   UNL     1       3.508   2.782  18.278  0.00  0.00    +0.000 C 
BRANCH   6   9
ATOM      8  C   UNL     1       0.832   2.571  18.645  0.00  0.00    +0.000 C 
ATOM      9  C   UNL     1       1.478   3.755  19.377  0.00  0.00    +0.000 C 
BRANCH   9  10
ATOM     10  C   UNL     1       1.145   3.650  20.852  0.00  0.00    +0.000 C 
ATOM     11  C   UNL     1       1.379   2.396  21.656  0.00  0.00    +0.000 C 
ATOM     12  C   UNL     1       2.269   3.588  21.861  0.00  0.00    +0.000 C 
ENDBRANCH   9  10
ENDBRANCH   6   9
ENDBRANCH   3   6
ENDBRANCH   1   3
BRANCH   1  13
ATOM     13  C   UNL     1       5.646   5.718  17.341  0.00  0.00    +0.000 C 
BRANCH  13  14
ATOM     14  C   UNL     1       6.030   4.502  16.494  0.00  0.00    +0.000 C 
ATOM     15  C   UNL     1       7.408   4.645  15.863  0.00  0.00    +0.000 C 
ATOM     16  C   UNL     1       7.111   5.274  14.518  0.00  0.00    +0.000 C 
ATOM     17  N   UNL     1       5.864   4.626  14.075  0.00  0.00    +0.000 NA
ATOM     18  C   UNL     1       5.082   4.369  15.297  0.00  0.00    +0.000 C 
BRANCH  17  19
ATOM     19  C   UNL     1       6.111   3.407  13.282  0.00  0.00    +0.000 C 
ATOM     20  C   UNL     1       5.391   3.198  11.976  0.00  0.00    +0.000 C 
ATOM     21  C   UNL     1       6.847   3.554  11.977  0.00  0.00    +0.000 C 
ENDBRANCH  17  19
ENDBRANCH  13  14
ENDBRANCH   1  13
TORSDOF 7
ENDMDL
