MODEL 1
REMARK VINA RESULT:      -8.2      0.000      0.000
REMARK  Name = 
REMARK  12 active torsions:
REMARK  status: ('A' for Active; 'I' for Inactive)
REMARK    1  A    between atoms: C_1  and  C_2
REMARK    2  A    between atoms: C_2  and  C_3
REMARK    3  A    between atoms: C_3  and  C_4
REMARK    4  A    between atoms: C_4  and  O_5
REMARK    5  A    between atoms: O_5  and  P_6
REMARK    6  A    between atoms: P_6  and  O_8
REMARK    7  A    between atoms: P_6  and  O_13
REMARK    8  A    between atoms: O_8  and  C_9
REMARK    9  A    between atoms: C_9  and  C_10
REMARK   10  A    between atoms: C_10  and  C_11
REMARK   11  A    between atoms: C_11  and  C_12
REMARK   12  A    between atoms: O_13  and  N_14
REMARK                            x       y       z     vdW  Elec       q    Type
REMARK                         _______ _______ _______ _____ _____    ______ ____
ROOT
ATOM      1  O   UNL     1       6.236   5.894  18.416  0.00  0.00    +0.000 OA
ENDROOT
BRANCH   1   2
ATOM      2  N   UNL     1       4.898   5.482  18.587  0.00  0.00    +0.000 N 
ATOM      3  C   UNL     1       3.988   6.150  17.800  0.00  0.00    +0.000 A 
ATOM      4  O   UNL     1       4.236   7.166  17.157  0.00  0.00    +0.000 OA
ATOM      5  N   UNL     1       2.726   5.610  17.770  0.00  0.00    +0.000 N 
ATOM      6  C   UNL     1       2.409   4.381  18.359  0.00  0.00    +0.000 A 
ATOM      7  C   UNL     1       1.120   3.864  18.231  0.00  0.00    +0.000 A 
ATOM      8  C   UNL     1       0.830   2.596  18.733  0.00  0.00    +0.000 A 
ATOM      9  C   UNL     1       1.828   1.845  19.361  0.00  0.00    +0.000 A 
ATOM     10  C   UNL     1       3.111   2.373  19.514  0.00  0.00    +0.000 A 
ATOM     11  C   UNL     1       3.397   3.649  19.020  0.00  0.00    +0.000 A 
ATOM     12  C   UNL     1       4.759   4.219  19.134  0.00  0.00    +0.000 A 
ATOM     13  O   UNL     1       5.660   3.562  19.650  0.00  0.00    +0.000 OA
ATOM     14  H   UNL     1       2.048   6.094  17.192  0.00  0.00    +0.000 HD
ENDBRANCH   1   2
BRANCH   1  15
ATOM     15  P   UNL     1       6.940   5.356  16.929  0.00  0.00    +0.000 P 
ATOM     16  O   UNL     1       7.882   4.437  17.721  0.00  0.00    +0.000 OA
BRANCH  15  17
ATOM     17  O   UNL     1       7.643   4.818  15.443  0.00  0.00    +0.000 OA
BRANCH  17  18
ATOM     18  C   UNL     1       7.064   4.908  14.161  0.00  0.00    +0.000 C 
BRANCH  18  19
ATOM     19  C   UNL     1       6.158   3.741  13.751  0.00  0.00    +0.000 C 
BRANCH  19  21
ATOM     20  C   UNL     1       5.309   2.583  11.598  0.00  0.00    +0.000 C 
ATOM     21  C   UNL     1       6.331   3.506  12.239  0.00  0.00    +0.000 C 
ENDBRANCH  19  21
ENDBRANCH  18  19
ENDBRANCH  17  18
ENDBRANCH  15  17
BRANCH  15  22
ATOM     22  O   UNL     1       7.696   6.799  16.680  0.00  0.00    +0.000 OA
BRANCH  22  23
ATOM     23  C   UNL     1       7.377   7.958  17.436  0.00  0.00    +0.000 C 
BRANCH  23  24
ATOM     24  C   UNL     1       8.489   8.500  18.346  0.00  0.00    +0.000 C 
BRANCH  24  25
ATOM     25  C   UNL     1       8.582  10.025  18.176  0.00  0.00    +0.000 C 
ATOM     26  C   UNL     1       9.683  10.704  18.969  0.00  0.00    +0.000 C 
ENDBRANCH  24  25
ENDBRANCH  23  24
ENDBRANCH  22  23
ENDBRANCH  15  22
ENDBRANCH   1  15
TORSDOF 10
ENDMDL
MODEL 2
REMARK VINA RESULT:      -7.7      1.361      5.066
REMARK  Name = 
REMARK  12 active torsions:
REMARK  status: ('A' for Active; 'I' for Inactive)
REMARK    1  A    between atoms: C_1  and  C_2
REMARK    2  A    between atoms: C_2  and  C_3
REMARK    3  A    between atoms: C_3  and  C_4
REMARK    4  A    between atoms: C_4  and  O_5
REMARK    5  A    between atoms: O_5  and  P_6
REMARK    6  A    between atoms: P_6  and  O_8
REMARK    7  A    between atoms: P_6  and  O_13
REMARK    8  A    between atoms: O_8  and  C_9
REMARK    9  A    between atoms: C_9  and  C_10
REMARK   10  A    between atoms: C_10  and  C_11
REMARK   11  A    between atoms: C_11  and  C_12
REMARK   12  A    between atoms: O_13  and  N_14
REMARK                            x       y       z     vdW  Elec       q    Type
REMARK                         _______ _______ _______ _____ _____    ______ ____
ROOT
ATOM      1  O   UNL     1       5.225   5.595  17.125  0.00  0.00    +0.000 OA
ENDROOT
BRANCH   1   2
ATOM      2  N   UNL     1       4.350   5.403  18.214  0.00  0.00    +0.000 N 
ATOM      3  C   UNL     1       3.194   6.149  18.158  0.00  0.00    +0.000 A 
ATOM      4  O   UNL     1       2.997   7.071  17.373  0.00  0.00    +0.000 OA
ATOM      5  N   UNL     1       2.227   5.805  19.070  0.00  0.00    +0.000 N 
ATOM      6  C   UNL     1       2.324   4.681  19.897  0.00  0.00    +0.000 A 
ATOM      7  C   UNL     1       1.271   4.358  20.753  0.00  0.00    +0.000 A 
ATOM      8  C   UNL     1       1.324   3.184  21.504  0.00  0.00    +0.000 A 
ATOM      9  C   UNL     1       2.429   2.333  21.398  0.00  0.00    +0.000 A 
ATOM     10  C   UNL     1       3.495   2.669  20.562  0.00  0.00    +0.000 A 
ATOM     11  C   UNL     1       3.445   3.852  19.818  0.00  0.00    +0.000 A 
ATOM     12  C   UNL     1       4.544   4.215  18.895  0.00  0.00    +0.000 A 
ATOM     13  O   UNL     1       5.507   3.464  18.759  0.00  0.00    +0.000 OA
ATOM     14  H   UNL     1       1.372   6.348  19.037  0.00  0.00    +0.000 HD
ENDBRANCH   1   2
BRANCH   1  15
ATOM     15  P   UNL     1       6.610   6.557  17.513  0.00  0.00    +0.000 P 
ATOM     16  O   UNL     1       6.180   7.584  16.456  0.00  0.00    +0.000 OA
BRANCH  15  17
ATOM     17  O   UNL     1       7.995   7.518  17.902  0.00  0.00    +0.000 OA
BRANCH  17  18
ATOM     18  C   UNL     1       8.090   8.922  17.820  0.00  0.00    +0.000 C 
BRANCH  18  19
ATOM     19  C   UNL     1       8.989   9.595  18.864  0.00  0.00    +0.000 C 
BRANCH  19  21
ATOM     20  C   UNL     1      10.751  11.490  18.901  0.00  0.00    +0.000 C 
ATOM     21  C   UNL     1       9.478  10.936  18.286  0.00  0.00    +0.000 C 
ENDBRANCH  19  21
ENDBRANCH  18  19
ENDBRANCH  17  18
ENDBRANCH  15  17
BRANCH  15  22
ATOM     22  O   UNL     1       7.645   5.481  16.813  0.00  0.00    +0.000 OA
BRANCH  22  23
ATOM     23  C   UNL     1       7.190   4.454  15.945  0.00  0.00    +0.000 C 
BRANCH  23  24
ATOM     24  C   UNL     1       7.053   4.831  14.463  0.00  0.00    +0.000 C 
BRANCH  24  25
ATOM     25  C   UNL     1       5.985   3.938  13.811  0.00  0.00    +0.000 C 
ATOM     26  C   UNL     1       6.267   3.524  12.379  0.00  0.00    +0.000 C 
ENDBRANCH  24  25
ENDBRANCH  23  24
ENDBRANCH  22  23
ENDBRANCH  15  22
ENDBRANCH   1  15
TORSDOF 10
ENDMDL
MODEL 3
REMARK VINA RESULT:      -7.3      1.389      2.222
REMARK  Name = 
REMARK  12 active torsions:
REMARK  status: ('A' for Active; 'I' for Inactive)
REMARK    1  A    between atoms: C_1  and  C_2
REMARK    2  A    between atoms: C_2  and  C_3
REMARK    3  A    between atoms: C_3  and  C_4
REMARK    4  A    between atoms: C_4  and  O_5
REMARK    5  A    between atoms: O_5  and  P_6
REMARK    6  A    between atoms: P_6  and  O_8
REMARK    7  A    between atoms: P_6  and  O_13
REMARK    8  A    between atoms: O_8  and  C_9
REMARK    9  A    between atoms: C_9  and  C_10
REMARK   10  A    between atoms: C_10  and  C_11
REMARK   11  A    between atoms: C_11  and  C_12
REMARK   12  A    between atoms: O_13  and  N_14
REMARK                            x       y       z     vdW  Elec       q    Type
REMARK                         _______ _______ _______ _____ _____    ______ ____
ROOT
ATOM      1  O   UNL     1       5.236   6.161  17.773  0.00  0.00    +0.000 OA
ENDROOT
BRANCH   1   2
ATOM      2  N   UNL     1       4.630   5.093  18.468  0.00  0.00    +0.000 N 
ATOM      3  C   UNL     1       5.433   4.497  19.414  0.00  0.00    +0.000 A 
ATOM      4  O   UNL     1       6.640   4.691  19.526  0.00  0.00    +0.000 OA
ATOM      5  N   UNL     1       4.796   3.625  20.262  0.00  0.00    +0.000 N 
ATOM      6  C   UNL     1       3.407   3.462  20.285  0.00  0.00    +0.000 A 
ATOM      7  C   UNL     1       2.826   2.606  21.221  0.00  0.00    +0.000 A 
ATOM      8  C   UNL     1       1.437   2.518  21.310  0.00  0.00    +0.000 A 
ATOM      9  C   UNL     1       0.630   3.287  20.465  0.00  0.00    +0.000 A 
ATOM     10  C   UNL     1       1.211   4.123  19.511  0.00  0.00    +0.000 A 
ATOM     11  C   UNL     1       2.604   4.202  19.415  0.00  0.00    +0.000 A 
ATOM     12  C   UNL     1       3.248   5.109  18.438  0.00  0.00    +0.000 A 
ATOM     13  O   UNL     1       2.558   5.820  17.711  0.00  0.00    +0.000 OA
ATOM     14  H   UNL     1       5.379   3.181  20.962  0.00  0.00    +0.000 HD
ENDBRANCH   1   2
BRANCH   1  15
ATOM     15  P   UNL     1       5.668   5.768  16.144  0.00  0.00    +0.000 P 
ATOM     16  O   UNL     1       5.948   4.322  16.579  0.00  0.00    +0.000 OA
BRANCH  15  17
ATOM     17  O   UNL     1       6.099   5.374  14.516  0.00  0.00    +0.000 OA
BRANCH  17  18
ATOM     18  C   UNL     1       5.602   4.299  13.754  0.00  0.00    +0.000 C 
BRANCH  18  19
ATOM     19  C   UNL     1       6.549   3.740  12.685  0.00  0.00    +0.000 C 
BRANCH  19  21
ATOM     20  C   UNL     1       4.346   3.216  11.430  0.00  0.00    +0.000 C 
ATOM     21  C   UNL     1       5.751   2.768  11.796  0.00  0.00    +0.000 C 
ENDBRANCH  19  21
ENDBRANCH  18  19
ENDBRANCH  17  18
ENDBRANCH  15  17
BRANCH  15  22
ATOM     22  O   UNL     1       7.072   6.627  16.231  0.00  0.00    +0.000 OA
BRANCH  22  23
ATOM     23  C   UNL     1       7.569   7.136  17.460  0.00  0.00    +0.000 C 
BRANCH  23  24
ATOM     24  C   UNL     1       7.902   8.634  17.487  0.00  0.00    +0.000 C 
BRANCH  24  25
ATOM     25  C   UNL     1       8.768   8.937  18.720  0.00  0.00    +0.000 C 
ATOM     26  C   UNL     1       9.111  10.399  18.934  0.00  0.00    +0.000 C 
ENDBRANCH  24  25
ENDBRANCH  23  24
ENDBRANCH  22  23
ENDBRANCH  15  22
ENDBRANCH   1  15
TORSDOF 10
ENDMDL
MODEL 4
REMARK VINA RESULT:      -7.1      4.056      6.647
REMARK  Name = 
REMARK  12 active torsions:
REMARK  status: ('A' for Active; 'I' for Inactive)
REMARK    1  A    between atoms: C_1  and  C_2
REMARK    2  A    between atoms: C_2  and  C_3
REMARK    3  A    between atoms: C_3  and  C_4
REMARK    4  A    between atoms: C_4  and  O_5
REMARK    5  A    between atoms: O_5  and  P_6
REMARK    6  A    between atoms: P_6  and  O_8
REMARK    7  A    between atoms: P_6  and  O_13
REMARK    8  A    between atoms: O_8  and  C_9
REMARK    9  A    between atoms: C_9  and  C_10
REMARK   10  A    between atoms: C_10  and  C_11
REMARK   11  A    between atoms: C_11  and  C_12
REMARK   12  A    between atoms: O_13  and  N_14
REMARK                            x       y       z     vdW  Elec       q    Type
REMARK                         _______ _______ _______ _____ _____    ______ ____
ROOT
ATOM      1  O   UNL     1       2.263   6.682  18.427  0.00  0.00    +0.000 OA
ENDROOT
BRANCH   1   2
ATOM      2  N   UNL     1       1.961   7.848  19.164  0.00  0.00    +0.000 N 
ATOM      3  C   UNL     1       1.807   8.983  18.400  0.00  0.00    +0.000 A 
ATOM      4  O   UNL     1       2.110   9.071  17.214  0.00  0.00    +0.000 OA
ATOM      5  N   UNL     1       1.282  10.067  19.057  0.00  0.00    +0.000 N 
ATOM      6  C   UNL     1       0.783  10.000  20.362  0.00  0.00    +0.000 A 
ATOM      7  C   UNL     1       0.204  11.129  20.942  0.00  0.00    +0.000 A 
ATOM      8  C   UNL     1      -0.381  11.037  22.204  0.00  0.00    +0.000 A 
ATOM      9  C   UNL     1      -0.387   9.816  22.887  0.00  0.00    +0.000 A 
ATOM     10  C   UNL     1       0.216   8.693  22.319  0.00  0.00    +0.000 A 
ATOM     11  C   UNL     1       0.812   8.790  21.058  0.00  0.00    +0.000 A 
ATOM     12  C   UNL     1       1.426   7.606  20.415  0.00  0.00    +0.000 A 
ATOM     13  O   UNL     1       1.399   6.515  20.981  0.00  0.00    +0.000 OA
ATOM     14  H   UNL     1       1.163  10.909  18.503  0.00  0.00    +0.000 HD
ENDBRANCH   1   2
BRANCH   1  15
ATOM     15  P   UNL     1       3.818   6.018  18.793  0.00  0.00    +0.000 P 
ATOM     16  O   UNL     1       4.326   6.481  17.421  0.00  0.00    +0.000 OA
BRANCH  15  17
ATOM     17  O   UNL     1       5.373   5.353  19.159  0.00  0.00    +0.000 OA
BRANCH  17  18
ATOM     18  C   UNL     1       6.472   5.262  18.283  0.00  0.00    +0.000 C 
BRANCH  18  19
ATOM     19  C   UNL     1       7.846   5.557  18.898  0.00  0.00    +0.000 C 
BRANCH  19  21
ATOM     20  C   UNL     1       7.545   7.661  17.419  0.00  0.00    +0.000 C 
ATOM     21  C   UNL     1       8.170   7.044  18.659  0.00  0.00    +0.000 C 
ENDBRANCH  19  21
ENDBRANCH  18  19
ENDBRANCH  17  18
ENDBRANCH  15  17
BRANCH  15  22
ATOM     22  O   UNL     1       3.269   4.469  18.658  0.00  0.00    +0.000 OA
BRANCH  22  23
ATOM     23  C   UNL     1       1.962   4.171  18.190  0.00  0.00    +0.000 C 
BRANCH  23  24
ATOM     24  C   UNL     1       1.082   3.333  19.129  0.00  0.00    +0.000 C 
BRANCH  24  25
ATOM     25  C   UNL     1       1.972   2.652  20.181  0.00  0.00    +0.000 C 
ATOM     26  C   UNL     1       1.463   2.720  21.609  0.00  0.00    +0.000 C 
ENDBRANCH  24  25
ENDBRANCH  23  24
ENDBRANCH  22  23
ENDBRANCH  15  22
ENDBRANCH   1  15
TORSDOF 10
ENDMDL
MODEL 5
REMARK VINA RESULT:      -7.1      2.527      6.844
REMARK  Name = 
REMARK  12 active torsions:
REMARK  status: ('A' for Active; 'I' for Inactive)
REMARK    1  A    between atoms: C_1  and  C_2
REMARK    2  A    between atoms: C_2  and  C_3
REMARK    3  A    between atoms: C_3  and  C_4
REMARK    4  A    between atoms: C_4  and  O_5
REMARK    5  A    between atoms: O_5  and  P_6
REMARK    6  A    between atoms: P_6  and  O_8
REMARK    7  A    between atoms: P_6  and  O_13
REMARK    8  A    between atoms: O_8  and  C_9
REMARK    9  A    between atoms: C_9  and  C_10
REMARK   10  A    between atoms: C_10  and  C_11
REMARK   11  A    between atoms: C_11  and  C_12
REMARK   12  A    between atoms: O_13  and  N_14
REMARK                            x       y       z     vdW  Elec       q    Type
REMARK                         _______ _______ _______ _____ _____    ______ ____
ROOT
ATOM      1  O   UNL     1       6.263   4.048  18.153  0.00  0.00    +0.000 OA
ENDROOT
BRANCH   1   2
ATOM      2  N   UNL     1       6.391   4.524  16.831  0.00  0.00    +0.000 N 
ATOM      3  C   UNL     1       7.338   5.509  16.666  0.00  0.00    +0.000 A 
ATOM      4  O   UNL     1       7.889   6.108  17.586  0.00  0.00    +0.000 OA
ATOM      5  N   UNL     1       7.648   5.815  15.365  0.00  0.00    +0.000 N 
ATOM      6  C   UNL     1       7.170   5.082  14.274  0.00  0.00    +0.000 A 
ATOM      7  C   UNL     1       7.581   5.412  12.982  0.00  0.00    +0.000 A 
ATOM      8  C   UNL     1       7.183   4.622  11.905  0.00  0.00    +0.000 A 
ATOM      9  C   UNL     1       6.374   3.501  12.119  0.00  0.00    +0.000 A 
ATOM     10  C   UNL     1       5.939   3.186  13.407  0.00  0.00    +0.000 A 
ATOM     11  C   UNL     1       6.330   3.986  14.485  0.00  0.00    +0.000 A 
ATOM     12  C   UNL     1       5.916   3.654  15.867  0.00  0.00    +0.000 A 
ATOM     13  O   UNL     1       5.235   2.653  16.082  0.00  0.00    +0.000 OA
ATOM     14  H   UNL     1       8.346   6.540  15.232  0.00  0.00    +0.000 HD
ENDBRANCH   1   2
BRANCH   1  15
ATOM     15  P   UNL     1       4.864   4.651  18.972  0.00  0.00    +0.000 P 
ATOM     16  O   UNL     1       5.774   5.439  19.925  0.00  0.00    +0.000 OA
BRANCH  15  17
ATOM     17  O   UNL     1       3.464   5.254  19.790  0.00  0.00    +0.000 OA
BRANCH  17  18
ATOM     18  C   UNL     1       2.767   6.442  19.495  0.00  0.00    +0.000 C 
BRANCH  18  19
ATOM     19  C   UNL     1       2.474   6.697  18.011  0.00  0.00    +0.000 C 
BRANCH  19  21
ATOM     20  C   UNL     1       1.593   9.130  17.951  0.00  0.00    +0.000 C 
ATOM     21  C   UNL     1       2.756   8.182  17.714  0.00  0.00    +0.000 C 
ENDBRANCH  19  21
ENDBRANCH  18  19
ENDBRANCH  17  18
ENDBRANCH  15  17
BRANCH  15  22
ATOM     22  O   UNL     1       4.536   3.183  19.647  0.00  0.00    +0.000 OA
BRANCH  22  23
ATOM     23  C   UNL     1       3.208   2.742  19.884  0.00  0.00    +0.000 C 
BRANCH  23  24
ATOM     24  C   UNL     1       2.479   2.114  18.687  0.00  0.00    +0.000 C 
BRANCH  24  25
ATOM     25  C   UNL     1       0.965   2.322  18.852  0.00  0.00    +0.000 C 
ATOM     26  C   UNL     1       0.555   3.272  19.963  0.00  0.00    +0.000 C 
ENDBRANCH  24  25
ENDBRANCH  23  24
ENDBRANCH  22  23
ENDBRANCH  15  22
ENDBRANCH   1  15
TORSDOF 10
ENDMDL
MODEL 6
REMARK VINA RESULT:      -7.1      2.653      7.351
REMARK  Name = 
REMARK  12 active torsions:
REMARK  status: ('A' for Active; 'I' for Inactive)
REMARK    1  A    between atoms: C_1  and  C_2
REMARK    2  A    between atoms: C_2  and  C_3
REMARK    3  A    between atoms: C_3  and  C_4
REMARK    4  A    between atoms: C_4  and  O_5
REMARK    5  A    between atoms: O_5  and  P_6
REMARK    6  A    between atoms: P_6  and  O_8
REMARK    7  A    between atoms: P_6  and  O_13
REMARK    8  A    between atoms: O_8  and  C_9
REMARK    9  A    between atoms: C_9  and  C_10
REMARK   10  A    between atoms: C_10  and  C_11
REMARK   11  A    between atoms: C_11  and  C_12
REMARK   12  A    between atoms: O_13  and  N_14
REMARK                            x       y       z     vdW  Elec       q    Type
REMARK                         _______ _______ _______ _____ _____    ______ ____
ROOT
ATOM      1  O   UNL     1       5.358   4.560  17.980  0.00  0.00    +0.000 OA
ENDROOT
BRANCH   1   2
ATOM      2  N   UNL     1       5.825   4.908  16.694  0.00  0.00    +0.000 N 
ATOM      3  C   UNL     1       6.992   5.638  16.688  0.00  0.00    +0.000 A 
ATOM      4  O   UNL     1       7.498   6.152  17.681  0.00  0.00    +0.000 OA
ATOM      5  N   UNL     1       7.590   5.782  15.461  0.00  0.00    +0.000 N 
ATOM      6  C   UNL     1       7.151   5.109  14.316  0.00  0.00    +0.000 A 
ATOM      7  C   UNL     1       7.850   5.253  13.117  0.00  0.00    +0.000 A 
ATOM      8  C   UNL     1       7.472   4.508  12.001  0.00  0.00    +0.000 A 
ATOM      9  C   UNL     1       6.396   3.618  12.084  0.00  0.00    +0.000 A 
ATOM     10  C   UNL     1       5.680   3.493  13.275  0.00  0.00    +0.000 A 
ATOM     11  C   UNL     1       6.053   4.250  14.390  0.00  0.00    +0.000 A 
ATOM     12  C   UNL     1       5.335   4.110  15.677  0.00  0.00    +0.000 A 
ATOM     13  O   UNL     1       4.410   3.307  15.783  0.00  0.00    +0.000 OA
ATOM     14  H   UNL     1       8.451   6.317  15.445  0.00  0.00    +0.000 HD
ENDBRANCH   1   2
BRANCH   1  15
ATOM     15  P   UNL     1       3.875   5.340  18.410  0.00  0.00    +0.000 P 
ATOM     16  O   UNL     1       4.465   5.676  19.788  0.00  0.00    +0.000 OA
BRANCH  15  17
ATOM     17  O   UNL     1       2.393   6.121  18.841  0.00  0.00    +0.000 OA
BRANCH  17  18
ATOM     18  C   UNL     1       2.220   7.097  19.842  0.00  0.00    +0.000 C 
BRANCH  18  19
ATOM     19  C   UNL     1       1.772   8.481  19.358  0.00  0.00    +0.000 C 
BRANCH  19  21
ATOM     20  C   UNL     1       1.232   8.864  21.861  0.00  0.00    +0.000 C 
ATOM     21  C   UNL     1       0.820   9.075  20.414  0.00  0.00    +0.000 C 
ENDBRANCH  19  21
ENDBRANCH  18  19
ENDBRANCH  17  18
ENDBRANCH  15  17
BRANCH  15  22
ATOM     22  O   UNL     1       3.067   3.907  18.517  0.00  0.00    +0.000 OA
BRANCH  22  23
ATOM     23  C   UNL     1       1.678   3.804  18.241  0.00  0.00    +0.000 C 
BRANCH  23  24
ATOM     24  C   UNL     1       0.851   2.974  19.233  0.00  0.00    +0.000 C 
BRANCH  24  25
ATOM     25  C   UNL     1       1.042   3.542  20.649  0.00  0.00    +0.000 C 
ATOM     26  C   UNL     1       1.827   2.663  21.604  0.00  0.00    +0.000 C 
ENDBRANCH  24  25
ENDBRANCH  23  24
ENDBRANCH  22  23
ENDBRANCH  15  22
ENDBRANCH   1  15
TORSDOF 10
ENDMDL
MODEL 7
REMARK VINA RESULT:      -7.0      2.584      6.954
REMARK  Name = 
REMARK  12 active torsions:
REMARK  status: ('A' for Active; 'I' for Inactive)
REMARK    1  A    between atoms: C_1  and  C_2
REMARK    2  A    between atoms: C_2  and  C_3
REMARK    3  A    between atoms: C_3  and  C_4
REMARK    4  A    between atoms: C_4  and  O_5
REMARK    5  A    between atoms: O_5  and  P_6
REMARK    6  A    between atoms: P_6  and  O_8
REMARK    7  A    between atoms: P_6  and  O_13
REMARK    8  A    between atoms: O_8  and  C_9
REMARK    9  A    between atoms: C_9  and  C_10
REMARK   10  A    between atoms: C_10  and  C_11
REMARK   11  A    between atoms: C_11  and  C_12
REMARK   12  A    between atoms: O_13  and  N_14
REMARK                            x       y       z     vdW  Elec       q    Type
REMARK                         _______ _______ _______ _____ _____    ______ ____
ROOT
ATOM      1  O   UNL     1       5.586   4.541  17.990  0.00  0.00    +0.000 OA
ENDROOT
BRANCH   1   2
ATOM      2  N   UNL     1       5.963   4.871  16.671  0.00  0.00    +0.000 N 
ATOM      3  C   UNL     1       7.116   5.617  16.575  0.00  0.00    +0.000 A 
ATOM      4  O   UNL     1       7.678   6.156  17.524  0.00  0.00    +0.000 OA
ATOM      5  N   UNL     1       7.631   5.745  15.309  0.00  0.00    +0.000 N 
ATOM      6  C   UNL     1       7.128   5.045  14.207  0.00  0.00    +0.000 A 
ATOM      7  C   UNL     1       7.745   5.176  12.963  0.00  0.00    +0.000 A 
ATOM      8  C   UNL     1       7.306   4.404  11.888  0.00  0.00    +0.000 A 
ATOM      9  C   UNL     1       6.252   3.502  12.056  0.00  0.00    +0.000 A 
ATOM     10  C   UNL     1       5.616   3.390  13.294  0.00  0.00    +0.000 A 
ATOM     11  C   UNL     1       6.050   4.172  14.368  0.00  0.00    +0.000 A 
ATOM     12  C   UNL     1       5.420   4.048  15.702  0.00  0.00    +0.000 A 
ATOM     13  O   UNL     1       4.515   3.235  15.882  0.00  0.00    +0.000 OA
ATOM     14  H   UNL     1       8.481   6.291  15.228  0.00  0.00    +0.000 HD
ENDBRANCH   1   2
BRANCH   1  15
ATOM     15  P   UNL     1       4.120   5.305  18.500  0.00  0.00    +0.000 P 
ATOM     16  O   UNL     1       4.844   5.837  19.745  0.00  0.00    +0.000 OA
BRANCH  15  17
ATOM     17  O   UNL     1       2.654   6.068  19.011  0.00  0.00    +0.000 OA
BRANCH  17  18
ATOM     18  C   UNL     1       2.422   7.455  19.110  0.00  0.00    +0.000 C 
BRANCH  18  19
ATOM     19  C   UNL     1       2.504   8.244  17.798  0.00  0.00    +0.000 C 
BRANCH  19  21
ATOM     20  C   UNL     1       0.879   9.644  19.248  0.00  0.00    +0.000 C 
ATOM     21  C   UNL     1       1.678   9.534  17.960  0.00  0.00    +0.000 C 
ENDBRANCH  19  21
ENDBRANCH  18  19
ENDBRANCH  17  18
ENDBRANCH  15  17
BRANCH  15  22
ATOM     22  O   UNL     1       3.414   3.863  18.877  0.00  0.00    +0.000 OA
BRANCH  22  23
ATOM     23  C   UNL     1       4.003   2.952  19.792  0.00  0.00    +0.000 C 
BRANCH  23  24
ATOM     24  C   UNL     1       3.086   2.421  20.904  0.00  0.00    +0.000 C 
BRANCH  24  25
ATOM     25  C   UNL     1       2.036   3.490  21.245  0.00  0.00    +0.000 C 
ATOM     26  C   UNL     1       0.746   3.415  20.450  0.00  0.00    +0.000 C 
ENDBRANCH  24  25
ENDBRANCH  23  24
ENDBRANCH  22  23
ENDBRANCH  15  22
ENDBRANCH   1  15
TORSDOF 10
ENDMDL
MODEL 8
REMARK VINA RESULT:      -6.9      1.699      5.266
REMARK  Name = 
REMARK  12 active torsions:
REMARK  status: ('A' for Active; 'I' for Inactive)
REMARK    1  A    between atoms: C_1  and  C_2
REMARK    2  A    between atoms: C_2  and  C_3
REMARK    3  A    between atoms: C_3  and  C_4
REMARK    4  A    between atoms: C_4  and  O_5
REMARK    5  A    between atoms: O_5  and  P_6
REMARK    6  A    between atoms: P_6  and  O_8
REMARK    7  A    between atoms: P_6  and  O_13
REMARK    8  A    between atoms: O_8  and  C_9
REMARK    9  A    between atoms: C_9  and  C_10
REMARK   10  A    between atoms: C_10  and  C_11
REMARK   11  A    between atoms: C_11  and  C_12
REMARK   12  A    between atoms: O_13  and  N_14
REMARK                            x       y       z     vdW  Elec       q    Type
REMARK                         _______ _______ _______ _____ _____    ______ ____
ROOT
ATOM      1  O   UNL     1       5.219   3.491  16.693  0.00  0.00    +0.000 OA
ENDROOT
BRANCH   1   2
ATOM      2  N   UNL     1       4.118   3.623  17.566  0.00  0.00    +0.000 N 
ATOM      3  C   UNL     1       2.889   3.476  16.964  0.00  0.00    +0.000 A 
ATOM      4  O   UNL     1       2.705   3.452  15.751  0.00  0.00    +0.000 OA
ATOM      5  N   UNL     1       1.823   3.359  17.822  0.00  0.00    +0.000 N 
ATOM      6  C   UNL     1       1.970   3.235  19.207  0.00  0.00    +0.000 A 
ATOM      7  C   UNL     1       0.843   3.055  20.010  0.00  0.00    +0.000 A 
ATOM      8  C   UNL     1       0.996   2.832  21.378  0.00  0.00    +0.000 A 
ATOM      9  C   UNL     1       2.275   2.789  21.943  0.00  0.00    +0.000 A 
ATOM     10  C   UNL     1       3.401   2.997  21.146  0.00  0.00    +0.000 A 
ATOM     11  C   UNL     1       3.246   3.231  19.776  0.00  0.00    +0.000 A 
ATOM     12  C   UNL     1       4.424   3.417  18.899  0.00  0.00    +0.000 A 
ATOM     13  O   UNL     1       5.558   3.347  19.368  0.00  0.00    +0.000 OA
ATOM     14  H   UNL     1       0.913   3.250  17.388  0.00  0.00    +0.000 HD
ENDBRANCH   1   2
BRANCH   1  15
ATOM     15  P   UNL     1       6.250   4.880  16.668  0.00  0.00    +0.000 P 
ATOM     16  O   UNL     1       5.011   5.784  16.588  0.00  0.00    +0.000 OA
BRANCH  15  17
ATOM     17  O   UNL     1       7.281   6.269  16.643  0.00  0.00    +0.000 OA
BRANCH  17  18
ATOM     18  C   UNL     1       7.693   7.026  17.757  0.00  0.00    +0.000 C 
BRANCH  18  19
ATOM     19  C   UNL     1       7.687   8.549  17.573  0.00  0.00    +0.000 C 
BRANCH  19  21
ATOM     20  C   UNL     1       9.142  10.571  18.276  0.00  0.00    +0.000 C 
ATOM     21  C   UNL     1       8.672   9.160  18.587  0.00  0.00    +0.000 C 
ENDBRANCH  19  21
ENDBRANCH  18  19
ENDBRANCH  17  18
ENDBRANCH  15  17
BRANCH  15  22
ATOM     22  O   UNL     1       6.769   4.558  15.137  0.00  0.00    +0.000 OA
BRANCH  22  23
ATOM     23  C   UNL     1       5.871   4.194  14.098  0.00  0.00    +0.000 C 
BRANCH  23  24
ATOM     24  C   UNL     1       6.512   3.749  12.775  0.00  0.00    +0.000 C 
BRANCH  24  25
ATOM     25  C   UNL     1       5.458   3.023  11.924  0.00  0.00    +0.000 C 
ATOM     26  C   UNL     1       5.893   1.688  11.348  0.00  0.00    +0.000 C 
ENDBRANCH  24  25
ENDBRANCH  23  24
ENDBRANCH  22  23
ENDBRANCH  15  22
ENDBRANCH   1  15
TORSDOF 10
ENDMDL
MODEL 9
REMARK VINA RESULT:      -6.9      3.855      6.545
REMARK  Name = 
REMARK  12 active torsions:
REMARK  status: ('A' for Active; 'I' for Inactive)
REMARK    1  A    between atoms: C_1  and  C_2
REMARK    2  A    between atoms: C_2  and  C_3
REMARK    3  A    between atoms: C_3  and  C_4
REMARK    4  A    between atoms: C_4  and  O_5
REMARK    5  A    between atoms: O_5  and  P_6
REMARK    6  A    between atoms: P_6  and  O_8
REMARK    7  A    between atoms: P_6  and  O_13
REMARK    8  A    between atoms: O_8  and  C_9
REMARK    9  A    between atoms: C_9  and  C_10
REMARK   10  A    between atoms: C_10  and  C_11
REMARK   11  A    between atoms: C_11  and  C_12
REMARK   12  A    between atoms: O_13  and  N_14
REMARK                            x       y       z     vdW  Elec       q    Type
REMARK                         _______ _______ _______ _____ _____    ______ ____
ROOT
ATOM      1  O   UNL     1       2.522   6.274  18.675  0.00  0.00    +0.000 OA
ENDROOT
BRANCH   1   2
ATOM      2  N   UNL     1       2.196   7.525  19.241  0.00  0.00    +0.000 N 
ATOM      3  C   UNL     1       2.131   8.562  18.339  0.00  0.00    +0.000 A 
ATOM      4  O   UNL     1       2.526   8.502  17.178  0.00  0.00    +0.000 OA
ATOM      5  N   UNL     1       1.586   9.727  18.819  0.00  0.00    +0.000 N 
ATOM      6  C   UNL     1       0.988   9.826  20.080  0.00  0.00    +0.000 A 
ATOM      7  C   UNL     1       0.396  11.026  20.474  0.00  0.00    +0.000 A 
ATOM      8  C   UNL     1      -0.286  11.096  21.688  0.00  0.00    +0.000 A 
ATOM      9  C   UNL     1      -0.377   9.967  22.508  0.00  0.00    +0.000 A 
ATOM     10  C   UNL     1       0.238   8.773  22.127  0.00  0.00    +0.000 A 
ATOM     11  C   UNL     1       0.931   8.708  20.914  0.00  0.00    +0.000 A 
ATOM     12  C   UNL     1       1.561   7.444  20.466  0.00  0.00    +0.000 A 
ATOM     13  O   UNL     1       1.463   6.430  21.154  0.00  0.00    +0.000 OA
ATOM     14  H   UNL     1       1.532  10.497  18.162  0.00  0.00    +0.000 HD
ENDBRANCH   1   2
BRANCH   1  15
ATOM     15  P   UNL     1       4.212   5.910  18.734  0.00  0.00    +0.000 P 
ATOM     16  O   UNL     1       4.077   5.122  17.422  0.00  0.00    +0.000 OA
BRANCH  15  17
ATOM     17  O   UNL     1       5.902   5.545  18.792  0.00  0.00    +0.000 OA
BRANCH  17  18
ATOM     18  C   UNL     1       6.773   5.427  17.691  0.00  0.00    +0.000 C 
BRANCH  18  19
ATOM     19  C   UNL     1       7.289   6.745  17.100  0.00  0.00    +0.000 C 
BRANCH  19  21
ATOM     20  C   UNL     1       8.216   9.006  17.954  0.00  0.00    +0.000 C 
ATOM     21  C   UNL     1       8.007   7.525  18.218  0.00  0.00    +0.000 C 
ENDBRANCH  19  21
ENDBRANCH  18  19
ENDBRANCH  17  18
ENDBRANCH  15  17
BRANCH  15  22
ATOM     22  O   UNL     1       4.018   4.868  19.997  0.00  0.00    +0.000 OA
BRANCH  22  23
ATOM     23  C   UNL     1       3.319   3.640  19.860  0.00  0.00    +0.000 C 
BRANCH  23  24
ATOM     24  C   UNL     1       2.543   3.161  21.096  0.00  0.00    +0.000 C 
BRANCH  24  25
ATOM     25  C   UNL     1       1.085   2.881  20.699  0.00  0.00    +0.000 C 
ATOM     26  C   UNL     1       0.814   2.824  19.207  0.00  0.00    +0.000 C 
ENDBRANCH  24  25
ENDBRANCH  23  24
ENDBRANCH  22  23
ENDBRANCH  15  22
ENDBRANCH   1  15
TORSDOF 10
ENDMDL
