MODEL 1
REMARK VINA RESULT:      -6.7      0.000      0.000
REMARK  Name = 
REMARK  4 active torsions:
REMARK  status: ('A' for Active; 'I' for Inactive)
REMARK    1  A    between atoms: C_2  and  C_3
REMARK    2  A    between atoms: C_3  and  C_10
REMARK    3  A    between atoms: C_4  and  C_5
REMARK    4  A    between atoms: C_12  and  C_13
REMARK                            x       y       z     vdW  Elec       q    Type
REMARK                         _______ _______ _______ _____ _____    ______ ____
ROOT
ATOM      1  C   UNL     1       4.731   5.416  17.597  0.00  0.00    +0.000 A 
ATOM      2  N   UNL     1       3.970   6.501  17.666  0.00  0.00    +0.000 NA
ATOM      3  C   UNL     1       3.205   6.518  18.830  0.00  0.00    +0.000 A 
ATOM      4  C   UNL     1       3.366   5.413  19.636  0.00  0.00    +0.000 A 
ATOM      5  S   UNL     1       4.515   4.352  18.963  0.00  0.00    +0.000 S 
ENDROOT
BRANCH   3   6
ATOM      6  C   UNL     1       2.280   7.604  19.143  0.00  0.00    +0.000 A 
ATOM      7  C   UNL     1       1.752   7.732  20.436  0.00  0.00    +0.000 A 
ATOM      8  C   UNL     1       0.902   8.796  20.760  0.00  0.00    +0.000 A 
ATOM      9  C   UNL     1       0.565   9.737  19.786  0.00  0.00    +0.000 A 
ATOM     10 CL   UNL     1      -0.470  11.052  20.184  0.00  0.00    +0.000 Cl
ATOM     11  C   UNL     1       1.062   9.616  18.493  0.00  0.00    +0.000 A 
ATOM     12  C   UNL     1       1.913   8.554  18.172  0.00  0.00    +0.000 A 
ENDBRANCH   3   6
BRANCH   1  13
ATOM     13  C   UNL     1       5.653   5.068  16.541  0.00  0.00    +0.000 C 
ATOM     14  C   UNL     1       5.232   5.163  15.262  0.00  0.00    +0.000 C 
BRANCH  14  15
ATOM     15  C   UNL     1       6.055   4.797  14.156  0.00  0.00    +0.000 A 
ATOM     16  C   UNL     1       7.271   5.319  13.752  0.00  0.00    +0.000 A 
ATOM     17  C   UNL     1       7.789   4.676  12.589  0.00  0.00    +0.000 A 
ATOM     18  C   UNL     1       6.953   3.682  12.135  0.00  0.00    +0.000 A 
ATOM     19  S   UNL     1       5.547   3.540  13.096  0.00  0.00    +0.000 S 
ENDBRANCH  14  15
BRANCH  13  21
ATOM     20  N   UNL     1       8.047   4.247  17.114  0.00  0.00    +0.000 NA
ATOM     21  C   UNL     1       6.978   4.617  16.848  0.00  0.00    +0.000 C 
ENDBRANCH  13  21
ENDBRANCH   1  13
TORSDOF 4
ENDMDL
MODEL 2
REMARK VINA RESULT:      -6.6      3.903      8.376
REMARK  Name = 
REMARK  4 active torsions:
REMARK  status: ('A' for Active; 'I' for Inactive)
REMARK    1  A    between atoms: C_2  and  C_3
REMARK    2  A    between atoms: C_3  and  C_10
REMARK    3  A    between atoms: C_4  and  C_5
REMARK    4  A    between atoms: C_12  and  C_13
REMARK                            x       y       z     vdW  Elec       q    Type
REMARK                         _______ _______ _______ _____ _____    ______ ____
ROOT
ATOM      1  C   UNL     1       1.910   7.628  19.821  0.00  0.00    +0.000 A 
ATOM      2  N   UNL     1       2.665   7.453  18.743  0.00  0.00    +0.000 NA
ATOM      3  C   UNL     1       3.114   6.139  18.638  0.00  0.00    +0.000 A 
ATOM      4  C   UNL     1       2.721   5.317  19.670  0.00  0.00    +0.000 A 
ATOM      5  S   UNL     1       1.744   6.173  20.770  0.00  0.00    +0.000 S 
ENDROOT
BRANCH   3   6
ATOM      6  C   UNL     1       3.966   5.688  17.541  0.00  0.00    +0.000 A 
ATOM      7  C   UNL     1       4.129   4.317  17.290  0.00  0.00    +0.000 A 
ATOM      8  C   UNL     1       4.905   3.875  16.212  0.00  0.00    +0.000 A 
ATOM      9  C   UNL     1       5.534   4.802  15.382  0.00  0.00    +0.000 A 
ATOM     10 CL   UNL     1       6.479   4.261  14.049  0.00  0.00    +0.000 Cl
ATOM     11  C   UNL     1       5.402   6.165  15.626  0.00  0.00    +0.000 A 
ATOM     12  C   UNL     1       4.624   6.606  16.701  0.00  0.00    +0.000 A 
ENDBRANCH   3   6
BRANCH   1  13
ATOM     13  C   UNL     1       1.272   8.851  20.245  0.00  0.00    +0.000 C 
ATOM     14  C   UNL     1       0.815   9.699  19.300  0.00  0.00    +0.000 C 
BRANCH  14  15
ATOM     15  C   UNL     1       0.213  10.952  19.621  0.00  0.00    +0.000 A 
ATOM     16  C   UNL     1      -1.121  11.264  19.813  0.00  0.00    +0.000 A 
ATOM     17  C   UNL     1      -1.326  12.640  20.129  0.00  0.00    +0.000 A 
ATOM     18  C   UNL     1      -0.142  13.341  20.168  0.00  0.00    +0.000 A 
ATOM     19  S   UNL     1       1.201  12.349  19.806  0.00  0.00    +0.000 S 
ENDBRANCH  14  15
BRANCH  13  21
ATOM     20  N   UNL     1       1.020   9.422  22.764  0.00  0.00    +0.000 NA
ATOM     21  C   UNL     1       1.142   9.163  21.637  0.00  0.00    +0.000 C 
ENDBRANCH  13  21
ENDBRANCH   1  13
TORSDOF 4
ENDMDL
MODEL 3
REMARK VINA RESULT:      -6.6      0.094      1.058
REMARK  Name = 
REMARK  4 active torsions:
REMARK  status: ('A' for Active; 'I' for Inactive)
REMARK    1  A    between atoms: C_2  and  C_3
REMARK    2  A    between atoms: C_3  and  C_10
REMARK    3  A    between atoms: C_4  and  C_5
REMARK    4  A    between atoms: C_12  and  C_13
REMARK                            x       y       z     vdW  Elec       q    Type
REMARK                         _______ _______ _______ _____ _____    ______ ____
ROOT
ATOM      1  C   UNL     1       4.731   5.361  17.547  0.00  0.00    +0.000 A 
ATOM      2  N   UNL     1       4.027   6.481  17.670  0.00  0.00    +0.000 NA
ATOM      3  C   UNL     1       3.226   6.461  18.808  0.00  0.00    +0.000 A 
ATOM      4  C   UNL     1       3.299   5.297  19.539  0.00  0.00    +0.000 A 
ATOM      5  S   UNL     1       4.411   4.221  18.829  0.00  0.00    +0.000 S 
ENDROOT
BRANCH   3   6
ATOM      6  C   UNL     1       2.350   7.574  19.169  0.00  0.00    +0.000 A 
ATOM      7  C   UNL     1       2.020   8.551  18.218  0.00  0.00    +0.000 A 
ATOM      8  C   UNL     1       1.144   9.594  18.540  0.00  0.00    +0.000 A 
ATOM      9  C   UNL     1       0.599   9.674  19.821  0.00  0.00    +0.000 A 
ATOM     10 CL   UNL     1      -0.487  10.949  20.215  0.00  0.00    +0.000 Cl
ATOM     11  C   UNL     1       0.930   8.726  20.784  0.00  0.00    +0.000 A 
ATOM     12  C   UNL     1       1.803   7.682  20.461  0.00  0.00    +0.000 A 
ENDBRANCH   3   6
BRANCH   1  13
ATOM     13  C   UNL     1       5.667   5.035  16.498  0.00  0.00    +0.000 C 
ATOM     14  C   UNL     1       5.255   5.125  15.216  0.00  0.00    +0.000 C 
BRANCH  14  15
ATOM     15  C   UNL     1       6.094   4.779  14.116  0.00  0.00    +0.000 A 
ATOM     16  C   UNL     1       7.293   5.338  13.713  0.00  0.00    +0.000 A 
ATOM     17  C   UNL     1       7.837   4.705  12.556  0.00  0.00    +0.000 A 
ATOM     18  C   UNL     1       7.035   3.681  12.106  0.00  0.00    +0.000 A 
ATOM     19  S   UNL     1       5.631   3.499  13.062  0.00  0.00    +0.000 S 
ENDBRANCH  14  15
BRANCH  13  21
ATOM     20  N   UNL     1       8.083   4.283  17.079  0.00  0.00    +0.000 NA
ATOM     21  C   UNL     1       6.999   4.611  16.814  0.00  0.00    +0.000 C 
ENDBRANCH  13  21
ENDBRANCH   1  13
TORSDOF 4
ENDMDL
MODEL 4
REMARK VINA RESULT:      -6.6      3.927      8.447
REMARK  Name = 
REMARK  4 active torsions:
REMARK  status: ('A' for Active; 'I' for Inactive)
REMARK    1  A    between atoms: C_2  and  C_3
REMARK    2  A    between atoms: C_3  and  C_10
REMARK    3  A    between atoms: C_4  and  C_5
REMARK    4  A    between atoms: C_12  and  C_13
REMARK                            x       y       z     vdW  Elec       q    Type
REMARK                         _______ _______ _______ _____ _____    ______ ____
ROOT
ATOM      1  C   UNL     1       1.848   7.667  19.878  0.00  0.00    +0.000 A 
ATOM      2  N   UNL     1       2.594   7.492  18.793  0.00  0.00    +0.000 NA
ATOM      3  C   UNL     1       3.021   6.172  18.672  0.00  0.00    +0.000 A 
ATOM      4  C   UNL     1       2.620   5.345  19.698  0.00  0.00    +0.000 A 
ATOM      5  S   UNL     1       1.662   6.205  20.812  0.00  0.00    +0.000 S 
ENDROOT
BRANCH   3   6
ATOM      6  C   UNL     1       3.860   5.719  17.565  0.00  0.00    +0.000 A 
ATOM      7  C   UNL     1       4.523   6.650  16.754  0.00  0.00    +0.000 A 
ATOM      8  C   UNL     1       5.368   6.226  15.721  0.00  0.00    +0.000 A 
ATOM      9  C   UNL     1       5.545   4.863  15.485  0.00  0.00    +0.000 A 
ATOM     10 CL   UNL     1       6.591   4.338  14.224  0.00  0.00    +0.000 Cl
ATOM     11  C   UNL     1       4.880   3.923  16.266  0.00  0.00    +0.000 A 
ATOM     12  C   UNL     1       4.040   4.348  17.300  0.00  0.00    +0.000 A 
ENDBRANCH   3   6
BRANCH   1  13
ATOM     13  C   UNL     1       1.231   8.896  20.317  0.00  0.00    +0.000 C 
ATOM     14  C   UNL     1       0.765   9.752  19.384  0.00  0.00    +0.000 C 
BRANCH  14  15
ATOM     15  C   UNL     1       0.183  11.011  19.721  0.00  0.00    +0.000 A 
ATOM     16  C   UNL     1      -1.142  11.336  19.947  0.00  0.00    +0.000 A 
ATOM     17  C   UNL     1      -1.326  12.713  20.269  0.00  0.00    +0.000 A 
ATOM     18  C   UNL     1      -0.135  13.403  20.278  0.00  0.00    +0.000 A 
ATOM     19  S   UNL     1       1.189  12.398  19.883  0.00  0.00    +0.000 S 
ENDBRANCH  14  15
BRANCH  13  21
ATOM     20  N   UNL     1       1.070   9.453  22.847  0.00  0.00    +0.000 NA
ATOM     21  C   UNL     1       1.132   9.205  21.713  0.00  0.00    +0.000 C 
ENDBRANCH  13  21
ENDBRANCH   1  13
TORSDOF 4
ENDMDL
MODEL 5
REMARK VINA RESULT:      -6.5      5.026     10.040
REMARK  Name = 
REMARK  4 active torsions:
REMARK  status: ('A' for Active; 'I' for Inactive)
REMARK    1  A    between atoms: C_2  and  C_3
REMARK    2  A    between atoms: C_3  and  C_10
REMARK    3  A    between atoms: C_4  and  C_5
REMARK    4  A    between atoms: C_12  and  C_13
REMARK                            x       y       z     vdW  Elec       q    Type
REMARK                         _______ _______ _______ _____ _____    ______ ____
ROOT
ATOM      1  C   UNL     1       0.289  10.063  20.239  0.00  0.00    +0.000 A 
ATOM      2  N   UNL     1       1.127   9.033  20.266  0.00  0.00    +0.000 NA
ATOM      3  C   UNL     1       1.564   8.693  18.989  0.00  0.00    +0.000 A 
ATOM      4  C   UNL     1       1.023   9.456  17.978  0.00  0.00    +0.000 A 
ATOM      5  S   UNL     1      -0.014  10.642  18.621  0.00  0.00    +0.000 S 
ENDROOT
BRANCH   3   6
ATOM      6  C   UNL     1       2.490   7.590  18.746  0.00  0.00    +0.000 A 
ATOM      7  C   UNL     1       2.526   6.492  19.618  0.00  0.00    +0.000 A 
ATOM      8  C   UNL     1       3.375   5.408  19.367  0.00  0.00    +0.000 A 
ATOM      9  C   UNL     1       4.205   5.419  18.246  0.00  0.00    +0.000 A 
ATOM     10 CL   UNL     1       5.241   4.083  17.930  0.00  0.00    +0.000 Cl
ATOM     11  C   UNL     1       4.199   6.508  17.381  0.00  0.00    +0.000 A 
ATOM     12  C   UNL     1       3.348   7.589  17.630  0.00  0.00    +0.000 A 
ENDBRANCH   3   6
BRANCH   1  13
ATOM     13  C   UNL     1      -0.354  10.688  21.370  0.00  0.00    +0.000 C 
ATOM     14  C   UNL     1      -1.134  11.768  21.151  0.00  0.00    +0.000 C 
BRANCH  14  15
ATOM     15  C   UNL     1      -1.772  12.479  22.210  0.00  0.00    +0.000 A 
ATOM     16  C   UNL     1      -2.984  12.234  22.831  0.00  0.00    +0.000 A 
ATOM     17  C   UNL     1      -3.277  13.175  23.862  0.00  0.00    +0.000 A 
ATOM     18  C   UNL     1      -2.281  14.115  23.999  0.00  0.00    +0.000 A 
ATOM     19  S   UNL     1      -1.014  13.872  22.879  0.00  0.00    +0.000 S 
ENDBRANCH  14  15
BRANCH  13  21
ATOM     20  N   UNL     1       0.024   9.771  23.769  0.00  0.00    +0.000 NA
ATOM     21  C   UNL     1      -0.156  10.181  22.695  0.00  0.00    +0.000 C 
ENDBRANCH  13  21
ENDBRANCH   1  13
TORSDOF 4
ENDMDL
MODEL 6
REMARK VINA RESULT:      -6.5      3.502      5.003
REMARK  Name = 
REMARK  4 active torsions:
REMARK  status: ('A' for Active; 'I' for Inactive)
REMARK    1  A    between atoms: C_2  and  C_3
REMARK    2  A    between atoms: C_3  and  C_10
REMARK    3  A    between atoms: C_4  and  C_5
REMARK    4  A    between atoms: C_12  and  C_13
REMARK                            x       y       z     vdW  Elec       q    Type
REMARK                         _______ _______ _______ _____ _____    ______ ____
ROOT
ATOM      1  C   UNL     1       2.217   7.702  18.886  0.00  0.00    +0.000 A 
ATOM      2  N   UNL     1       1.491   8.100  19.925  0.00  0.00    +0.000 NA
ATOM      3  C   UNL     1       1.015   9.396  19.752  0.00  0.00    +0.000 A 
ATOM      4  C   UNL     1       1.414  10.000  18.580  0.00  0.00    +0.000 A 
ATOM      5  S   UNL     1       2.362   8.931  17.656  0.00  0.00    +0.000 S 
ENDROOT
BRANCH   3   6
ATOM      6  C   UNL     1       0.193  10.069  20.755  0.00  0.00    +0.000 A 
ATOM      7  C   UNL     1      -0.507  11.239  20.426  0.00  0.00    +0.000 A 
ATOM      8  C   UNL     1      -1.335  11.865  21.365  0.00  0.00    +0.000 A 
ATOM      9  C   UNL     1      -1.460  11.330  22.647  0.00  0.00    +0.000 A 
ATOM     10 CL   UNL     1      -2.486  12.091  23.800  0.00  0.00    +0.000 Cl
ATOM     11  C   UNL     1      -0.758  10.182  22.999  0.00  0.00    +0.000 A 
ATOM     12  C   UNL     1       0.067   9.555  22.059  0.00  0.00    +0.000 A 
ENDBRANCH   3   6
BRANCH   1  13
ATOM     13  C   UNL     1       2.860   6.421  18.716  0.00  0.00    +0.000 C 
ATOM     14  C   UNL     1       2.228   5.318  19.170  0.00  0.00    +0.000 C 
BRANCH  14  15
ATOM     15  C   UNL     1       2.806   4.016  19.088  0.00  0.00    +0.000 A 
ATOM     16  C   UNL     1       3.675   3.382  19.958  0.00  0.00    +0.000 A 
ATOM     17  C   UNL     1       4.026   2.068  19.529  0.00  0.00    +0.000 A 
ATOM     18  C   UNL     1       3.416   1.735  18.341  0.00  0.00    +0.000 A 
ATOM     19  S   UNL     1       2.445   3.007  17.742  0.00  0.00    +0.000 S 
ENDBRANCH  14  15
BRANCH  13  21
ATOM     20  N   UNL     1       5.196   6.268  17.595  0.00  0.00    +0.000 NA
ATOM     21  C   UNL     1       4.148   6.327  18.094  0.00  0.00    +0.000 C 
ENDBRANCH  13  21
ENDBRANCH   1  13
TORSDOF 4
ENDMDL
MODEL 7
REMARK VINA RESULT:      -6.5      1.991      2.943
REMARK  Name = 
REMARK  4 active torsions:
REMARK  status: ('A' for Active; 'I' for Inactive)
REMARK    1  A    between atoms: C_2  and  C_3
REMARK    2  A    between atoms: C_3  and  C_10
REMARK    3  A    between atoms: C_4  and  C_5
REMARK    4  A    between atoms: C_12  and  C_13
REMARK                            x       y       z     vdW  Elec       q    Type
REMARK                         _______ _______ _______ _____ _____    ______ ____
ROOT
ATOM      1  C   UNL     1       2.968   5.993  19.438  0.00  0.00    +0.000 A 
ATOM      2  N   UNL     1       2.604   7.270  19.429  0.00  0.00    +0.000 NA
ATOM      3  C   UNL     1       1.611   7.528  20.370  0.00  0.00    +0.000 A 
ATOM      4  C   UNL     1       1.193   6.423  21.078  0.00  0.00    +0.000 A 
ATOM      5  S   UNL     1       2.074   5.046  20.600  0.00  0.00    +0.000 S 
ENDROOT
BRANCH   3   6
ATOM      6  C   UNL     1       1.035   8.857  20.557  0.00  0.00    +0.000 A 
ATOM      7  C   UNL     1       0.916   9.735  19.469  0.00  0.00    +0.000 A 
ATOM      8  C   UNL     1       0.321  10.992  19.628  0.00  0.00    +0.000 A 
ATOM      9  C   UNL     1      -0.149  11.386  20.880  0.00  0.00    +0.000 A 
ATOM     10 CL   UNL     1      -0.890  12.927  21.075  0.00  0.00    +0.000 Cl
ATOM     11  C   UNL     1      -0.022  10.538  21.976  0.00  0.00    +0.000 A 
ATOM     12  C   UNL     1       0.569   9.281  21.816  0.00  0.00    +0.000 A 
ENDBRANCH   3   6
BRANCH   1  13
ATOM     13  C   UNL     1       3.970   5.370  18.607  0.00  0.00    +0.000 C 
ATOM     14  C   UNL     1       4.205   5.888  17.383  0.00  0.00    +0.000 C 
BRANCH  14  15
ATOM     15  C   UNL     1       5.142   5.313  16.474  0.00  0.00    +0.000 A 
ATOM     16  C   UNL     1       4.946   4.352  15.499  0.00  0.00    +0.000 A 
ATOM     17  C   UNL     1       6.141   4.039  14.784  0.00  0.00    +0.000 A 
ATOM     18  C   UNL     1       7.216   4.771  15.234  0.00  0.00    +0.000 A 
ATOM     19  S   UNL     1       6.789   5.810  16.522  0.00  0.00    +0.000 S 
ENDBRANCH  14  15
BRANCH  13  21
ATOM     20  N   UNL     1       5.278   3.294  19.452  0.00  0.00    +0.000 NA
ATOM     21  C   UNL     1       4.687   4.218  19.067  0.00  0.00    +0.000 C 
ENDBRANCH  13  21
ENDBRANCH   1  13
TORSDOF 4
ENDMDL
MODEL 8
REMARK VINA RESULT:      -6.4      4.340      8.697
REMARK  Name = 
REMARK  4 active torsions:
REMARK  status: ('A' for Active; 'I' for Inactive)
REMARK    1  A    between atoms: C_2  and  C_3
REMARK    2  A    between atoms: C_3  and  C_10
REMARK    3  A    between atoms: C_4  and  C_5
REMARK    4  A    between atoms: C_12  and  C_13
REMARK                            x       y       z     vdW  Elec       q    Type
REMARK                         _______ _______ _______ _____ _____    ______ ____
ROOT
ATOM      1  C   UNL     1       1.459   8.911  18.999  0.00  0.00    +0.000 A 
ATOM      2  N   UNL     1       2.191   8.324  18.060  0.00  0.00    +0.000 NA
ATOM      3  C   UNL     1       2.755   7.136  18.517  0.00  0.00    +0.000 A 
ATOM      4  C   UNL     1       2.472   6.837  19.831  0.00  0.00    +0.000 A 
ATOM      5  S   UNL     1       1.457   8.027  20.503  0.00  0.00    +0.000 S 
ENDROOT
BRANCH   3   6
ATOM      6  C   UNL     1       3.609   6.300  17.676  0.00  0.00    +0.000 A 
ATOM      7  C   UNL     1       3.447   4.907  17.669  0.00  0.00    +0.000 A 
ATOM      8  C   UNL     1       4.228   4.101  16.831  0.00  0.00    +0.000 A 
ATOM      9  C   UNL     1       5.186   4.684  16.002  0.00  0.00    +0.000 A 
ATOM     10 CL   UNL     1       6.138   3.696  14.963  0.00  0.00    +0.000 Cl
ATOM     11  C   UNL     1       5.375   6.062  16.009  0.00  0.00    +0.000 A 
ATOM     12  C   UNL     1       4.592   6.866  16.844  0.00  0.00    +0.000 A 
ENDBRANCH   3   6
BRANCH   1  13
ATOM     13  C   UNL     1       0.725  10.149  18.880  0.00  0.00    +0.000 C 
ATOM     14  C   UNL     1       1.224  11.253  19.475  0.00  0.00    +0.000 C 
BRANCH  14  15
ATOM     15  C   UNL     1       0.547  12.508  19.451  0.00  0.00    +0.000 A 
ATOM     16  C   UNL     1       0.630  13.536  18.529  0.00  0.00    +0.000 A 
ATOM     17  C   UNL     1      -0.216  14.638  18.854  0.00  0.00    +0.000 A 
ATOM     18  C   UNL     1      -0.921  14.421  20.016  0.00  0.00    +0.000 A 
ATOM     19  S   UNL     1      -0.548  12.909  20.717  0.00  0.00    +0.000 S 
ENDBRANCH  14  15
BRANCH  13  21
ATOM     20  N   UNL     1      -1.510  10.225  17.564  0.00  0.00    +0.000 NA
ATOM     21  C   UNL     1      -0.513  10.197  18.160  0.00  0.00    +0.000 C 
ENDBRANCH  13  21
ENDBRANCH   1  13
TORSDOF 4
ENDMDL
MODEL 9
REMARK VINA RESULT:      -6.4      4.991      9.450
REMARK  Name = 
REMARK  4 active torsions:
REMARK  status: ('A' for Active; 'I' for Inactive)
REMARK    1  A    between atoms: C_2  and  C_3
REMARK    2  A    between atoms: C_3  and  C_10
REMARK    3  A    between atoms: C_4  and  C_5
REMARK    4  A    between atoms: C_12  and  C_13
REMARK                            x       y       z     vdW  Elec       q    Type
REMARK                         _______ _______ _______ _____ _____    ______ ____
ROOT
ATOM      1  C   UNL     1       1.082   9.263  20.102  0.00  0.00    +0.000 A 
ATOM      2  N   UNL     1       1.535   8.069  20.464  0.00  0.00    +0.000 NA
ATOM      3  C   UNL     1       2.191   7.429  19.416  0.00  0.00    +0.000 A 
ATOM      4  C   UNL     1       2.204   8.135  18.234  0.00  0.00    +0.000 A 
ATOM      5  S   UNL     1       1.427   9.637  18.433  0.00  0.00    +0.000 S 
ENDROOT
BRANCH   3   6
ATOM      6  C   UNL     1       2.779   6.099  19.556  0.00  0.00    +0.000 A 
ATOM      7  C   UNL     1       2.156   5.131  20.357  0.00  0.00    +0.000 A 
ATOM      8  C   UNL     1       2.684   3.839  20.459  0.00  0.00    +0.000 A 
ATOM      9  C   UNL     1       3.850   3.509  19.768  0.00  0.00    +0.000 A 
ATOM     10 CL   UNL     1       4.495   1.918  19.883  0.00  0.00    +0.000 Cl
ATOM     11  C   UNL     1       4.494   4.460  18.984  0.00  0.00    +0.000 A 
ATOM     12  C   UNL     1       3.963   5.750  18.880  0.00  0.00    +0.000 A 
ENDBRANCH   3   6
BRANCH   1  13
ATOM     13  C   UNL     1       0.363  10.205  20.926  0.00  0.00    +0.000 C 
ATOM     14  C   UNL     1      -0.167  11.300  20.340  0.00  0.00    +0.000 C 
BRANCH  14  15
ATOM     15  C   UNL     1      -0.854  12.308  21.080  0.00  0.00    +0.000 A 
ATOM     16  C   UNL     1      -2.197  12.409  21.395  0.00  0.00    +0.000 A 
ATOM     17  C   UNL     1      -2.498  13.572  22.163  0.00  0.00    +0.000 A 
ATOM     18  C   UNL     1      -1.376  14.329  22.412  0.00  0.00    +0.000 A 
ATOM     19  S   UNL     1       0.024  13.649  21.708  0.00  0.00    +0.000 S 
ENDBRANCH  14  15
BRANCH  13  21
ATOM     20  N   UNL     1       0.113   9.829  23.482  0.00  0.00    +0.000 NA
ATOM     21  C   UNL     1       0.231   9.989  22.336  0.00  0.00    +0.000 C 
ENDBRANCH  13  21
ENDBRANCH   1  13
TORSDOF 4
ENDMDL
