MODEL 1
REMARK VINA RESULT:      -7.7      0.000      0.000
REMARK  Name = 
REMARK  4 active torsions:
REMARK  status: ('A' for Active; 'I' for Inactive)
REMARK    1  A    between atoms: C_1  and  N_2
REMARK    2  A    between atoms: C_5  and  C_6
REMARK    3  A    between atoms: C_13  and  C_14
REMARK    4  A    between atoms: C_16  and  C_17
REMARK                            x       y       z     vdW  Elec       q    Type
REMARK                         _______ _______ _______ _____ _____    ______ ____
ROOT
ATOM      1  C   UNL     1       8.119   5.450  19.083  0.00  0.00    +0.000 C 
ATOM      2  N   UNL     1       6.790   5.809  18.586  0.00  0.00    +0.000 NA
ATOM      3  C   UNL     1       6.898   6.825  17.534  0.00  0.00    +0.000 C 
ATOM      4  C   UNL     1       5.601   7.093  16.752  0.00  0.00    +0.000 C 
ATOM      5  C   UNL     1       4.910   5.798  16.272  0.00  0.00    +0.000 C 
ATOM      6  C   UNL     1       4.703   4.882  17.513  0.00  0.00    +0.000 C 
ATOM      7  C   UNL     1       6.050   4.601  18.196  0.00  0.00    +0.000 C 
ENDROOT
BRANCH   5   8
ATOM      8  C   UNL     1       5.598   5.102  15.081  0.00  0.00    +0.000 A 
ATOM      9  C   UNL     1       6.902   5.423  14.660  0.00  0.00    +0.000 A 
ATOM     10  C   UNL     1       7.501   4.798  13.563  0.00  0.00    +0.000 A 
ATOM     11  C   UNL     1       6.789   3.852  12.843  0.00  0.00    +0.000 A 
ATOM     12 CL   UNL     1       7.517   3.095  11.478  0.00  0.00    +0.000 Cl
ATOM     13  C   UNL     1       5.487   3.529  13.210  0.00  0.00    +0.000 A 
ATOM     14  C   UNL     1       4.895   4.152  14.317  0.00  0.00    +0.000 A 
ENDBRANCH   5   8
BRANCH   6  15
ATOM     15  C   UNL     1       3.691   5.485  18.449  0.00  0.00    +0.000 A 
ATOM     16  N   UNL     1       3.059   6.632  18.341  0.00  0.00    +0.000 NA
ATOM     17  C   UNL     1       2.438   6.752  19.568  0.00  0.00    +0.000 A 
ATOM     18  N   UNL     1       2.633   5.704  20.382  0.00  0.00    +0.000 NA
ATOM     19  O   UNL     1       3.454   4.862  19.641  0.00  0.00    +0.000 OA
BRANCH  17  20
ATOM     20  C   UNL     1       1.714   7.960  19.947  0.00  0.00    +0.000 A 
ATOM     21  C   UNL     1       1.172   8.064  21.235  0.00  0.00    +0.000 A 
ATOM     22  C   UNL     1       0.408   9.175  21.597  0.00  0.00    +0.000 A 
ATOM     23  C   UNL     1       0.183  10.191  20.671  0.00  0.00    +0.000 A 
ATOM     24 CL   UNL     1      -0.793  11.539  21.106  0.00  0.00    +0.000 Cl
ATOM     25  C   UNL     1       0.730  10.114  19.392  0.00  0.00    +0.000 A 
ATOM     26  C   UNL     1       1.498   9.002  19.031  0.00  0.00    +0.000 A 
ENDBRANCH  17  20
ENDBRANCH   6  15
TORSDOF 3
ENDMDL
MODEL 2
REMARK VINA RESULT:      -7.6      4.233      6.122
REMARK  Name = 
REMARK  4 active torsions:
REMARK  status: ('A' for Active; 'I' for Inactive)
REMARK    1  A    between atoms: C_1  and  N_2
REMARK    2  A    between atoms: C_5  and  C_6
REMARK    3  A    between atoms: C_13  and  C_14
REMARK    4  A    between atoms: C_16  and  C_17
REMARK                            x       y       z     vdW  Elec       q    Type
REMARK                         _______ _______ _______ _____ _____    ______ ____
ROOT
ATOM      1  C   UNL     1       3.730   5.496  18.734  0.00  0.00    +0.000 C 
ATOM      2  N   UNL     1       5.112   5.831  18.385  0.00  0.00    +0.000 NA
ATOM      3  C   UNL     1       5.914   4.610  18.256  0.00  0.00    +0.000 C 
ATOM      4  C   UNL     1       7.308   4.810  17.640  0.00  0.00    +0.000 C 
ATOM      5  C   UNL     1       7.278   5.651  16.345  0.00  0.00    +0.000 C 
ATOM      6  C   UNL     1       6.549   6.988  16.664  0.00  0.00    +0.000 C 
ATOM      7  C   UNL     1       5.139   6.708  17.205  0.00  0.00    +0.000 C 
ENDROOT
BRANCH   5   8
ATOM      8  C   UNL     1       6.731   4.912  15.108  0.00  0.00    +0.000 A 
ATOM      9  C   UNL     1       5.606   4.068  15.159  0.00  0.00    +0.000 A 
ATOM     10  C   UNL     1       5.138   3.389  14.032  0.00  0.00    +0.000 A 
ATOM     11  C   UNL     1       5.810   3.519  12.826  0.00  0.00    +0.000 A 
ATOM     12 CL   UNL     1       5.247   2.666  11.441  0.00  0.00    +0.000 Cl
ATOM     13  C   UNL     1       6.944   4.321  12.742  0.00  0.00    +0.000 A 
ATOM     14  C   UNL     1       7.402   5.009  13.875  0.00  0.00    +0.000 A 
ENDBRANCH   5   8
BRANCH   6  15
ATOM     15  C   UNL     1       7.375   7.828  17.600  0.00  0.00    +0.000 A 
ATOM     16  N   UNL     1       7.569   9.128  17.575  0.00  0.00    +0.000 NA
ATOM     17  C   UNL     1       8.560   9.303  18.521  0.00  0.00    +0.000 A 
ATOM     18  N   UNL     1       8.929   8.172  19.139  0.00  0.00    +0.000 NA
ATOM     19  O   UNL     1       8.141   7.197  18.538  0.00  0.00    +0.000 OA
BRANCH  17  20
ATOM     20  C   UNL     1       9.191  10.600  18.740  0.00  0.00    +0.000 A 
ATOM     21  C   UNL     1       8.945  11.646  17.842  0.00  0.00    +0.000 A 
ATOM     22  C   UNL     1       9.596  12.873  17.984  0.00  0.00    +0.000 A 
ATOM     23  C   UNL     1      10.498  13.060  19.029  0.00  0.00    +0.000 A 
ATOM     24 CL   UNL     1      11.331  14.558  19.179  0.00  0.00    +0.000 Cl
ATOM     25  C   UNL     1      10.740  12.037  19.944  0.00  0.00    +0.000 A 
ATOM     26  C   UNL     1      10.085  10.810  19.803  0.00  0.00    +0.000 A 
ENDBRANCH  17  20
ENDBRANCH   6  15
TORSDOF 3
ENDMDL
MODEL 3
REMARK VINA RESULT:      -7.5      4.138      5.896
REMARK  Name = 
REMARK  4 active torsions:
REMARK  status: ('A' for Active; 'I' for Inactive)
REMARK    1  A    between atoms: C_1  and  N_2
REMARK    2  A    between atoms: C_5  and  C_6
REMARK    3  A    between atoms: C_13  and  C_14
REMARK    4  A    between atoms: C_16  and  C_17
REMARK                            x       y       z     vdW  Elec       q    Type
REMARK                         _______ _______ _______ _____ _____    ______ ____
ROOT
ATOM      1  C   UNL     1       3.710   5.392  18.576  0.00  0.00    +0.000 C 
ATOM      2  N   UNL     1       5.097   5.738  18.257  0.00  0.00    +0.000 NA
ATOM      3  C   UNL     1       5.913   4.524  18.151  0.00  0.00    +0.000 C 
ATOM      4  C   UNL     1       7.319   4.734  17.566  0.00  0.00    +0.000 C 
ATOM      5  C   UNL     1       7.311   5.571  16.268  0.00  0.00    +0.000 C 
ATOM      6  C   UNL     1       6.563   6.902  16.565  0.00  0.00    +0.000 C 
ATOM      7  C   UNL     1       5.144   6.611  17.076  0.00  0.00    +0.000 C 
ENDROOT
BRANCH   5   8
ATOM      8  C   UNL     1       6.798   4.823  15.021  0.00  0.00    +0.000 A 
ATOM      9  C   UNL     1       7.428   4.912  13.766  0.00  0.00    +0.000 A 
ATOM     10  C   UNL     1       6.936   4.245  12.642  0.00  0.00    +0.000 A 
ATOM     11  C   UNL     1       5.776   3.492  12.745  0.00  0.00    +0.000 A 
ATOM     12 CL   UNL     1       5.156   2.687  11.356  0.00  0.00    +0.000 Cl
ATOM     13  C   UNL     1       5.108   3.404  13.962  0.00  0.00    +0.000 A 
ATOM     14  C   UNL     1       5.613   4.067  15.089  0.00  0.00    +0.000 A 
ENDBRANCH   5   8
BRANCH   6  15
ATOM     15  C   UNL     1       7.360   7.752  17.517  0.00  0.00    +0.000 A 
ATOM     16  N   UNL     1       7.549   9.053  17.489  0.00  0.00    +0.000 NA
ATOM     17  C   UNL     1       8.514   9.239  18.459  0.00  0.00    +0.000 A 
ATOM     18  N   UNL     1       8.872   8.115  19.095  0.00  0.00    +0.000 NA
ATOM     19  O   UNL     1       8.104   7.132  18.479  0.00  0.00    +0.000 OA
BRANCH  17  20
ATOM     20  C   UNL     1       9.132  10.541  18.686  0.00  0.00    +0.000 A 
ATOM     21  C   UNL     1       9.921  10.740  19.826  0.00  0.00    +0.000 A 
ATOM     22  C   UNL     1      10.459  11.997  20.108  0.00  0.00    +0.000 A 
ATOM     23  C   UNL     1      10.212  13.064  19.248  0.00  0.00    +0.000 A 
ATOM     24 CL   UNL     1      10.841  14.621  19.617  0.00  0.00    +0.000 Cl
ATOM     25  C   UNL     1       9.446  12.880  18.098  0.00  0.00    +0.000 A 
ATOM     26  C   UNL     1       8.909  11.619  17.815  0.00  0.00    +0.000 A 
ENDBRANCH  17  20
ENDBRANCH   6  15
TORSDOF 3
ENDMDL
MODEL 4
REMARK VINA RESULT:      -7.4      4.241      6.129
REMARK  Name = 
REMARK  4 active torsions:
REMARK  status: ('A' for Active; 'I' for Inactive)
REMARK    1  A    between atoms: C_1  and  N_2
REMARK    2  A    between atoms: C_5  and  C_6
REMARK    3  A    between atoms: C_13  and  C_14
REMARK    4  A    between atoms: C_16  and  C_17
REMARK                            x       y       z     vdW  Elec       q    Type
REMARK                         _______ _______ _______ _____ _____    ______ ____
ROOT
ATOM      1  C   UNL     1       3.316   6.185  18.144  0.00  0.00    +0.000 C 
ATOM      2  N   UNL     1       4.775   6.262  18.036  0.00  0.00    +0.000 NA
ATOM      3  C   UNL     1       5.362   4.921  18.121  0.00  0.00    +0.000 C 
ATOM      4  C   UNL     1       6.854   4.841  17.759  0.00  0.00    +0.000 C 
ATOM      5  C   UNL     1       7.192   5.565  16.438  0.00  0.00    +0.000 C 
ATOM      6  C   UNL     1       6.664   7.024  16.548  0.00  0.00    +0.000 C 
ATOM      7  C   UNL     1       5.155   7.022  16.837  0.00  0.00    +0.000 C 
ENDROOT
BRANCH   5   8
ATOM      8  C   UNL     1       6.745   4.825  15.162  0.00  0.00    +0.000 A 
ATOM      9  C   UNL     1       7.375   5.002  13.917  0.00  0.00    +0.000 A 
ATOM     10  C   UNL     1       6.940   4.340  12.766  0.00  0.00    +0.000 A 
ATOM     11  C   UNL     1       5.838   3.501  12.834  0.00  0.00    +0.000 A 
ATOM     12 CL   UNL     1       5.288   2.701  11.413  0.00  0.00    +0.000 Cl
ATOM     13  C   UNL     1       5.169   3.324  14.041  0.00  0.00    +0.000 A 
ATOM     14  C   UNL     1       5.617   3.984  15.195  0.00  0.00    +0.000 A 
ENDBRANCH   5   8
BRANCH   6  15
ATOM     15  C   UNL     1       7.451   7.794  17.573  0.00  0.00    +0.000 A 
ATOM     16  N   UNL     1       7.708   9.083  17.607  0.00  0.00    +0.000 NA
ATOM     17  C   UNL     1       8.628   9.180  18.633  0.00  0.00    +0.000 A 
ATOM     18  N   UNL     1       8.892   8.015  19.241  0.00  0.00    +0.000 NA
ATOM     19  O   UNL     1       8.109   7.098  18.547  0.00  0.00    +0.000 OA
BRANCH  17  20
ATOM     20  C   UNL     1       9.299  10.438  18.944  0.00  0.00    +0.000 A 
ATOM     21  C   UNL     1       9.826  11.214  17.904  0.00  0.00    +0.000 A 
ATOM     22  C   UNL     1      10.541  12.380  18.179  0.00  0.00    +0.000 A 
ATOM     23  C   UNL     1      10.733  12.779  19.500  0.00  0.00    +0.000 A 
ATOM     24 CL   UNL     1      11.650  14.194  19.840  0.00  0.00    +0.000 Cl
ATOM     25  C   UNL     1      10.200  12.030  20.547  0.00  0.00    +0.000 A 
ATOM     26  C   UNL     1       9.480  10.862  20.270  0.00  0.00    +0.000 A 
ENDBRANCH  17  20
ENDBRANCH   6  15
TORSDOF 3
ENDMDL
MODEL 5
REMARK VINA RESULT:      -7.4      0.498      1.066
REMARK  Name = 
REMARK  4 active torsions:
REMARK  status: ('A' for Active; 'I' for Inactive)
REMARK    1  A    between atoms: C_1  and  N_2
REMARK    2  A    between atoms: C_5  and  C_6
REMARK    3  A    between atoms: C_13  and  C_14
REMARK    4  A    between atoms: C_16  and  C_17
REMARK                            x       y       z     vdW  Elec       q    Type
REMARK                         _______ _______ _______ _____ _____    ______ ____
ROOT
ATOM      1  C   UNL     1       8.116   4.852  18.676  0.00  0.00    +0.000 C 
ATOM      2  N   UNL     1       6.840   5.382  18.190  0.00  0.00    +0.000 NA
ATOM      3  C   UNL     1       7.072   6.423  17.183  0.00  0.00    +0.000 C 
ATOM      4  C   UNL     1       5.822   6.870  16.409  0.00  0.00    +0.000 C 
ATOM      5  C   UNL     1       4.992   5.684  15.871  0.00  0.00    +0.000 C 
ATOM      6  C   UNL     1       4.670   4.746  17.069  0.00  0.00    +0.000 C 
ATOM      7  C   UNL     1       5.971   4.284  17.745  0.00  0.00    +0.000 C 
ENDROOT
BRANCH   5   8
ATOM      8  C   UNL     1       5.607   4.965  14.653  0.00  0.00    +0.000 A 
ATOM      9  C   UNL     1       4.931   3.957  13.942  0.00  0.00    +0.000 A 
ATOM     10  C   UNL     1       5.513   3.300  12.855  0.00  0.00    +0.000 A 
ATOM     11  C   UNL     1       6.806   3.624  12.472  0.00  0.00    +0.000 A 
ATOM     12 CL   UNL     1       7.533   2.802  11.146  0.00  0.00    +0.000 Cl
ATOM     13  C   UNL     1       7.518   4.595  13.169  0.00  0.00    +0.000 A 
ATOM     14  C   UNL     1       6.924   5.257  14.253  0.00  0.00    +0.000 A 
ENDBRANCH   5   8
BRANCH   6  15
ATOM     15  C   UNL     1       3.726   5.420  18.027  0.00  0.00    +0.000 A 
ATOM     16  N   UNL     1       3.110   6.574  17.891  0.00  0.00    +0.000 NA
ATOM     17  C   UNL     1       2.563   6.772  19.144  0.00  0.00    +0.000 A 
ATOM     18  N   UNL     1       2.785   5.767  20.002  0.00  0.00    +0.000 NA
ATOM     19  O   UNL     1       3.547   4.868  19.263  0.00  0.00    +0.000 OA
BRANCH  17  20
ATOM     20  C   UNL     1       1.884   8.015  19.496  0.00  0.00    +0.000 A 
ATOM     21  C   UNL     1       1.386   8.184  20.794  0.00  0.00    +0.000 A 
ATOM     22  C   UNL     1       0.664   9.330  21.134  0.00  0.00    +0.000 A 
ATOM     23  C   UNL     1       0.439  10.315  20.177  0.00  0.00    +0.000 A 
ATOM     24 CL   UNL     1      -0.486  11.707  20.586  0.00  0.00    +0.000 Cl
ATOM     25  C   UNL     1       0.944  10.174  18.885  0.00  0.00    +0.000 A 
ATOM     26  C   UNL     1       1.670   9.027  18.546  0.00  0.00    +0.000 A 
ENDBRANCH  17  20
ENDBRANCH   6  15
TORSDOF 3
ENDMDL
MODEL 6
REMARK VINA RESULT:      -7.4      3.064      9.186
REMARK  Name = 
REMARK  4 active torsions:
REMARK  status: ('A' for Active; 'I' for Inactive)
REMARK    1  A    between atoms: C_1  and  N_2
REMARK    2  A    between atoms: C_5  and  C_6
REMARK    3  A    between atoms: C_13  and  C_14
REMARK    4  A    between atoms: C_16  and  C_17
REMARK                            x       y       z     vdW  Elec       q    Type
REMARK                         _______ _______ _______ _____ _____    ______ ____
ROOT
ATOM      1  C   UNL     1       1.739  13.070  20.288  0.00  0.00    +0.000 C 
ATOM      2  N   UNL     1       1.391  11.671  20.030  0.00  0.00    +0.000 NA
ATOM      3  C   UNL     1       0.352  11.225  20.964  0.00  0.00    +0.000 C 
ATOM      4  C   UNL     1      -0.282   9.866  20.629  0.00  0.00    +0.000 C 
ATOM      5  C   UNL     1      -0.710   9.750  19.150  0.00  0.00    +0.000 C 
ATOM      6  C   UNL     1       0.528  10.083  18.270  0.00  0.00    +0.000 C 
ATOM      7  C   UNL     1       1.060  11.484  18.611  0.00  0.00    +0.000 C 
ENDROOT
BRANCH   5   8
ATOM      8  C   UNL     1      -1.980  10.542  18.781  0.00  0.00    +0.000 A 
ATOM      9  C   UNL     1      -2.449  11.628  19.542  0.00  0.00    +0.000 A 
ATOM     10  C   UNL     1      -3.615  12.320  19.206  0.00  0.00    +0.000 A 
ATOM     11  C   UNL     1      -4.357  11.916  18.107  0.00  0.00    +0.000 A 
ATOM     12 CL   UNL     1      -5.805  12.754  17.702  0.00  0.00    +0.000 Cl
ATOM     13  C   UNL     1      -3.942  10.827  17.346  0.00  0.00    +0.000 A 
ATOM     14  C   UNL     1      -2.766  10.144  17.684  0.00  0.00    +0.000 A 
ENDBRANCH   5   8
BRANCH   6  15
ATOM     15  C   UNL     1       1.577   9.014  18.409  0.00  0.00    +0.000 A 
ATOM     16  N   UNL     1       2.349   8.501  17.477  0.00  0.00    +0.000 NA
ATOM     17  C   UNL     1       2.943   7.438  18.128  0.00  0.00    +0.000 A 
ATOM     18  N   UNL     1       2.596   7.326  19.418  0.00  0.00    +0.000 NA
ATOM     19  O   UNL     1       1.699   8.373  19.608  0.00  0.00    +0.000 OA
BRANCH  17  20
ATOM     20  C   UNL     1       3.799   6.489  17.425  0.00  0.00    +0.000 A 
ATOM     21  C   UNL     1       4.698   6.957  16.458  0.00  0.00    +0.000 A 
ATOM     22  C   UNL     1       5.472   6.063  15.715  0.00  0.00    +0.000 A 
ATOM     23  C   UNL     1       5.351   4.693  15.938  0.00  0.00    +0.000 A 
ATOM     24 CL   UNL     1       6.274   3.591  14.993  0.00  0.00    +0.000 Cl
ATOM     25  C   UNL     1       4.476   4.210  16.909  0.00  0.00    +0.000 A 
ATOM     26  C   UNL     1       3.704   5.107  17.655  0.00  0.00    +0.000 A 
ENDBRANCH  17  20
ENDBRANCH   6  15
TORSDOF 3
ENDMDL
MODEL 7
REMARK VINA RESULT:      -7.4      1.404      2.120
REMARK  Name = 
REMARK  4 active torsions:
REMARK  status: ('A' for Active; 'I' for Inactive)
REMARK    1  A    between atoms: C_1  and  N_2
REMARK    2  A    between atoms: C_5  and  C_6
REMARK    3  A    between atoms: C_13  and  C_14
REMARK    4  A    between atoms: C_16  and  C_17
REMARK                            x       y       z     vdW  Elec       q    Type
REMARK                         _______ _______ _______ _____ _____    ______ ____
ROOT
ATOM      1  C   UNL     1       4.453   2.288  19.531  0.00  0.00    +0.000 C 
ATOM      2  N   UNL     1       4.301   3.706  19.196  0.00  0.00    +0.000 NA
ATOM      3  C   UNL     1       5.615   4.344  19.075  0.00  0.00    +0.000 C 
ATOM      4  C   UNL     1       5.598   5.759  18.473  0.00  0.00    +0.000 C 
ATOM      5  C   UNL     1       4.760   5.851  17.179  0.00  0.00    +0.000 C 
ATOM      6  C   UNL     1       3.340   5.299  17.492  0.00  0.00    +0.000 C 
ATOM      7  C   UNL     1       3.435   3.859  18.019  0.00  0.00    +0.000 C 
ENDROOT
BRANCH   5   8
ATOM      8  C   UNL     1       5.422   5.226  15.935  0.00  0.00    +0.000 A 
ATOM      9  C   UNL     1       6.787   5.388  15.635  0.00  0.00    +0.000 A 
ATOM     10  C   UNL     1       7.364   4.832  14.490  0.00  0.00    +0.000 A 
ATOM     11  C   UNL     1       6.574   4.121  13.601  0.00  0.00    +0.000 A 
ATOM     12 CL   UNL     1       7.279   3.453  12.180  0.00  0.00    +0.000 Cl
ATOM     13  C   UNL     1       5.213   3.964  13.848  0.00  0.00    +0.000 A 
ATOM     14  C   UNL     1       4.642   4.516  15.004  0.00  0.00    +0.000 A 
ENDBRANCH   5   8
BRANCH   6  15
ATOM     15  C   UNL     1       2.614   6.217  18.437  0.00  0.00    +0.000 A 
ATOM     16  N   UNL     1       2.146   7.424  18.207  0.00  0.00    +0.000 NA
ATOM     17  C   UNL     1       1.782   7.852  19.468  0.00  0.00    +0.000 A 
ATOM     18  N   UNL     1       1.969   6.937  20.430  0.00  0.00    +0.000 NA
ATOM     19  O   UNL     1       2.511   5.852  19.749  0.00  0.00    +0.000 OA
BRANCH  17  20
ATOM     20  C   UNL     1       1.322   9.215  19.712  0.00  0.00    +0.000 A 
ATOM     21  C   UNL     1       1.341  10.146  18.665  0.00  0.00    +0.000 A 
ATOM     22  C   UNL     1       0.981  11.476  18.891  0.00  0.00    +0.000 A 
ATOM     23  C   UNL     1       0.598  11.882  20.167  0.00  0.00    +0.000 A 
ATOM     24 CL   UNL     1       0.194  13.530  20.453  0.00  0.00    +0.000 Cl
ATOM     25  C   UNL     1       0.554  10.965  21.216  0.00  0.00    +0.000 A 
ATOM     26  C   UNL     1       0.912   9.632  20.988  0.00  0.00    +0.000 A 
ENDBRANCH  17  20
ENDBRANCH   6  15
TORSDOF 3
ENDMDL
MODEL 8
REMARK VINA RESULT:      -7.4      1.558      2.398
REMARK  Name = 
REMARK  4 active torsions:
REMARK  status: ('A' for Active; 'I' for Inactive)
REMARK    1  A    between atoms: C_1  and  N_2
REMARK    2  A    between atoms: C_5  and  C_6
REMARK    3  A    between atoms: C_13  and  C_14
REMARK    4  A    between atoms: C_16  and  C_17
REMARK                            x       y       z     vdW  Elec       q    Type
REMARK                         _______ _______ _______ _____ _____    ______ ____
ROOT
ATOM      1  C   UNL     1       3.189   1.667  18.610  0.00  0.00    +0.000 C 
ATOM      2  N   UNL     1       3.379   3.099  18.853  0.00  0.00    +0.000 NA
ATOM      3  C   UNL     1       4.782   3.379  19.174  0.00  0.00    +0.000 C 
ATOM      4  C   UNL     1       5.160   4.869  19.191  0.00  0.00    +0.000 C 
ATOM      5  C   UNL     1       4.664   5.629  17.942  0.00  0.00    +0.000 C 
ATOM      6  C   UNL     1       3.133   5.385  17.814  0.00  0.00    +0.000 C 
ATOM      7  C   UNL     1       2.841   3.879  17.729  0.00  0.00    +0.000 C 
ENDROOT
BRANCH   5   8
ATOM      8  C   UNL     1       5.460   5.343  16.654  0.00  0.00    +0.000 A 
ATOM      9  C   UNL     1       6.800   5.734  16.483  0.00  0.00    +0.000 A 
ATOM     10  C   UNL     1       7.499   5.486  15.298  0.00  0.00    +0.000 A 
ATOM     11  C   UNL     1       6.855   4.861  14.242  0.00  0.00    +0.000 A 
ATOM     12 CL   UNL     1       7.707   4.573  12.774  0.00  0.00    +0.000 Cl
ATOM     13  C   UNL     1       5.521   4.485  14.362  0.00  0.00    +0.000 A 
ATOM     14  C   UNL     1       4.829   4.728  15.557  0.00  0.00    +0.000 A 
ENDBRANCH   5   8
BRANCH   6  15
ATOM     15  C   UNL     1       2.396   6.057  18.941  0.00  0.00    +0.000 A 
ATOM     16  N   UNL     1       1.902   7.274  18.982  0.00  0.00    +0.000 NA
ATOM     17  C   UNL     1       1.539   7.408  20.308  0.00  0.00    +0.000 A 
ATOM     18  N   UNL     1       1.752   6.308  21.045  0.00  0.00    +0.000 NA
ATOM     19  O   UNL     1       2.311   5.411  20.141  0.00  0.00    +0.000 OA
BRANCH  17  20
ATOM     20  C   UNL     1       1.054   8.673  20.847  0.00  0.00    +0.000 A 
ATOM     21  C   UNL     1       0.649   8.742  22.187  0.00  0.00    +0.000 A 
ATOM     22  C   UNL     1       0.107   9.919  22.706  0.00  0.00    +0.000 A 
ATOM     23  C   UNL     1      -0.032  11.037  21.887  0.00  0.00    +0.000 A 
ATOM     24 CL   UNL     1      -0.738  12.473  22.516  0.00  0.00    +0.000 Cl
ATOM     25  C   UNL     1       0.383  10.993  20.557  0.00  0.00    +0.000 A 
ATOM     26  C   UNL     1       0.930   9.814  20.038  0.00  0.00    +0.000 A 
ENDBRANCH  17  20
ENDBRANCH   6  15
TORSDOF 3
ENDMDL
MODEL 9
REMARK VINA RESULT:      -7.4      0.206      1.352
REMARK  Name = 
REMARK  4 active torsions:
REMARK  status: ('A' for Active; 'I' for Inactive)
REMARK    1  A    between atoms: C_1  and  N_2
REMARK    2  A    between atoms: C_5  and  C_6
REMARK    3  A    between atoms: C_13  and  C_14
REMARK    4  A    between atoms: C_16  and  C_17
REMARK                            x       y       z     vdW  Elec       q    Type
REMARK                         _______ _______ _______ _____ _____    ______ ____
ROOT
ATOM      1  C   UNL     1       8.083   5.124  19.036  0.00  0.00    +0.000 C 
ATOM      2  N   UNL     1       6.778   5.588  18.559  0.00  0.00    +0.000 NA
ATOM      3  C   UNL     1       6.949   6.648  17.561  0.00  0.00    +0.000 C 
ATOM      4  C   UNL     1       5.672   7.033  16.796  0.00  0.00    +0.000 C 
ATOM      5  C   UNL     1       4.906   5.809  16.251  0.00  0.00    +0.000 C 
ATOM      6  C   UNL     1       4.641   4.844  17.442  0.00  0.00    +0.000 C 
ATOM      7  C   UNL     1       5.968   4.448  18.108  0.00  0.00    +0.000 C 
ENDROOT
BRANCH   5   8
ATOM      8  C   UNL     1       5.553   5.136  15.024  0.00  0.00    +0.000 A 
ATOM      9  C   UNL     1       4.910   4.131  14.278  0.00  0.00    +0.000 A 
ATOM     10  C   UNL     1       5.521   3.516  13.183  0.00  0.00    +0.000 A 
ATOM     11  C   UNL     1       6.811   3.878  12.827  0.00  0.00    +0.000 A 
ATOM     12 CL   UNL     1       7.575   3.107  11.491  0.00  0.00    +0.000 Cl
ATOM     13  C   UNL     1       7.492   4.847  13.559  0.00  0.00    +0.000 A 
ATOM     14  C   UNL     1       6.868   5.467  14.651  0.00  0.00    +0.000 A 
ENDBRANCH   5   8
BRANCH   6  15
ATOM     15  C   UNL     1       3.666   5.457  18.410  0.00  0.00    +0.000 A 
ATOM     16  N   UNL     1       3.030   6.603  18.313  0.00  0.00    +0.000 NA
ATOM     17  C   UNL     1       2.455   6.737  19.562  0.00  0.00    +0.000 A 
ATOM     18  N   UNL     1       2.682   5.699  20.380  0.00  0.00    +0.000 NA
ATOM     19  O   UNL     1       3.476   4.848  19.617  0.00  0.00    +0.000 OA
BRANCH  17  20
ATOM     20  C   UNL     1       1.746   7.949  19.955  0.00  0.00    +0.000 A 
ATOM     21  C   UNL     1       1.566   8.976  19.019  0.00  0.00    +0.000 A 
ATOM     22  C   UNL     1       0.960  10.178  19.390  0.00  0.00    +0.000 A 
ATOM     23  C   UNL     1       0.529  10.359  20.702  0.00  0.00    +0.000 A 
ATOM     24 CL   UNL     1      -0.179  11.856  21.168  0.00  0.00    +0.000 Cl
ATOM     25  C   UNL     1       0.682   9.341  21.642  0.00  0.00    +0.000 A 
ATOM     26  C   UNL     1       1.286   8.136  21.268  0.00  0.00    +0.000 A 
ENDBRANCH  17  20
ENDBRANCH   6  15
TORSDOF 3
ENDMDL
