MODEL 1
REMARK VINA RESULT:      -8.6      0.000      0.000
REMARK  Name = 
REMARK  10 active torsions:
REMARK  status: ('A' for Active; 'I' for Inactive)
REMARK    1  A    between atoms: C_1  and  C_2
REMARK    2  A    between atoms: C_4  and  C_5
REMARK    3  A    between atoms: N_7  and  C_8
REMARK    4  A    between atoms: C_8  and  C_9
REMARK    5  A    between atoms: C_9  and  C_10
REMARK    6  A    between atoms: C_10  and  N_11
REMARK    7  A    between atoms: C_12  and  C_14
REMARK    8  A    between atoms: C_14  and  C_15
REMARK    9  A    between atoms: C_15  and  C_16
REMARK   10  A    between atoms: C_20  and  C_21
REMARK                            x       y       z     vdW  Elec       q    Type
REMARK                         _______ _______ _______ _____ _____    ______ ____
ROOT
ATOM      1  N   UNL     1       8.185   7.143  18.867  0.00  0.00    +0.000 N 
ATOM      2  C   UNL     1       7.865   7.798  17.704  0.00  0.00    +0.000 C 
ATOM      3  O   UNL     1       7.447   7.227  16.700  0.00  0.00    +0.000 OA
ATOM      4  H   UNL     1       8.590   7.650  19.644  0.00  0.00    +0.000 HD
ENDROOT
BRANCH   1   5
ATOM      5  C   UNL     1       8.077   5.704  18.981  0.00  0.00    +0.000 C 
BRANCH   5   6
ATOM      6  C   UNL     1       6.764   5.167  18.412  0.00  0.00    +0.000 C 
BRANCH   6   7
ATOM      7  C   UNL     1       5.560   5.407  19.337  0.00  0.00    +0.000 C 
BRANCH   7  14
ATOM      8  C   UNL     1       3.492   1.803  17.866  0.00  0.00    +0.000 C 
ATOM      9  C   UNL     1       3.060   3.220  17.467  0.00  0.00    +0.000 C 
ATOM     10  C   UNL     1       1.794   3.657  18.214  0.00  0.00    +0.000 C 
ATOM     11  C   UNL     1       2.087   3.878  19.699  0.00  0.00    +0.000 C 
ATOM     12  C   UNL     1       0.845   4.372  20.436  0.00  0.00    +0.000 C 
ATOM     13  C   UNL     1       3.251   4.862  19.867  0.00  0.00    +0.000 C 
ATOM     14  N   UNL     1       4.464   4.436  19.146  0.00  0.00    +0.000 NA
ATOM     15  C   UNL     1       4.184   4.245  17.710  0.00  0.00    +0.000 C 
ENDBRANCH   7  14
ENDBRANCH   6   7
ENDBRANCH   5   6
ENDBRANCH   1   5
BRANCH   2  16
ATOM     16  C   UNL     1       8.095   9.289  17.757  0.00  0.00    +0.000 C 
BRANCH  16  17
ATOM     17  C   UNL     1       8.961   9.629  18.963  0.00  0.00    +0.000 C 
BRANCH  17  18
ATOM     18  C   UNL     1       9.543  11.029  18.855  0.00  0.00    +0.000 C 
ATOM     19  O   UNL     1       9.912  11.422  17.753  0.00  0.00    +0.000 OA
ATOM     20  N   UNL     1       9.548  11.786  20.036  0.00  0.00    +0.000 N 
ATOM     21  C   UNL     1       9.070  11.257  21.322  0.00  0.00    +0.000 C 
ATOM     22  C   UNL     1       8.392  12.341  22.146  0.00  0.00    +0.000 C 
ATOM     23  C   UNL     1       7.868  11.767  23.458  0.00  0.00    +0.000 C 
ATOM     24  O   UNL     1       9.322  13.379  22.459  0.00  0.00    +0.000 OA
ATOM     25  C   UNL     1      10.018  13.816  21.355  0.00  0.00    +0.000 A 
ATOM     26  C   UNL     1      10.629  15.065  21.518  0.00  0.00    +0.000 A 
ATOM     27  C   UNL     1      11.358  15.631  20.479  0.00  0.00    +0.000 A 
ATOM     28  C   UNL     1      11.488  14.943  19.278  0.00  0.00    +0.000 A 
ATOM     29  C   UNL     1      10.889  13.689  19.118  0.00  0.00    +0.000 A 
ATOM     30  C   UNL     1      10.146  13.096  20.146  0.00  0.00    +0.000 A 
ENDBRANCH  17  18
ENDBRANCH  16  17
ENDBRANCH   2  16
TORSDOF 7
ENDMDL
MODEL 2
REMARK VINA RESULT:      -8.5      6.900     10.456
REMARK  Name = 
REMARK  10 active torsions:
REMARK  status: ('A' for Active; 'I' for Inactive)
REMARK    1  A    between atoms: C_1  and  C_2
REMARK    2  A    between atoms: C_4  and  C_5
REMARK    3  A    between atoms: N_7  and  C_8
REMARK    4  A    between atoms: C_8  and  C_9
REMARK    5  A    between atoms: C_9  and  C_10
REMARK    6  A    between atoms: C_10  and  N_11
REMARK    7  A    between atoms: C_12  and  C_14
REMARK    8  A    between atoms: C_14  and  C_15
REMARK    9  A    between atoms: C_15  and  C_16
REMARK   10  A    between atoms: C_20  and  C_21
REMARK                            x       y       z     vdW  Elec       q    Type
REMARK                         _______ _______ _______ _____ _____    ______ ____
ROOT
ATOM      1  N   UNL     1       1.965   7.698  19.306  0.00  0.00    +0.000 N 
ATOM      2  C   UNL     1       1.566   8.846  19.942  0.00  0.00    +0.000 C 
ATOM      3  O   UNL     1       1.411   8.926  21.158  0.00  0.00    +0.000 OA
ATOM      4  H   UNL     1       2.013   7.663  18.295  0.00  0.00    +0.000 HD
ENDROOT
BRANCH   1   5
ATOM      5  C   UNL     1       2.205   6.471  20.036  0.00  0.00    +0.000 C 
BRANCH   5   6
ATOM      6  C   UNL     1       3.146   5.521  19.295  0.00  0.00    +0.000 C 
BRANCH   6   7
ATOM      7  C   UNL     1       3.002   5.597  17.766  0.00  0.00    +0.000 C 
BRANCH   7  14
ATOM      8  C   UNL     1       5.919   4.407  14.684  0.00  0.00    +0.000 C 
ATOM      9  C   UNL     1       6.083   4.028  16.161  0.00  0.00    +0.000 C 
ATOM     10  C   UNL     1       7.146   4.891  16.852  0.00  0.00    +0.000 C 
ATOM     11  C   UNL     1       6.663   6.334  17.000  0.00  0.00    +0.000 C 
ATOM     12  C   UNL     1       7.692   7.184  17.742  0.00  0.00    +0.000 C 
ATOM     13  C   UNL     1       5.308   6.366  17.717  0.00  0.00    +0.000 C 
ATOM     14  N   UNL     1       4.291   5.534  17.048  0.00  0.00    +0.000 NA
ATOM     15  C   UNL     1       4.750   4.138  16.926  0.00  0.00    +0.000 C 
ENDBRANCH   7  14
ENDBRANCH   6   7
ENDBRANCH   5   6
ENDBRANCH   1   5
BRANCH   2  16
ATOM     16  C   UNL     1       1.310  10.006  19.010  0.00  0.00    +0.000 C 
BRANCH  16  17
ATOM     17  C   UNL     1       0.039   9.748  18.212  0.00  0.00    +0.000 C 
BRANCH  17  18
ATOM     18  C   UNL     1      -1.103  10.636  18.679  0.00  0.00    +0.000 C 
ATOM     19  O   UNL     1      -0.974  11.240  19.739  0.00  0.00    +0.000 OA
ATOM     20  N   UNL     1      -2.198  10.739  17.808  0.00  0.00    +0.000 N 
ATOM     21  C   UNL     1      -2.277  10.000  16.539  0.00  0.00    +0.000 C 
ATOM     22  C   UNL     1      -2.984  10.818  15.469  0.00  0.00    +0.000 C 
ATOM     23  C   UNL     1      -3.023  10.053  14.150  0.00  0.00    +0.000 C 
ATOM     24  O   UNL     1      -4.331  11.088  15.862  0.00  0.00    +0.000 OA
ATOM     25  C   UNL     1      -4.418  11.580  17.144  0.00  0.00    +0.000 A 
ATOM     26  C   UNL     1      -5.629  12.223  17.431  0.00  0.00    +0.000 A 
ATOM     27  C   UNL     1      -5.850  12.774  18.687  0.00  0.00    +0.000 A 
ATOM     28  C   UNL     1      -4.866  12.673  19.663  0.00  0.00    +0.000 A 
ATOM     29  C   UNL     1      -3.661  12.020  19.382  0.00  0.00    +0.000 A 
ATOM     30  C   UNL     1      -3.409  11.458  18.125  0.00  0.00    +0.000 A 
ENDBRANCH  17  18
ENDBRANCH  16  17
ENDBRANCH   2  16
TORSDOF 7
ENDMDL
MODEL 3
REMARK VINA RESULT:      -8.4      1.228      1.744
REMARK  Name = 
REMARK  10 active torsions:
REMARK  status: ('A' for Active; 'I' for Inactive)
REMARK    1  A    between atoms: C_1  and  C_2
REMARK    2  A    between atoms: C_4  and  C_5
REMARK    3  A    between atoms: N_7  and  C_8
REMARK    4  A    between atoms: C_8  and  C_9
REMARK    5  A    between atoms: C_9  and  C_10
REMARK    6  A    between atoms: C_10  and  N_11
REMARK    7  A    between atoms: C_12  and  C_14
REMARK    8  A    between atoms: C_14  and  C_15
REMARK    9  A    between atoms: C_15  and  C_16
REMARK   10  A    between atoms: C_20  and  C_21
REMARK                            x       y       z     vdW  Elec       q    Type
REMARK                         _______ _______ _______ _____ _____    ______ ____
ROOT
ATOM      1  N   UNL     1       7.345   6.716  16.792  0.00  0.00    +0.000 N 
ATOM      2  C   UNL     1       7.869   7.283  17.927  0.00  0.00    +0.000 C 
ATOM      3  O   UNL     1       8.151   6.641  18.935  0.00  0.00    +0.000 OA
ATOM      4  H   UNL     1       7.066   7.298  16.012  0.00  0.00    +0.000 HD
ENDROOT
BRANCH   1   5
ATOM      5  C   UNL     1       7.055   5.299  16.717  0.00  0.00    +0.000 C 
BRANCH   5   6
ATOM      6  C   UNL     1       5.621   5.017  16.270  0.00  0.00    +0.000 C 
BRANCH   6   7
ATOM      7  C   UNL     1       4.564   5.607  17.218  0.00  0.00    +0.000 C 
BRANCH   7  14
ATOM      8  C   UNL     1       0.997   3.309  18.409  0.00  0.00    +0.000 C 
ATOM      9  C   UNL     1       1.785   4.174  19.400  0.00  0.00    +0.000 C 
ATOM     10  C   UNL     1       2.660   3.321  20.326  0.00  0.00    +0.000 C 
ATOM     11  C   UNL     1       3.815   2.686  19.550  0.00  0.00    +0.000 C 
ATOM     12  C   UNL     1       4.724   1.884  20.479  0.00  0.00    +0.000 C 
ATOM     13  C   UNL     1       4.609   3.767  18.806  0.00  0.00    +0.000 C 
ATOM     14  N   UNL     1       3.762   4.584  17.918  0.00  0.00    +0.000 NA
ATOM     15  C   UNL     1       2.661   5.213  18.672  0.00  0.00    +0.000 C 
ENDBRANCH   7  14
ENDBRANCH   6   7
ENDBRANCH   5   6
ENDBRANCH   1   5
BRANCH   2  16
ATOM     16  C   UNL     1       8.050   8.779  17.836  0.00  0.00    +0.000 C 
BRANCH  16  17
ATOM     17  C   UNL     1       8.863   9.268  19.028  0.00  0.00    +0.000 C 
BRANCH  17  18
ATOM     18  C   UNL     1       9.440  10.652  18.779  0.00  0.00    +0.000 C 
ATOM     19  O   UNL     1       9.743  10.959  17.631  0.00  0.00    +0.000 OA
ATOM     20  N   UNL     1       9.518  11.496  19.897  0.00  0.00    +0.000 N 
ATOM     21  C   UNL     1       9.117  11.068  21.246  0.00  0.00    +0.000 C 
ATOM     22  C   UNL     1       8.493  12.216  22.025  0.00  0.00    +0.000 C 
ATOM     23  C   UNL     1       8.047  11.745  23.406  0.00  0.00    +0.000 C 
ATOM     24  O   UNL     1       9.442  13.268  22.202  0.00  0.00    +0.000 OA
ATOM     25  C   UNL     1      10.071  13.616  21.028  0.00  0.00    +0.000 A 
ATOM     26  C   UNL     1      10.693  14.870  21.060  0.00  0.00    +0.000 A 
ATOM     27  C   UNL     1      11.360  15.351  19.940  0.00  0.00    +0.000 A 
ATOM     28  C   UNL     1      11.416  14.574  18.788  0.00  0.00    +0.000 A 
ATOM     29  C   UNL     1      10.805  13.315  18.759  0.00  0.00    +0.000 A 
ATOM     30  C   UNL     1      10.125  12.807  19.872  0.00  0.00    +0.000 A 
ENDBRANCH  17  18
ENDBRANCH  16  17
ENDBRANCH   2  16
TORSDOF 7
ENDMDL
MODEL 4
REMARK VINA RESULT:      -8.4      1.007      1.772
REMARK  Name = 
REMARK  10 active torsions:
REMARK  status: ('A' for Active; 'I' for Inactive)
REMARK    1  A    between atoms: C_1  and  C_2
REMARK    2  A    between atoms: C_4  and  C_5
REMARK    3  A    between atoms: N_7  and  C_8
REMARK    4  A    between atoms: C_8  and  C_9
REMARK    5  A    between atoms: C_9  and  C_10
REMARK    6  A    between atoms: C_10  and  N_11
REMARK    7  A    between atoms: C_12  and  C_14
REMARK    8  A    between atoms: C_14  and  C_15
REMARK    9  A    between atoms: C_15  and  C_16
REMARK   10  A    between atoms: C_20  and  C_21
REMARK                            x       y       z     vdW  Elec       q    Type
REMARK                         _______ _______ _______ _____ _____    ______ ____
ROOT
ATOM      1  N   UNL     1       7.025   7.446  16.801  0.00  0.00    +0.000 N 
ATOM      2  C   UNL     1       7.839   7.845  17.831  0.00  0.00    +0.000 C 
ATOM      3  O   UNL     1       8.284   7.076  18.679  0.00  0.00    +0.000 OA
ATOM      4  H   UNL     1       6.630   8.130  16.168  0.00  0.00    +0.000 HD
ENDROOT
BRANCH   1   5
ATOM      5  C   UNL     1       6.602   6.068  16.660  0.00  0.00    +0.000 C 
BRANCH   5   6
ATOM      6  C   UNL     1       5.864   5.552  17.895  0.00  0.00    +0.000 C 
BRANCH   6   7
ATOM      7  C   UNL     1       4.814   4.478  17.568  0.00  0.00    +0.000 C 
BRANCH   7  14
ATOM      8  C   UNL     1       1.806   6.374  20.173  0.00  0.00    +0.000 C 
ATOM      9  C   UNL     1       2.548   5.092  20.571  0.00  0.00    +0.000 C 
ATOM     10  C   UNL     1       1.657   3.853  20.423  0.00  0.00    +0.000 C 
ATOM     11  C   UNL     1       1.383   3.553  18.948  0.00  0.00    +0.000 C 
ATOM     12  C   UNL     1       0.547   2.285  18.793  0.00  0.00    +0.000 C 
ATOM     13  C   UNL     1       2.705   3.435  18.179  0.00  0.00    +0.000 C 
ATOM     14  N   UNL     1       3.556   4.630  18.327  0.00  0.00    +0.000 NA
ATOM     15  C   UNL     1       3.837   4.904  19.749  0.00  0.00    +0.000 C 
ENDBRANCH   7  14
ENDBRANCH   6   7
ENDBRANCH   5   6
ENDBRANCH   1   5
BRANCH   2  16
ATOM     16  C   UNL     1       8.127   9.328  17.846  0.00  0.00    +0.000 C 
BRANCH  16  17
ATOM     17  C   UNL     1       9.060   9.655  19.003  0.00  0.00    +0.000 C 
BRANCH  17  18
ATOM     18  C   UNL     1       9.601  11.072  18.900  0.00  0.00    +0.000 C 
ATOM     19  O   UNL     1       9.973  11.474  17.803  0.00  0.00    +0.000 OA
ATOM     20  N   UNL     1       9.566  11.831  20.080  0.00  0.00    +0.000 N 
ATOM     21  C   UNL     1       9.086  11.290  21.360  0.00  0.00    +0.000 C 
ATOM     22  C   UNL     1       8.364  12.354  22.171  0.00  0.00    +0.000 C 
ATOM     23  C   UNL     1       7.839  11.766  23.477  0.00  0.00    +0.000 C 
ATOM     24  O   UNL     1       9.257  13.421  22.495  0.00  0.00    +0.000 OA
ATOM     25  C   UNL     1       9.955  13.877  21.400  0.00  0.00    +0.000 A 
ATOM     26  C   UNL     1      10.525  15.145  21.569  0.00  0.00    +0.000 A 
ATOM     27  C   UNL     1      11.251  15.730  20.540  0.00  0.00    +0.000 A 
ATOM     28  C   UNL     1      11.419  15.045  19.342  0.00  0.00    +0.000 A 
ATOM     29  C   UNL     1      10.861  13.773  19.176  0.00  0.00    +0.000 A 
ATOM     30  C   UNL     1      10.122  13.159  20.195  0.00  0.00    +0.000 A 
ENDBRANCH  17  18
ENDBRANCH  16  17
ENDBRANCH   2  16
TORSDOF 7
ENDMDL
MODEL 5
REMARK VINA RESULT:      -8.4      2.127     10.566
REMARK  Name = 
REMARK  10 active torsions:
REMARK  status: ('A' for Active; 'I' for Inactive)
REMARK    1  A    between atoms: C_1  and  C_2
REMARK    2  A    between atoms: C_4  and  C_5
REMARK    3  A    between atoms: N_7  and  C_8
REMARK    4  A    between atoms: C_8  and  C_9
REMARK    5  A    between atoms: C_9  and  C_10
REMARK    6  A    between atoms: C_10  and  N_11
REMARK    7  A    between atoms: C_12  and  C_14
REMARK    8  A    between atoms: C_14  and  C_15
REMARK    9  A    between atoms: C_15  and  C_16
REMARK   10  A    between atoms: C_20  and  C_21
REMARK                            x       y       z     vdW  Elec       q    Type
REMARK                         _______ _______ _______ _____ _____    ______ ____
ROOT
ATOM      1  N   UNL     1       8.924   8.963  19.169  0.00  0.00    +0.000 N 
ATOM      2  C   UNL     1       8.176   8.363  18.188  0.00  0.00    +0.000 C 
ATOM      3  O   UNL     1       7.764   8.955  17.194  0.00  0.00    +0.000 OA
ATOM      4  H   UNL     1       9.183   8.449  20.002  0.00  0.00    +0.000 HD
ENDROOT
BRANCH   1   5
ATOM      5  C   UNL     1       9.257  10.372  19.113  0.00  0.00    +0.000 C 
BRANCH   5   6
ATOM      6  C   UNL     1       9.389  10.999  20.501  0.00  0.00    +0.000 C 
BRANCH   6   7
ATOM      7  C   UNL     1      10.625  11.903  20.641  0.00  0.00    +0.000 C 
BRANCH   7  14
ATOM      8  C   UNL     1      10.337  15.837  22.607  0.00  0.00    +0.000 C 
ATOM      9  C   UNL     1       9.099  15.019  22.220  0.00  0.00    +0.000 C 
ATOM     10  C   UNL     1       8.418  15.582  20.967  0.00  0.00    +0.000 C 
ATOM     11  C   UNL     1       9.285  15.353  19.728  0.00  0.00    +0.000 C 
ATOM     12  C   UNL     1       8.585  15.857  18.468  0.00  0.00    +0.000 C 
ATOM     13  C   UNL     1       9.641  13.867  19.599  0.00  0.00    +0.000 C 
ATOM     14  N   UNL     1      10.295  13.333  20.808  0.00  0.00    +0.000 NA
ATOM     15  C   UNL     1       9.447  13.535  21.998  0.00  0.00    +0.000 C 
ENDBRANCH   7  14
ENDBRANCH   6   7
ENDBRANCH   5   6
ENDBRANCH   1   5
BRANCH   2  16
ATOM     16  C   UNL     1       7.884   6.904  18.447  0.00  0.00    +0.000 C 
BRANCH  16  17
ATOM     17  C   UNL     1       7.122   6.319  17.266  0.00  0.00    +0.000 C 
BRANCH  17  18
ATOM     18  C   UNL     1       6.240   5.156  17.692  0.00  0.00    +0.000 C 
ATOM     19  O   UNL     1       6.781   4.111  18.036  0.00  0.00    +0.000 OA
ATOM     20  N   UNL     1       4.859   5.408  17.716  0.00  0.00    +0.000 N 
ATOM     21  C   UNL     1       4.279   6.696  17.308  0.00  0.00    +0.000 C 
ATOM     22  C   UNL     1       3.059   7.041  18.149  0.00  0.00    +0.000 C 
ATOM     23  C   UNL     1       2.493   8.397  17.740  0.00  0.00    +0.000 C 
ATOM     24  O   UNL     1       2.036   6.061  17.962  0.00  0.00    +0.000 OA
ATOM     25  C   UNL     1       2.507   4.774  18.092  0.00  0.00    +0.000 A 
ATOM     26  C   UNL     1       1.508   3.818  18.314  0.00  0.00    +0.000 A 
ATOM     27  C   UNL     1       1.843   2.479  18.472  0.00  0.00    +0.000 A 
ATOM     28  C   UNL     1       3.176   2.091  18.396  0.00  0.00    +0.000 A 
ATOM     29  C   UNL     1       4.173   3.044  18.162  0.00  0.00    +0.000 A 
ATOM     30  C   UNL     1       3.866   4.400  18.002  0.00  0.00    +0.000 A 
ENDBRANCH  17  18
ENDBRANCH  16  17
ENDBRANCH   2  16
TORSDOF 7
ENDMDL
MODEL 6
REMARK VINA RESULT:      -8.3      1.030      1.077
REMARK  Name = 
REMARK  10 active torsions:
REMARK  status: ('A' for Active; 'I' for Inactive)
REMARK    1  A    between atoms: C_1  and  C_2
REMARK    2  A    between atoms: C_4  and  C_5
REMARK    3  A    between atoms: N_7  and  C_8
REMARK    4  A    between atoms: C_8  and  C_9
REMARK    5  A    between atoms: C_9  and  C_10
REMARK    6  A    between atoms: C_10  and  N_11
REMARK    7  A    between atoms: C_12  and  C_14
REMARK    8  A    between atoms: C_14  and  C_15
REMARK    9  A    between atoms: C_15  and  C_16
REMARK   10  A    between atoms: C_20  and  C_21
REMARK                            x       y       z     vdW  Elec       q    Type
REMARK                         _______ _______ _______ _____ _____    ______ ____
ROOT
ATOM      1  N   UNL     1       7.154   7.805  16.970  0.00  0.00    +0.000 N 
ATOM      2  C   UNL     1       8.033   8.143  17.968  0.00  0.00    +0.000 C 
ATOM      3  O   UNL     1       8.458   7.341  18.795  0.00  0.00    +0.000 OA
ATOM      4  H   UNL     1       6.780   8.517  16.355  0.00  0.00    +0.000 HD
ENDROOT
BRANCH   1   5
ATOM      5  C   UNL     1       6.635   6.459  16.841  0.00  0.00    +0.000 C 
BRANCH   5   6
ATOM      6  C   UNL     1       6.002   5.948  18.135  0.00  0.00    +0.000 C 
BRANCH   6   7
ATOM      7  C   UNL     1       5.859   4.417  18.176  0.00  0.00    +0.000 C 
BRANCH   7  14
ATOM      8  C   UNL     1       2.300   1.816  18.177  0.00  0.00    +0.000 C 
ATOM      9  C   UNL     1       2.288   3.227  17.574  0.00  0.00    +0.000 C 
ATOM     10  C   UNL     1       1.573   4.227  18.490  0.00  0.00    +0.000 C 
ATOM     11  C   UNL     1       2.391   4.487  19.755  0.00  0.00    +0.000 C 
ATOM     12  C   UNL     1       1.712   5.529  20.642  0.00  0.00    +0.000 C 
ATOM     13  C   UNL     1       3.812   4.926  19.384  0.00  0.00    +0.000 C 
ATOM     14  N   UNL     1       4.494   3.960  18.504  0.00  0.00    +0.000 NA
ATOM     15  C   UNL     1       3.714   3.727  17.273  0.00  0.00    +0.000 C 
ENDBRANCH   7  14
ENDBRANCH   6   7
ENDBRANCH   5   6
ENDBRANCH   1   5
BRANCH   2  16
ATOM     16  C   UNL     1       8.418   9.603  17.976  0.00  0.00    +0.000 C 
BRANCH  16  17
ATOM     17  C   UNL     1       9.264   9.900  19.207  0.00  0.00    +0.000 C 
BRANCH  17  18
ATOM     18  C   UNL     1       9.769  11.334  19.203  0.00  0.00    +0.000 C 
ATOM     19  O   UNL     1      10.251  11.778  18.167  0.00  0.00    +0.000 OA
ATOM     20  N   UNL     1       9.577  12.057  20.390  0.00  0.00    +0.000 N 
ATOM     21  C   UNL     1       8.972  11.465  21.593  0.00  0.00    +0.000 C 
ATOM     22  C   UNL     1       8.129  12.485  22.344  0.00  0.00    +0.000 C 
ATOM     23  C   UNL     1       7.478  11.845  23.565  0.00  0.00    +0.000 C 
ATOM     24  O   UNL     1       8.947  13.566  22.795  0.00  0.00    +0.000 OA
ATOM     25  C   UNL     1       9.750  14.073  21.799  0.00  0.00    +0.000 A 
ATOM     26  C   UNL     1      10.258  15.350  22.066  0.00  0.00    +0.000 A 
ATOM     27  C   UNL     1      11.078  15.986  21.142  0.00  0.00    +0.000 A 
ATOM     28  C   UNL     1      11.402  15.341  19.954  0.00  0.00    +0.000 A 
ATOM     29  C   UNL     1      10.906  14.059  19.692  0.00  0.00    +0.000 A 
ATOM     30  C   UNL     1      10.075  13.396  20.603  0.00  0.00    +0.000 A 
ENDBRANCH  17  18
ENDBRANCH  16  17
ENDBRANCH   2  16
TORSDOF 7
ENDMDL
MODEL 7
REMARK VINA RESULT:      -8.2      6.871     10.210
REMARK  Name = 
REMARK  10 active torsions:
REMARK  status: ('A' for Active; 'I' for Inactive)
REMARK    1  A    between atoms: C_1  and  C_2
REMARK    2  A    between atoms: C_4  and  C_5
REMARK    3  A    between atoms: N_7  and  C_8
REMARK    4  A    between atoms: C_8  and  C_9
REMARK    5  A    between atoms: C_9  and  C_10
REMARK    6  A    between atoms: C_10  and  N_11
REMARK    7  A    between atoms: C_12  and  C_14
REMARK    8  A    between atoms: C_14  and  C_15
REMARK    9  A    between atoms: C_15  and  C_16
REMARK   10  A    between atoms: C_20  and  C_21
REMARK                            x       y       z     vdW  Elec       q    Type
REMARK                         _______ _______ _______ _____ _____    ______ ____
ROOT
ATOM      1  N   UNL     1       2.021   7.986  19.283  0.00  0.00    +0.000 N 
ATOM      2  C   UNL     1       1.539   9.075  18.601  0.00  0.00    +0.000 C 
ATOM      3  O   UNL     1       1.533   9.157  17.376  0.00  0.00    +0.000 OA
ATOM      4  H   UNL     1       2.066   7.996  20.295  0.00  0.00    +0.000 HD
ENDROOT
BRANCH   1   5
ATOM      5  C   UNL     1       2.596   6.852  18.591  0.00  0.00    +0.000 C 
BRANCH   5   6
ATOM      6  C   UNL     1       2.297   5.525  19.289  0.00  0.00    +0.000 C 
BRANCH   6   7
ATOM      7  C   UNL     1       3.251   4.394  18.871  0.00  0.00    +0.000 C 
BRANCH   7  14
ATOM      8  C   UNL     1       5.594   5.524  15.313  0.00  0.00    +0.000 C 
ATOM      9  C   UNL     1       5.963   4.323  16.193  0.00  0.00    +0.000 C 
ATOM     10  C   UNL     1       7.163   4.631  17.096  0.00  0.00    +0.000 C 
ATOM     11  C   UNL     1       6.784   5.645  18.177  0.00  0.00    +0.000 C 
ATOM     12  C   UNL     1       7.958   5.908  19.116  0.00  0.00    +0.000 C 
ATOM     13  C   UNL     1       5.558   5.152  18.956  0.00  0.00    +0.000 C 
ATOM     14  N   UNL     1       4.409   4.858  18.081  0.00  0.00    +0.000 NA
ATOM     15  C   UNL     1       4.770   3.864  17.054  0.00  0.00    +0.000 C 
ENDBRANCH   7  14
ENDBRANCH   6   7
ENDBRANCH   5   6
ENDBRANCH   1   5
BRANCH   2  16
ATOM     16  C   UNL     1       1.031  10.182  19.494  0.00  0.00    +0.000 C 
BRANCH  16  17
ATOM     17  C   UNL     1       0.548  11.346  18.640  0.00  0.00    +0.000 C 
BRANCH  17  18
ATOM     18  C   UNL     1      -0.770  11.904  19.151  0.00  0.00    +0.000 C 
ATOM     19  O   UNL     1      -0.744  12.683  20.098  0.00  0.00    +0.000 OA
ATOM     20  N   UNL     1      -1.918  11.522  18.440  0.00  0.00    +0.000 N 
ATOM     21  C   UNL     1      -1.874  10.597  17.297  0.00  0.00    +0.000 C 
ATOM     22  C   UNL     1      -2.907  10.971  16.246  0.00  0.00    +0.000 C 
ATOM     23  C   UNL     1      -2.822  10.026  15.052  0.00  0.00    +0.000 C 
ATOM     24  O   UNL     1      -4.224  10.875  16.791  0.00  0.00    +0.000 OA
ATOM     25  C   UNL     1      -4.344  11.519  18.001  0.00  0.00    +0.000 A 
ATOM     26  C   UNL     1      -5.664  11.797  18.376  0.00  0.00    +0.000 A 
ATOM     27  C   UNL     1      -5.931  12.452  19.572  0.00  0.00    +0.000 A 
ATOM     28  C   UNL     1      -4.878  12.820  20.403  0.00  0.00    +0.000 A 
ATOM     29  C   UNL     1      -3.559  12.532  20.036  0.00  0.00    +0.000 A 
ATOM     30  C   UNL     1      -3.261  11.876  18.836  0.00  0.00    +0.000 A 
ENDBRANCH  17  18
ENDBRANCH  16  17
ENDBRANCH   2  16
TORSDOF 7
ENDMDL
MODEL 8
REMARK VINA RESULT:      -8.2      5.835      7.670
REMARK  Name = 
REMARK  10 active torsions:
REMARK  status: ('A' for Active; 'I' for Inactive)
REMARK    1  A    between atoms: C_1  and  C_2
REMARK    2  A    between atoms: C_4  and  C_5
REMARK    3  A    between atoms: N_7  and  C_8
REMARK    4  A    between atoms: C_8  and  C_9
REMARK    5  A    between atoms: C_9  and  C_10
REMARK    6  A    between atoms: C_10  and  N_11
REMARK    7  A    between atoms: C_12  and  C_14
REMARK    8  A    between atoms: C_14  and  C_15
REMARK    9  A    between atoms: C_15  and  C_16
REMARK   10  A    between atoms: C_20  and  C_21
REMARK                            x       y       z     vdW  Elec       q    Type
REMARK                         _______ _______ _______ _____ _____    ______ ____
ROOT
ATOM      1  N   UNL     1       2.005   3.683  18.889  0.00  0.00    +0.000 N 
ATOM      2  C   UNL     1       1.274   3.835  20.040  0.00  0.00    +0.000 C 
ATOM      3  O   UNL     1       0.964   2.900  20.773  0.00  0.00    +0.000 OA
ATOM      4  H   UNL     1       2.177   4.476  18.284  0.00  0.00    +0.000 HD
ENDROOT
BRANCH   1   5
ATOM      5  C   UNL     1       2.443   2.379  18.437  0.00  0.00    +0.000 C 
BRANCH   5   6
ATOM      6  C   UNL     1       3.966   2.255  18.389  0.00  0.00    +0.000 C 
BRANCH   6   7
ATOM      7  C   UNL     1       4.691   3.452  19.026  0.00  0.00    +0.000 C 
BRANCH   7  14
ATOM      8  C   UNL     1       7.251   6.713  17.530  0.00  0.00    +0.000 C 
ATOM      9  C   UNL     1       5.752   6.633  17.214  0.00  0.00    +0.000 C 
ATOM     10  C   UNL     1       5.502   6.154  15.778  0.00  0.00    +0.000 C 
ATOM     11  C   UNL     1       5.885   4.682  15.622  0.00  0.00    +0.000 C 
ATOM     12  C   UNL     1       5.581   4.184  14.211  0.00  0.00    +0.000 C 
ATOM     13  C   UNL     1       5.158   3.833  16.671  0.00  0.00    +0.000 C 
ATOM     14  N   UNL     1       5.403   4.299  18.048  0.00  0.00    +0.000 NA
ATOM     15  C   UNL     1       5.012   5.713  18.203  0.00  0.00    +0.000 C 
ENDBRANCH   7  14
ENDBRANCH   6   7
ENDBRANCH   5   6
ENDBRANCH   1   5
BRANCH   2  16
ATOM     16  C   UNL     1       0.860   5.260  20.319  0.00  0.00    +0.000 C 
BRANCH  16  17
ATOM     17  C   UNL     1       2.100   6.135  20.449  0.00  0.00    +0.000 C 
BRANCH  17  18
ATOM     18  C   UNL     1       1.983   7.396  19.609  0.00  0.00    +0.000 C 
ATOM     19  O   UNL     1       2.207   7.317  18.406  0.00  0.00    +0.000 OA
ATOM     20  N   UNL     1       1.559   8.550  20.287  0.00  0.00    +0.000 N 
ATOM     21  C   UNL     1       1.287   8.568  21.732  0.00  0.00    +0.000 C 
ATOM     22  C   UNL     1       0.133   9.500  22.063  0.00  0.00    +0.000 C 
ATOM     23  C   UNL     1      -0.161   9.478  23.560  0.00  0.00    +0.000 C 
ATOM     24  O   UNL     1       0.460  10.842  21.698  0.00  0.00    +0.000 OA
ATOM     25  C   UNL     1       0.954  10.936  20.417  0.00  0.00    +0.000 A 
ATOM     26  C   UNL     1       0.912  12.228  19.879  0.00  0.00    +0.000 A 
ATOM     27  C   UNL     1       1.373  12.466  18.590  0.00  0.00    +0.000 A 
ATOM     28  C   UNL     1       1.887  11.414  17.840  0.00  0.00    +0.000 A 
ATOM     29  C   UNL     1       1.940  10.125  18.381  0.00  0.00    +0.000 A 
ATOM     30  C   UNL     1       1.482   9.856  19.675  0.00  0.00    +0.000 A 
ENDBRANCH  17  18
ENDBRANCH  16  17
ENDBRANCH   2  16
TORSDOF 7
ENDMDL
MODEL 9
REMARK VINA RESULT:      -8.1      5.045      9.128
REMARK  Name = 
REMARK  10 active torsions:
REMARK  status: ('A' for Active; 'I' for Inactive)
REMARK    1  A    between atoms: C_1  and  C_2
REMARK    2  A    between atoms: C_4  and  C_5
REMARK    3  A    between atoms: N_7  and  C_8
REMARK    4  A    between atoms: C_8  and  C_9
REMARK    5  A    between atoms: C_9  and  C_10
REMARK    6  A    between atoms: C_10  and  N_11
REMARK    7  A    between atoms: C_12  and  C_14
REMARK    8  A    between atoms: C_14  and  C_15
REMARK    9  A    between atoms: C_15  and  C_16
REMARK   10  A    between atoms: C_20  and  C_21
REMARK                            x       y       z     vdW  Elec       q    Type
REMARK                         _______ _______ _______ _____ _____    ______ ____
ROOT
ATOM      1  N   UNL     1       1.862   6.893  20.698  0.00  0.00    +0.000 N 
ATOM      2  C   UNL     1       2.469   6.324  19.607  0.00  0.00    +0.000 C 
ATOM      3  O   UNL     1       2.816   6.962  18.616  0.00  0.00    +0.000 OA
ATOM      4  H   UNL     1       1.534   6.314  21.460  0.00  0.00    +0.000 HD
ENDROOT
BRANCH   1   5
ATOM      5  C   UNL     1       1.555   8.308  20.742  0.00  0.00    +0.000 C 
BRANCH   5   6
ATOM      6  C   UNL     1       0.760   8.697  21.988  0.00  0.00    +0.000 C 
BRANCH   6   7
ATOM      7  C   UNL     1       0.240  10.144  21.947  0.00  0.00    +0.000 C 
BRANCH   7  14
ATOM      8  C   UNL     1       2.108  12.200  18.525  0.00  0.00    +0.000 C 
ATOM      9  C   UNL     1       0.990  12.839  19.357  0.00  0.00    +0.000 C 
ATOM     10  C   UNL     1      -0.354  12.805  18.619  0.00  0.00    +0.000 C 
ATOM     11  C   UNL     1      -0.883  11.373  18.518  0.00  0.00    +0.000 C 
ATOM     12  C   UNL     1      -2.250  11.341  17.839  0.00  0.00    +0.000 C 
ATOM     13  C   UNL     1      -0.949  10.735  19.911  0.00  0.00    +0.000 C 
ATOM     14  N   UNL     1       0.346  10.772  20.615  0.00  0.00    +0.000 NA
ATOM     15  C   UNL     1       0.844  12.156  20.730  0.00  0.00    +0.000 C 
ENDBRANCH   7  14
ENDBRANCH   6   7
ENDBRANCH   5   6
ENDBRANCH   1   5
BRANCH   2  16
ATOM     16  C   UNL     1       2.657   4.831  19.720  0.00  0.00    +0.000 C 
BRANCH  16  17
ATOM     17  C   UNL     1       4.099   4.471  19.386  0.00  0.00    +0.000 C 
BRANCH  17  18
ATOM     18  C   UNL     1       4.290   4.264  17.892  0.00  0.00    +0.000 C 
ATOM     19  O   UNL     1       3.431   3.644  17.276  0.00  0.00    +0.000 OA
ATOM     20  N   UNL     1       5.424   4.868  17.328  0.00  0.00    +0.000 N 
ATOM     21  C   UNL     1       6.406   5.618  18.126  0.00  0.00    +0.000 C 
ATOM     22  C   UNL     1       6.968   6.794  17.344  0.00  0.00    +0.000 C 
ATOM     23  C   UNL     1       7.955   7.583  18.199  0.00  0.00    +0.000 C 
ATOM     24  O   UNL     1       7.662   6.331  16.184  0.00  0.00    +0.000 OA
ATOM     25  C   UNL     1       6.925   5.427  15.454  0.00  0.00    +0.000 A 
ATOM     26  C   UNL     1       7.371   5.252  14.138  0.00  0.00    +0.000 A 
ATOM     27  C   UNL     1       6.715   4.373  13.286  0.00  0.00    +0.000 A 
ATOM     28  C   UNL     1       5.617   3.657  13.751  0.00  0.00    +0.000 A 
ATOM     29  C   UNL     1       5.178   3.822  15.069  0.00  0.00    +0.000 A 
ATOM     30  C   UNL     1       5.818   4.702  15.949  0.00  0.00    +0.000 A 
ENDBRANCH  17  18
ENDBRANCH  16  17
ENDBRANCH   2  16
TORSDOF 7
ENDMDL
