MODEL 1
REMARK VINA RESULT:      -7.3      0.000      0.000
REMARK  Name = 
REMARK  2 active torsions:
REMARK  status: ('A' for Active; 'I' for Inactive)
REMARK    1  A    between atoms: C_1  and  N_2
REMARK    2  A    between atoms: N_2  and  N_3
REMARK                            x       y       z     vdW  Elec       q    Type
REMARK                         _______ _______ _______ _____ _____    ______ ____
ROOT
ATOM      1  C   UNL     1       8.225   6.796  18.413  0.00  0.00    +0.000 C 
ATOM      2  N   UNL     1       7.654   5.564  18.956  0.00  0.00    +0.000 N 
ATOM      3  C   UNL     1       6.682   4.981  18.084  0.00  0.00    +0.000 A 
ATOM      4  N   UNL     1       6.775   5.240  16.781  0.00  0.00    +0.000 NA
ATOM      5  C   UNL     1       5.896   4.657  15.987  0.00  0.00    +0.000 A 
ATOM      6  N   UNL     1       5.992   4.843  14.620  0.00  0.00    +0.000 N 
ATOM      7  C   UNL     1       5.531   3.762  13.754  0.00  0.00    +0.000 C 
ATOM      8  C   UNL     1       6.676   3.568  12.763  0.00  0.00    +0.000 C 
ATOM      9  C   UNL     1       7.290   4.953  12.661  0.00  0.00    +0.000 C 
ATOM     10  C   UNL     1       7.194   5.477  14.091  0.00  0.00    +0.000 C 
ATOM     11  N   UNL     1       4.907   3.898  16.441  0.00  0.00    +0.000 NA
ATOM     12  C   UNL     1       4.846   3.695  17.751  0.00  0.00    +0.000 A 
ATOM     13  N   UNL     1       3.793   2.933  18.226  0.00  0.00    +0.000 N 
ATOM     14  C   UNL     1       2.537   2.961  17.482  0.00  0.00    +0.000 C 
ATOM     15  C   UNL     1       1.469   3.128  18.559  0.00  0.00    +0.000 C 
ATOM     16  C   UNL     1       2.087   2.451  19.770  0.00  0.00    +0.000 C 
ATOM     17  C   UNL     1       3.566   2.831  19.662  0.00  0.00    +0.000 C 
ATOM     18  N   UNL     1       5.752   4.173  18.596  0.00  0.00    +0.000 NA
ENDROOT
BRANCH   2  19
ATOM     19  N   UNL     1       7.444   5.482  20.364  0.00  0.00    +0.000 NA
ATOM     20  H   UNL     1       8.339   5.382  20.844  0.00  0.00    +0.000 HD
ATOM     21  H   UNL     1       6.934   4.612  20.552  0.00  0.00    +0.000 HD
ENDBRANCH   2  19
TORSDOF 1
ENDMDL
MODEL 2
REMARK VINA RESULT:      -6.5      2.966      6.290
REMARK  Name = 
REMARK  2 active torsions:
REMARK  status: ('A' for Active; 'I' for Inactive)
REMARK    1  A    between atoms: C_1  and  N_2
REMARK    2  A    between atoms: N_2  and  N_3
REMARK                            x       y       z     vdW  Elec       q    Type
REMARK                         _______ _______ _______ _____ _____    ______ ____
ROOT
ATOM      1  C   UNL     1       1.793   8.573  19.760  0.00  0.00    +0.000 C 
ATOM      2  N   UNL     1       2.082   8.133  18.396  0.00  0.00    +0.000 N 
ATOM      3  C   UNL     1       2.745   6.867  18.358  0.00  0.00    +0.000 A 
ATOM      4  N   UNL     1       2.558   6.032  19.379  0.00  0.00    +0.000 NA
ATOM      5  C   UNL     1       3.143   4.851  19.306  0.00  0.00    +0.000 A 
ATOM      6  N   UNL     1       2.925   3.925  20.310  0.00  0.00    +0.000 N 
ATOM      7  C   UNL     1       2.969   2.511  19.951  0.00  0.00    +0.000 C 
ATOM      8  C   UNL     1       1.697   1.933  20.566  0.00  0.00    +0.000 C 
ATOM      9  C   UNL     1       1.464   2.815  21.781  0.00  0.00    +0.000 C 
ATOM     10  C   UNL     1       1.877   4.198  21.287  0.00  0.00    +0.000 C 
ATOM     11  N   UNL     1       3.945   4.505  18.308  0.00  0.00    +0.000 NA
ATOM     12  C   UNL     1       4.118   5.385  17.330  0.00  0.00    +0.000 A 
ATOM     13  N   UNL     1       4.983   5.036  16.308  0.00  0.00    +0.000 N 
ATOM     14  C   UNL     1       6.095   4.146  16.627  0.00  0.00    +0.000 C 
ATOM     15  C   UNL     1       7.298   4.795  15.947  0.00  0.00    +0.000 C 
ATOM     16  C   UNL     1       6.683   5.504  14.753  0.00  0.00    +0.000 C 
ATOM     17  C   UNL     1       5.357   6.029  15.308  0.00  0.00    +0.000 C 
ATOM     18  N   UNL     1       3.486   6.553  17.294  0.00  0.00    +0.000 NA
ENDROOT
BRANCH   2  19
ATOM     19  N   UNL     1       2.442   9.120  17.431  0.00  0.00    +0.000 NA
ATOM     20  H   UNL     1       2.227   8.781  16.492  0.00  0.00    +0.000 HD
ATOM     21  H   UNL     1       3.461   9.225  17.458  0.00  0.00    +0.000 HD
ENDBRANCH   2  19
TORSDOF 1
ENDMDL
MODEL 3
REMARK VINA RESULT:      -6.4      3.025      3.600
REMARK  Name = 
REMARK  2 active torsions:
REMARK  status: ('A' for Active; 'I' for Inactive)
REMARK    1  A    between atoms: C_1  and  N_2
REMARK    2  A    between atoms: N_2  and  N_3
REMARK                            x       y       z     vdW  Elec       q    Type
REMARK                         _______ _______ _______ _____ _____    ______ ____
ROOT
ATOM      1  C   UNL     1       2.205   8.945  17.569  0.00  0.00    +0.000 C 
ATOM      2  N   UNL     1       2.421   8.254  18.839  0.00  0.00    +0.000 N 
ATOM      3  C   UNL     1       2.911   6.922  18.661  0.00  0.00    +0.000 A 
ATOM      4  N   UNL     1       3.588   6.649  17.547  0.00  0.00    +0.000 NA
ATOM      5  C   UNL     1       4.070   5.426  17.421  0.00  0.00    +0.000 A 
ATOM      6  N   UNL     1       4.835   5.112  16.312  0.00  0.00    +0.000 N 
ATOM      7  C   UNL     1       5.871   4.095  16.468  0.00  0.00    +0.000 C 
ATOM      8  C   UNL     1       7.114   4.736  15.855  0.00  0.00    +0.000 C 
ATOM      9  C   UNL     1       6.545   5.658  14.791  0.00  0.00    +0.000 C 
ATOM     10  C   UNL     1       5.278   6.199  15.447  0.00  0.00    +0.000 C 
ATOM     11  N   UNL     1       3.849   4.468  18.311  0.00  0.00    +0.000 NA
ATOM     12  C   UNL     1       3.146   4.789  19.389  0.00  0.00    +0.000 A 
ATOM     13  N   UNL     1       2.885   3.780  20.300  0.00  0.00    +0.000 N 
ATOM     14  C   UNL     1       2.773   2.415  19.795  0.00  0.00    +0.000 C 
ATOM     15  C   UNL     1       1.528   1.863  20.486  0.00  0.00    +0.000 C 
ATOM     16  C   UNL     1       1.494   2.622  21.801  0.00  0.00    +0.000 C 
ATOM     17  C   UNL     1       1.964   4.023  21.404  0.00  0.00    +0.000 C 
ATOM     18  N   UNL     1       2.711   6.022  19.625  0.00  0.00    +0.000 NA
ENDROOT
BRANCH   2  19
ATOM     19  N   UNL     1       1.514   8.509  19.908  0.00  0.00    +0.000 NA
ATOM     20  H   UNL     1       1.946   8.258  20.799  0.00  0.00    +0.000 HD
ATOM     21  H   UNL     1       0.719   7.869  19.801  0.00  0.00    +0.000 HD
ENDBRANCH   2  19
TORSDOF 1
ENDMDL
MODEL 4
REMARK VINA RESULT:      -6.2      3.027      6.166
REMARK  Name = 
REMARK  2 active torsions:
REMARK  status: ('A' for Active; 'I' for Inactive)
REMARK    1  A    between atoms: C_1  and  N_2
REMARK    2  A    between atoms: N_2  and  N_3
REMARK                            x       y       z     vdW  Elec       q    Type
REMARK                         _______ _______ _______ _____ _____    ______ ____
ROOT
ATOM      1  C   UNL     1       2.986   2.148  21.167  0.00  0.00    +0.000 C 
ATOM      2  N   UNL     1       4.262   2.596  20.610  0.00  0.00    +0.000 N 
ATOM      3  C   UNL     1       4.122   3.762  19.794  0.00  0.00    +0.000 A 
ATOM      4  N   UNL     1       3.095   4.575  20.035  0.00  0.00    +0.000 NA
ATOM      5  C   UNL     1       3.008   5.669  19.300  0.00  0.00    +0.000 A 
ATOM      6  N   UNL     1       1.996   6.577  19.556  0.00  0.00    +0.000 N 
ATOM      7  C   UNL     1       2.261   7.985  19.276  0.00  0.00    +0.000 C 
ATOM      8  C   UNL     1       1.816   8.705  20.546  0.00  0.00    +0.000 C 
ATOM      9  C   UNL     1       0.705   7.818  21.081  0.00  0.00    +0.000 C 
ATOM     10  C   UNL     1       1.211   6.411  20.773  0.00  0.00    +0.000 C 
ATOM     11  N   UNL     1       3.849   5.941  18.311  0.00  0.00    +0.000 NA
ATOM     12  C   UNL     1       4.838   5.084  18.097  0.00  0.00    +0.000 A 
ATOM     13  N   UNL     1       5.693   5.351  17.042  0.00  0.00    +0.000 N 
ATOM     14  C   UNL     1       5.155   6.070  15.891  0.00  0.00    +0.000 C 
ATOM     15  C   UNL     1       5.679   5.291  14.687  0.00  0.00    +0.000 C 
ATOM     16  C   UNL     1       6.992   4.717  15.188  0.00  0.00    +0.000 C 
ATOM     17  C   UNL     1       6.680   4.355  16.642  0.00  0.00    +0.000 C 
ATOM     18  N   UNL     1       5.039   4.014  18.858  0.00  0.00    +0.000 NA
ENDROOT
BRANCH   2  19
ATOM     19  N   UNL     1       5.216   1.608  20.229  0.00  0.00    +0.000 NA
ATOM     20  H   UNL     1       4.755   0.867  19.699  0.00  0.00    +0.000 HD
ATOM     21  H   UNL     1       5.558   1.159  21.085  0.00  0.00    +0.000 HD
ENDBRANCH   2  19
TORSDOF 1
ENDMDL
MODEL 5
REMARK VINA RESULT:      -6.2      3.328      6.617
REMARK  Name = 
REMARK  2 active torsions:
REMARK  status: ('A' for Active; 'I' for Inactive)
REMARK    1  A    between atoms: C_1  and  N_2
REMARK    2  A    between atoms: N_2  and  N_3
REMARK                            x       y       z     vdW  Elec       q    Type
REMARK                         _______ _______ _______ _____ _____    ______ ____
ROOT
ATOM      1  C   UNL     1       0.686   8.819  19.139  0.00  0.00    +0.000 C 
ATOM      2  N   UNL     1       1.692   8.607  18.099  0.00  0.00    +0.000 N 
ATOM      3  C   UNL     1       2.580   7.530  18.409  0.00  0.00    +0.000 A 
ATOM      4  N   UNL     1       2.139   6.567  19.216  0.00  0.00    +0.000 NA
ATOM      5  C   UNL     1       2.957   5.559  19.455  0.00  0.00    +0.000 A 
ATOM      6  N   UNL     1       2.520   4.503  20.235  0.00  0.00    +0.000 N 
ATOM      7  C   UNL     1       3.078   3.182  19.962  0.00  0.00    +0.000 C 
ATOM      8  C   UNL     1       1.853   2.273  19.879  0.00  0.00    +0.000 C 
ATOM      9  C   UNL     1       0.857   2.942  20.811  0.00  0.00    +0.000 C 
ATOM     10  C   UNL     1       1.102   4.429  20.566  0.00  0.00    +0.000 C 
ATOM     11  N   UNL     1       4.197   5.510  18.986  0.00  0.00    +0.000 NA
ATOM     12  C   UNL     1       4.594   6.509  18.208  0.00  0.00    +0.000 A 
ATOM     13  N   UNL     1       5.899   6.475  17.748  0.00  0.00    +0.000 N 
ATOM     14  C   UNL     1       6.902   5.823  18.585  0.00  0.00    +0.000 C 
ATOM     15  C   UNL     1       8.082   6.792  18.576  0.00  0.00    +0.000 C 
ATOM     16  C   UNL     1       7.961   7.475  17.225  0.00  0.00    +0.000 C 
ATOM     17  C   UNL     1       6.449   7.630  17.050  0.00  0.00    +0.000 C 
ATOM     18  N   UNL     1       3.792   7.506  17.851  0.00  0.00    +0.000 NA
ENDROOT
BRANCH   2  19
ATOM     19  N   UNL     1       2.214   9.748  17.424  0.00  0.00    +0.000 NA
ATOM     20  H   UNL     1       3.180   9.912  17.713  0.00  0.00    +0.000 HD
ATOM     21  H   UNL     1       1.690  10.568  17.746  0.00  0.00    +0.000 HD
ENDBRANCH   2  19
TORSDOF 1
ENDMDL
MODEL 6
REMARK VINA RESULT:      -5.7      4.007      6.397
REMARK  Name = 
REMARK  2 active torsions:
REMARK  status: ('A' for Active; 'I' for Inactive)
REMARK    1  A    between atoms: C_1  and  N_2
REMARK    2  A    between atoms: N_2  and  N_3
REMARK                            x       y       z     vdW  Elec       q    Type
REMARK                         _______ _______ _______ _____ _____    ______ ____
ROOT
ATOM      1  C   UNL     1       4.949   4.399  15.780  0.00  0.00    +0.000 C 
ATOM      2  N   UNL     1       5.058   5.719  16.401  0.00  0.00    +0.000 N 
ATOM      3  C   UNL     1       4.014   5.966  17.346  0.00  0.00    +0.000 A 
ATOM      4  N   UNL     1       3.443   4.918  17.936  0.00  0.00    +0.000 NA
ATOM      5  C   UNL     1       2.512   5.169  18.839  0.00  0.00    +0.000 A 
ATOM      6  N   UNL     1       1.936   4.115  19.526  0.00  0.00    +0.000 N 
ATOM      7  C   UNL     1       1.471   4.366  20.887  0.00  0.00    +0.000 C 
ATOM      8  C   UNL     1       2.062   3.215  21.698  0.00  0.00    +0.000 C 
ATOM      9  C   UNL     1       2.140   2.082  20.689  0.00  0.00    +0.000 C 
ATOM     10  C   UNL     1       2.540   2.795  19.401  0.00  0.00    +0.000 C 
ATOM     11  N   UNL     1       2.091   6.395  19.118  0.00  0.00    +0.000 NA
ATOM     12  C   UNL     1       2.676   7.401  18.481  0.00  0.00    +0.000 A 
ATOM     13  N   UNL     1       2.210   8.677  18.747  0.00  0.00    +0.000 N 
ATOM     14  C   UNL     1       0.806   8.830  19.117  0.00  0.00    +0.000 C 
ATOM     15  C   UNL     1       0.327  10.013  18.280  0.00  0.00    +0.000 C 
ATOM     16  C   UNL     1       1.582  10.851  18.111  0.00  0.00    +0.000 C 
ATOM     17  C   UNL     1       2.681   9.799  17.945  0.00  0.00    +0.000 C 
ATOM     18  N   UNL     1       3.682   7.227  17.632  0.00  0.00    +0.000 NA
ENDROOT
BRANCH   2  19
ATOM     19  N   UNL     1       5.525   6.803  15.602  0.00  0.00    +0.000 NA
ATOM     20  H   UNL     1       4.938   7.624  15.753  0.00  0.00    +0.000 HD
ATOM     21  H   UNL     1       5.388   6.547  14.618  0.00  0.00    +0.000 HD
ENDBRANCH   2  19
TORSDOF 1
ENDMDL
MODEL 7
REMARK VINA RESULT:      -5.6      3.870      6.192
REMARK  Name = 
REMARK  2 active torsions:
REMARK  status: ('A' for Active; 'I' for Inactive)
REMARK    1  A    between atoms: C_1  and  N_2
REMARK    2  A    between atoms: N_2  and  N_3
REMARK                            x       y       z     vdW  Elec       q    Type
REMARK                         _______ _______ _______ _____ _____    ______ ____
ROOT
ATOM      1  C   UNL     1       1.342   4.152  20.824  0.00  0.00    +0.000 C 
ATOM      2  N   UNL     1       2.768   4.187  20.501  0.00  0.00    +0.000 N 
ATOM      3  C   UNL     1       3.074   5.144  19.484  0.00  0.00    +0.000 A 
ATOM      4  N   UNL     1       2.259   6.186  19.338  0.00  0.00    +0.000 NA
ATOM      5  C   UNL     1       2.583   7.081  18.423  0.00  0.00    +0.000 A 
ATOM      6  N   UNL     1       1.803   8.214  18.280  0.00  0.00    +0.000 N 
ATOM      7  C   UNL     1       2.459   9.437  17.824  0.00  0.00    +0.000 C 
ATOM      8  C   UNL     1       1.989  10.500  18.814  0.00  0.00    +0.000 C 
ATOM      9  C   UNL     1       0.613  10.007  19.230  0.00  0.00    +0.000 C 
ATOM     10  C   UNL     1       0.795   8.494  19.296  0.00  0.00    +0.000 C 
ATOM     11  N   UNL     1       3.628   6.943  17.619  0.00  0.00    +0.000 NA
ATOM     12  C   UNL     1       4.392   5.872  17.789  0.00  0.00    +0.000 A 
ATOM     13  N   UNL     1       5.462   5.711  16.926  0.00  0.00    +0.000 N 
ATOM     14  C   UNL     1       5.337   6.251  15.575  0.00  0.00    +0.000 C 
ATOM     15  C   UNL     1       5.856   5.130  14.677  0.00  0.00    +0.000 C 
ATOM     16  C   UNL     1       6.871   4.421  15.556  0.00  0.00    +0.000 C 
ATOM     17  C   UNL     1       6.222   4.467  16.941  0.00  0.00    +0.000 C 
ATOM     18  N   UNL     1       4.178   4.982  18.751  0.00  0.00    +0.000 NA
ENDROOT
BRANCH   2  19
ATOM     19  N   UNL     1       3.495   2.962  20.527  0.00  0.00    +0.000 NA
ATOM     20  H   UNL     1       4.278   3.009  19.873  0.00  0.00    +0.000 HD
ATOM     21  H   UNL     1       2.879   2.227  20.163  0.00  0.00    +0.000 HD
ENDBRANCH   2  19
TORSDOF 1
ENDMDL
MODEL 8
REMARK VINA RESULT:      -5.6      3.641      4.915
REMARK  Name = 
REMARK  2 active torsions:
REMARK  status: ('A' for Active; 'I' for Inactive)
REMARK    1  A    between atoms: C_1  and  N_2
REMARK    2  A    between atoms: N_2  and  N_3
REMARK                            x       y       z     vdW  Elec       q    Type
REMARK                         _______ _______ _______ _____ _____    ______ ____
ROOT
ATOM      1  C   UNL     1       4.296   2.155  20.856  0.00  0.00    +0.000 C 
ATOM      2  N   UNL     1       3.001   2.827  20.751  0.00  0.00    +0.000 N 
ATOM      3  C   UNL     1       3.100   4.110  20.127  0.00  0.00    +0.000 A 
ATOM      4  N   UNL     1       4.111   4.320  19.287  0.00  0.00    +0.000 NA
ATOM      5  C   UNL     1       4.160   5.496  18.687  0.00  0.00    +0.000 A 
ATOM      6  N   UNL     1       5.154   5.739  17.756  0.00  0.00    +0.000 N 
ATOM      7  C   UNL     1       4.852   6.661  16.665  0.00  0.00    +0.000 C 
ATOM      8  C   UNL     1       5.300   5.912  15.413  0.00  0.00    +0.000 C 
ATOM      9  C   UNL     1       6.440   5.042  15.914  0.00  0.00    +0.000 C 
ATOM     10  C   UNL     1       5.963   4.615  17.299  0.00  0.00    +0.000 C 
ATOM     11  N   UNL     1       3.297   6.471  18.940  0.00  0.00    +0.000 NA
ATOM     12  C   UNL     1       2.325   6.215  19.806  0.00  0.00    +0.000 A 
ATOM     13  N   UNL     1       1.447   7.245  20.097  0.00  0.00    +0.000 N 
ATOM     14  C   UNL     1       1.949   8.614  20.021  0.00  0.00    +0.000 C 
ATOM     15  C   UNL     1       1.425   9.274  21.293  0.00  0.00    +0.000 C 
ATOM     16  C   UNL     1       0.133   8.524  21.568  0.00  0.00    +0.000 C 
ATOM     17  C   UNL     1       0.478   7.086  21.174  0.00  0.00    +0.000 C 
ATOM     18  N   UNL     1       2.162   5.026  20.374  0.00  0.00    +0.000 NA
ENDROOT
BRANCH   2  19
ATOM     19  N   UNL     1       2.065   2.655  21.812  0.00  0.00    +0.000 NA
ATOM     20  H   UNL     1       1.971   3.526  22.337  0.00  0.00    +0.000 HD
ATOM     21  H   UNL     1       2.463   1.979  22.473  0.00  0.00    +0.000 HD
ENDBRANCH   2  19
TORSDOF 1
ENDMDL
MODEL 9
REMARK VINA RESULT:      -5.6      3.851      6.886
REMARK  Name = 
REMARK  2 active torsions:
REMARK  status: ('A' for Active; 'I' for Inactive)
REMARK    1  A    between atoms: C_1  and  N_2
REMARK    2  A    between atoms: N_2  and  N_3
REMARK                            x       y       z     vdW  Elec       q    Type
REMARK                         _______ _______ _______ _____ _____    ______ ____
ROOT
ATOM      1  C   UNL     1       1.464   2.914  21.545  0.00  0.00    +0.000 C 
ATOM      2  N   UNL     1       2.839   3.227  21.157  0.00  0.00    +0.000 N 
ATOM      3  C   UNL     1       2.935   4.451  20.424  0.00  0.00    +0.000 A 
ATOM      4  N   UNL     1       1.996   5.374  20.622  0.00  0.00    +0.000 NA
ATOM      5  C   UNL     1       2.127   6.515  19.970  0.00  0.00    +0.000 A 
ATOM      6  N   UNL     1       1.212   7.529  20.192  0.00  0.00    +0.000 N 
ATOM      7  C   UNL     1       1.678   8.906  20.051  0.00  0.00    +0.000 C 
ATOM      8  C   UNL     1       1.187   9.595  21.322  0.00  0.00    +0.000 C 
ATOM      9  C   UNL     1      -0.077   8.828  21.670  0.00  0.00    +0.000 C 
ATOM     10  C   UNL     1       0.282   7.390  21.306  0.00  0.00    +0.000 C 
ATOM     11  N   UNL     1       3.099   6.739  19.096  0.00  0.00    +0.000 NA
ATOM     12  C   UNL     1       3.993   5.775  18.918  0.00  0.00    +0.000 A 
ATOM     13  N   UNL     1       4.986   5.995  17.980  0.00  0.00    +0.000 N 
ATOM     14  C   UNL     1       4.672   6.851  16.840  0.00  0.00    +0.000 C 
ATOM     15  C   UNL     1       5.225   6.090  15.638  0.00  0.00    +0.000 C 
ATOM     16  C   UNL     1       6.395   5.317  16.224  0.00  0.00    +0.000 C 
ATOM     17  C   UNL     1       5.880   4.906  17.606  0.00  0.00    +0.000 C 
ATOM     18  N   UNL     1       3.975   4.640  19.609  0.00  0.00    +0.000 NA
ENDROOT
BRANCH   2  19
ATOM     19  N   UNL     1       3.700   2.149  20.799  0.00  0.00    +0.000 NA
ATOM     20  H   UNL     1       3.484   1.328  21.367  0.00  0.00    +0.000 HD
ATOM     21  H   UNL     1       4.656   2.415  21.057  0.00  0.00    +0.000 HD
ENDBRANCH   2  19
TORSDOF 1
ENDMDL
