MODEL 1
REMARK VINA RESULT:      -7.8      0.000      0.000
REMARK  Name = 
REMARK  11 active torsions:
REMARK  status: ('A' for Active; 'I' for Inactive)
REMARK    1  A    between atoms: C_1  and  O_2
REMARK    2  A    between atoms: O_2  and  C_3
REMARK    3  A    between atoms: C_6  and  N_7
REMARK    4  A    between atoms: C_8  and  C_10
REMARK    5  A    between atoms: C_10  and  N_11
REMARK    6  A    between atoms: C_16  and  S_17
REMARK    7  A    between atoms: S_17  and  C_18
REMARK    8  A    between atoms: C_18  and  C_19
REMARK    9  A    between atoms: C_18  and  C_20
REMARK   10  A    between atoms: C_26  and  O_27
REMARK   11  A    between atoms: O_27  and  C_28
REMARK                            x       y       z     vdW  Elec       q    Type
REMARK                         _______ _______ _______ _____ _____    ______ ____
ROOT
ATOM      1  C   UNL     1       3.352   3.791  19.916  0.00  0.00    +0.000 C 
ENDROOT
BRANCH   1   2
ATOM      2  N   UNL     1       4.214   3.978  18.777  0.00  0.00    +0.000 N 
ATOM      3  N   UNL     1       5.542   4.340  18.886  0.00  0.00    +0.000 NA
ATOM      4  C   UNL     1       5.948   4.387  17.657  0.00  0.00    +0.000 A 
ATOM      5  C   UNL     1       7.292   4.709  17.181  0.00  0.00    +0.000 A 
ATOM      6  C   UNL     1       7.501   4.716  15.858  0.00  0.00    +0.000 A 
ATOM      7  C   UNL     1       6.348   4.398  14.974  0.00  0.00    +0.000 A 
ATOM      8  N   UNL     1       5.157   4.085  15.377  0.00  0.00    +0.000 NA
ATOM      9  N   UNL     1       5.004   4.097  16.730  0.00  0.00    +0.000 N 
ATOM     10  C   UNL     1       3.857   3.792  17.431  0.00  0.00    +0.000 A 
ATOM     11  O   UNL     1       2.770   3.394  17.036  0.00  0.00    +0.000 OA
BRANCH   7  12
ATOM     12  S   UNL     1       6.761   4.468  13.278  0.00  0.00    +0.000 S 
BRANCH  12  13
ATOM     13  C   UNL     1       5.820   3.068  12.578  0.00  0.00    +0.000 C 
ATOM     14  C   UNL     1       4.573   3.550  11.837  0.00  0.00    +0.000 C 
ATOM     15  C   UNL     1       6.740   2.326  11.607  0.00  0.00    +0.000 C 
ENDBRANCH  12  13
ENDBRANCH   7  12
ENDBRANCH   1   2
BRANCH   1  17
ATOM     16  N   UNL     1       2.776   6.170  19.803  0.00  0.00    +0.000 N 
ATOM     17  C   UNL     1       2.289   4.885  20.005  0.00  0.00    +0.000 C 
ATOM     18  O   UNL     1       1.146   4.591  20.350  0.00  0.00    +0.000 OA
ATOM     19  H   UNL     1       3.779   6.272  19.657  0.00  0.00    +0.000 HD
BRANCH  16  23
ATOM     20  C   UNL     1       0.365   9.646  20.070  0.00  0.00    +0.000 A 
ATOM     21  C   UNL     1       1.251   9.483  18.997  0.00  0.00    +0.000 A 
ATOM     22  C   UNL     1       2.060   8.351  18.893  0.00  0.00    +0.000 A 
ATOM     23  C   UNL     1       2.033   7.369  19.877  0.00  0.00    +0.000 A 
ATOM     24  C   UNL     1       1.221   7.577  20.999  0.00  0.00    +0.000 A 
ATOM     25  C   UNL     1       0.390   8.710  21.113  0.00  0.00    +0.000 A 
BRANCH  20  27
ATOM     26  C   UNL     1       0.101  11.975  20.374  0.00  0.00    +0.000 C 
ATOM     27  O   UNL     1      -0.500  10.707  20.111  0.00  0.00    +0.000 OA
ENDBRANCH  20  27
BRANCH  25  28
ATOM     28  O   UNL     1      -0.327   8.708  22.283  0.00  0.00    +0.000 OA
ATOM     29  C   UNL     1       0.083   9.557  23.345  0.00  0.00    +0.000 C 
ENDBRANCH  25  28
ENDBRANCH  16  23
ENDBRANCH   1  17
TORSDOF 7
ENDMDL
MODEL 2
REMARK VINA RESULT:      -7.7      0.825      1.798
REMARK  Name = 
REMARK  11 active torsions:
REMARK  status: ('A' for Active; 'I' for Inactive)
REMARK    1  A    between atoms: C_1  and  O_2
REMARK    2  A    between atoms: O_2  and  C_3
REMARK    3  A    between atoms: C_6  and  N_7
REMARK    4  A    between atoms: C_8  and  C_10
REMARK    5  A    between atoms: C_10  and  N_11
REMARK    6  A    between atoms: C_16  and  S_17
REMARK    7  A    between atoms: S_17  and  C_18
REMARK    8  A    between atoms: C_18  and  C_19
REMARK    9  A    between atoms: C_18  and  C_20
REMARK   10  A    between atoms: C_26  and  O_27
REMARK   11  A    between atoms: O_27  and  C_28
REMARK                            x       y       z     vdW  Elec       q    Type
REMARK                         _______ _______ _______ _____ _____    ______ ____
ROOT
ATOM      1  C   UNL     1       3.298   3.703  19.896  0.00  0.00    +0.000 C 
ENDROOT
BRANCH   1   2
ATOM      2  N   UNL     1       4.152   3.931  18.759  0.00  0.00    +0.000 N 
ATOM      3  N   UNL     1       5.465   4.344  18.873  0.00  0.00    +0.000 NA
ATOM      4  C   UNL     1       5.871   4.415  17.644  0.00  0.00    +0.000 A 
ATOM      5  C   UNL     1       7.201   4.793  17.172  0.00  0.00    +0.000 A 
ATOM      6  C   UNL     1       7.410   4.817  15.850  0.00  0.00    +0.000 A 
ATOM      7  C   UNL     1       6.271   4.460  14.962  0.00  0.00    +0.000 A 
ATOM      8  N   UNL     1       5.094   4.097  15.361  0.00  0.00    +0.000 NA
ATOM      9  N   UNL     1       4.939   4.095  16.714  0.00  0.00    +0.000 N 
ATOM     10  C   UNL     1       3.804   3.740  17.412  0.00  0.00    +0.000 A 
ATOM     11  O   UNL     1       2.735   3.303  17.014  0.00  0.00    +0.000 OA
BRANCH   7  12
ATOM     12  S   UNL     1       6.684   4.557  13.267  0.00  0.00    +0.000 S 
BRANCH  12  13
ATOM     13  C   UNL     1       5.812   3.117  12.559  0.00  0.00    +0.000 C 
ATOM     14  C   UNL     1       4.593   3.549  11.745  0.00  0.00    +0.000 C 
ATOM     15  C   UNL     1       6.796   2.373  11.655  0.00  0.00    +0.000 C 
ENDBRANCH  12  13
ENDBRANCH   7  12
ENDBRANCH   1   2
BRANCH   1  17
ATOM     16  N   UNL     1       2.763   6.094  19.896  0.00  0.00    +0.000 N 
ATOM     17  C   UNL     1       2.256   4.811  20.051  0.00  0.00    +0.000 C 
ATOM     18  O   UNL     1       1.115   4.521  20.402  0.00  0.00    +0.000 OA
ATOM     19  H   UNL     1       3.765   6.185  19.737  0.00  0.00    +0.000 HD
BRANCH  16  23
ATOM     20  C   UNL     1       0.782   9.826  20.241  0.00  0.00    +0.000 A 
ATOM     21  C   UNL     1       0.706   8.889  21.279  0.00  0.00    +0.000 A 
ATOM     22  C   UNL     1       1.343   7.650  21.183  0.00  0.00    +0.000 A 
ATOM     23  C   UNL     1       2.043   7.302  20.034  0.00  0.00    +0.000 A 
ATOM     24  C   UNL     1       2.038   8.197  18.958  0.00  0.00    +0.000 A 
ATOM     25  C   UNL     1       1.409   9.456  19.042  0.00  0.00    +0.000 A 
BRANCH  20  27
ATOM     26  C   UNL     1      -1.122  11.202  19.987  0.00  0.00    +0.000 C 
ATOM     27  O   UNL     1       0.244  11.077  20.384  0.00  0.00    +0.000 OA
ENDBRANCH  20  27
BRANCH  25  28
ATOM     28  O   UNL     1       1.535  10.175  17.882  0.00  0.00    +0.000 OA
ATOM     29  C   UNL     1       2.454  11.257  17.837  0.00  0.00    +0.000 C 
ENDBRANCH  25  28
ENDBRANCH  16  23
ENDBRANCH   1  17
TORSDOF 7
ENDMDL
MODEL 3
REMARK VINA RESULT:      -7.3      5.148     10.065
REMARK  Name = 
REMARK  11 active torsions:
REMARK  status: ('A' for Active; 'I' for Inactive)
REMARK    1  A    between atoms: C_1  and  O_2
REMARK    2  A    between atoms: O_2  and  C_3
REMARK    3  A    between atoms: C_6  and  N_7
REMARK    4  A    between atoms: C_8  and  C_10
REMARK    5  A    between atoms: C_10  and  N_11
REMARK    6  A    between atoms: C_16  and  S_17
REMARK    7  A    between atoms: S_17  and  C_18
REMARK    8  A    between atoms: C_18  and  C_19
REMARK    9  A    between atoms: C_18  and  C_20
REMARK   10  A    between atoms: C_26  and  O_27
REMARK   11  A    between atoms: O_27  and  C_28
REMARK                            x       y       z     vdW  Elec       q    Type
REMARK                         _______ _______ _______ _____ _____    ______ ____
ROOT
ATOM      1  C   UNL     1       1.008   9.970  19.283  0.00  0.00    +0.000 C 
ENDROOT
BRANCH   1   2
ATOM      2  N   UNL     1      -0.284  10.266  18.720  0.00  0.00    +0.000 N 
ATOM      3  N   UNL     1      -0.728   9.729  17.527  0.00  0.00    +0.000 NA
ATOM      4  C   UNL     1      -1.916  10.228  17.391  0.00  0.00    +0.000 A 
ATOM      5  C   UNL     1      -2.859   9.985  16.301  0.00  0.00    +0.000 A 
ATOM      6  C   UNL     1      -4.039  10.615  16.344  0.00  0.00    +0.000 A 
ATOM      7  C   UNL     1      -4.300  11.518  17.497  0.00  0.00    +0.000 A 
ATOM      8  N   UNL     1      -3.489  11.726  18.486  0.00  0.00    +0.000 NA
ATOM      9  N   UNL     1      -2.305  11.062  18.386  0.00  0.00    +0.000 N 
ATOM     10  C   UNL     1      -1.269  11.086  19.295  0.00  0.00    +0.000 A 
ATOM     11  O   UNL     1      -1.186  11.630  20.386  0.00  0.00    +0.000 OA
BRANCH   7  12
ATOM     12  S   UNL     1      -5.866  12.287  17.408  0.00  0.00    +0.000 S 
BRANCH  12  13
ATOM     13  C   UNL     1      -6.498  12.109  19.112  0.00  0.00    +0.000 C 
ATOM     14  C   UNL     1      -7.656  13.071  19.380  0.00  0.00    +0.000 C 
ATOM     15  C   UNL     1      -6.977  10.667  19.285  0.00  0.00    +0.000 C 
ENDBRANCH  12  13
ENDBRANCH   7  12
ENDBRANCH   1   2
BRANCH   1  17
ATOM     16  N   UNL     1       2.047   7.813  18.762  0.00  0.00    +0.000 N 
ATOM     17  C   UNL     1       1.856   9.121  18.337  0.00  0.00    +0.000 C 
ATOM     18  O   UNL     1       2.391   9.651  17.365  0.00  0.00    +0.000 OA
ATOM     19  H   UNL     1       1.650   7.552  19.663  0.00  0.00    +0.000 HD
BRANCH  16  23
ATOM     20  C   UNL     1       4.357   4.727  17.000  0.00  0.00    +0.000 A 
ATOM     21  C   UNL     1       4.799   6.055  16.948  0.00  0.00    +0.000 A 
ATOM     22  C   UNL     1       4.050   7.089  17.514  0.00  0.00    +0.000 A 
ATOM     23  C   UNL     1       2.824   6.827  18.115  0.00  0.00    +0.000 A 
ATOM     24  C   UNL     1       2.336   5.515  18.082  0.00  0.00    +0.000 A 
ATOM     25  C   UNL     1       3.084   4.459  17.524  0.00  0.00    +0.000 A 
BRANCH  20  27
ATOM     26  C   UNL     1       6.356   4.113  15.898  0.00  0.00    +0.000 C 
ATOM     27  O   UNL     1       5.145   3.707  16.537  0.00  0.00    +0.000 OA
ENDBRANCH  20  27
BRANCH  25  28
ATOM     28  O   UNL     1       2.425   3.259  17.606  0.00  0.00    +0.000 OA
ATOM     29  C   UNL     1       1.301   3.147  18.467  0.00  0.00    +0.000 C 
ENDBRANCH  25  28
ENDBRANCH  16  23
ENDBRANCH   1  17
TORSDOF 7
ENDMDL
MODEL 4
REMARK VINA RESULT:      -7.2      4.975      9.844
REMARK  Name = 
REMARK  11 active torsions:
REMARK  status: ('A' for Active; 'I' for Inactive)
REMARK    1  A    between atoms: C_1  and  O_2
REMARK    2  A    between atoms: O_2  and  C_3
REMARK    3  A    between atoms: C_6  and  N_7
REMARK    4  A    between atoms: C_8  and  C_10
REMARK    5  A    between atoms: C_10  and  N_11
REMARK    6  A    between atoms: C_16  and  S_17
REMARK    7  A    between atoms: S_17  and  C_18
REMARK    8  A    between atoms: C_18  and  C_19
REMARK    9  A    between atoms: C_18  and  C_20
REMARK   10  A    between atoms: C_26  and  O_27
REMARK   11  A    between atoms: O_27  and  C_28
REMARK                            x       y       z     vdW  Elec       q    Type
REMARK                         _______ _______ _______ _____ _____    ______ ____
ROOT
ATOM      1  C   UNL     1       1.364  10.112  19.440  0.00  0.00    +0.000 C 
ENDROOT
BRANCH   1   2
ATOM      2  N   UNL     1       0.066  10.313  18.849  0.00  0.00    +0.000 N 
ATOM      3  N   UNL     1      -0.295   9.789  17.623  0.00  0.00    +0.000 NA
ATOM      4  C   UNL     1      -1.519  10.183  17.471  0.00  0.00    +0.000 A 
ATOM      5  C   UNL     1      -2.406   9.902  16.344  0.00  0.00    +0.000 A 
ATOM      6  C   UNL     1      -3.640  10.419  16.376  0.00  0.00    +0.000 A 
ATOM      7  C   UNL     1      -4.014  11.245  17.556  0.00  0.00    +0.000 A 
ATOM      8  N   UNL     1      -3.253  11.484  18.576  0.00  0.00    +0.000 NA
ATOM      9  N   UNL     1      -2.010  10.935  18.486  0.00  0.00    +0.000 N 
ATOM     10  C   UNL     1      -1.005  11.015  19.427  0.00  0.00    +0.000 A 
ATOM     11  O   UNL     1      -1.003  11.516  20.541  0.00  0.00    +0.000 OA
BRANCH   7  12
ATOM     12  S   UNL     1      -5.642  11.871  17.450  0.00  0.00    +0.000 S 
BRANCH  12  13
ATOM     13  C   UNL     1      -6.315  11.523  19.112  0.00  0.00    +0.000 C 
ATOM     14  C   UNL     1      -7.482  12.451  19.445  0.00  0.00    +0.000 C 
ATOM     15  C   UNL     1      -6.793  10.070  19.127  0.00  0.00    +0.000 C 
ENDBRANCH  12  13
ENDBRANCH   7  12
ENDBRANCH   1   2
BRANCH   1  17
ATOM     16  N   UNL     1       2.259   8.067  18.430  0.00  0.00    +0.000 N 
ATOM     17  C   UNL     1       1.701   8.628  19.572  0.00  0.00    +0.000 C 
ATOM     18  O   UNL     1       1.367   8.020  20.587  0.00  0.00    +0.000 OA
ATOM     19  H   UNL     1       2.355   8.668  17.613  0.00  0.00    +0.000 HD
BRANCH  16  23
ATOM     20  C   UNL     1       3.467   4.066  17.724  0.00  0.00    +0.000 A 
ATOM     21  C   UNL     1       2.118   4.365  17.953  0.00  0.00    +0.000 A 
ATOM     22  C   UNL     1       1.699   5.674  18.196  0.00  0.00    +0.000 A 
ATOM     23  C   UNL     1       2.620   6.713  18.253  0.00  0.00    +0.000 A 
ATOM     24  C   UNL     1       3.979   6.401  18.122  0.00  0.00    +0.000 A 
ATOM     25  C   UNL     1       4.418   5.086  17.865  0.00  0.00    +0.000 A 
BRANCH  20  27
ATOM     26  C   UNL     1       3.332   1.756  18.207  0.00  0.00    +0.000 C 
ATOM     27  O   UNL     1       3.857   2.798  17.383  0.00  0.00    +0.000 OA
ENDBRANCH  20  27
BRANCH  25  28
ATOM     28  O   UNL     1       5.783   5.008  17.762  0.00  0.00    +0.000 OA
ATOM     29  C   UNL     1       6.532   6.203  17.592  0.00  0.00    +0.000 C 
ENDBRANCH  25  28
ENDBRANCH  16  23
ENDBRANCH   1  17
TORSDOF 7
ENDMDL
MODEL 5
REMARK VINA RESULT:      -7.2      5.093     10.071
REMARK  Name = 
REMARK  11 active torsions:
REMARK  status: ('A' for Active; 'I' for Inactive)
REMARK    1  A    between atoms: C_1  and  O_2
REMARK    2  A    between atoms: O_2  and  C_3
REMARK    3  A    between atoms: C_6  and  N_7
REMARK    4  A    between atoms: C_8  and  C_10
REMARK    5  A    between atoms: C_10  and  N_11
REMARK    6  A    between atoms: C_16  and  S_17
REMARK    7  A    between atoms: S_17  and  C_18
REMARK    8  A    between atoms: C_18  and  C_19
REMARK    9  A    between atoms: C_18  and  C_20
REMARK   10  A    between atoms: C_26  and  O_27
REMARK   11  A    between atoms: O_27  and  C_28
REMARK                            x       y       z     vdW  Elec       q    Type
REMARK                         _______ _______ _______ _____ _____    ______ ____
ROOT
ATOM      1  C   UNL     1       1.480  10.189  18.998  0.00  0.00    +0.000 C 
ENDROOT
BRANCH   1   2
ATOM      2  N   UNL     1       0.088  10.447  18.734  0.00  0.00    +0.000 N 
ATOM      3  N   UNL     1      -0.626   9.799  17.746  0.00  0.00    +0.000 NA
ATOM      4  C   UNL     1      -1.816  10.301  17.848  0.00  0.00    +0.000 A 
ATOM      5  C   UNL     1      -2.991   9.964  17.049  0.00  0.00    +0.000 A 
ATOM      6  C   UNL     1      -4.132  10.614  17.309  0.00  0.00    +0.000 A 
ATOM      7  C   UNL     1      -4.115  11.634  18.392  0.00  0.00    +0.000 A 
ATOM      8  N   UNL     1      -3.091  11.929  19.129  0.00  0.00    +0.000 NA
ATOM      9  N   UNL     1      -1.960  11.239  18.816  0.00  0.00    +0.000 N 
ATOM     10  C   UNL     1      -0.736  11.338  19.442  0.00  0.00    +0.000 A 
ATOM     11  O   UNL     1      -0.397  11.989  20.420  0.00  0.00    +0.000 OA
BRANCH   7  12
ATOM     12  S   UNL     1      -5.663  12.416  18.604  0.00  0.00    +0.000 S 
BRANCH  12  13
ATOM     13  C   UNL     1      -6.370  11.526  20.033  0.00  0.00    +0.000 C 
ATOM     14  C   UNL     1      -7.436  12.364  20.739  0.00  0.00    +0.000 C 
ATOM     15  C   UNL     1      -6.995  10.230  19.513  0.00  0.00    +0.000 C 
ENDBRANCH  12  13
ENDBRANCH   7  12
ENDBRANCH   1   2
BRANCH   1  17
ATOM     16  N   UNL     1       2.057   7.820  19.240  0.00  0.00    +0.000 N 
ATOM     17  C   UNL     1       1.944   8.883  18.354  0.00  0.00    +0.000 C 
ATOM     18  O   UNL     1       2.287   8.880  17.173  0.00  0.00    +0.000 OA
ATOM     19  H   UNL     1       1.866   8.009  20.223  0.00  0.00    +0.000 HD
BRANCH  16  23
ATOM     20  C   UNL     1       3.599   4.002  18.235  0.00  0.00    +0.000 A 
ATOM     21  C   UNL     1       2.277   4.335  17.914  0.00  0.00    +0.000 A 
ATOM     22  C   UNL     1       1.746   5.583  18.243  0.00  0.00    +0.000 A 
ATOM     23  C   UNL     1       2.509   6.518  18.933  0.00  0.00    +0.000 A 
ATOM     24  C   UNL     1       3.798   6.150  19.341  0.00  0.00    +0.000 A 
ATOM     25  C   UNL     1       4.352   4.898  19.007  0.00  0.00    +0.000 A 
BRANCH  20  27
ATOM     26  C   UNL     1       3.448   1.643  18.233  0.00  0.00    +0.000 C 
ATOM     27  O   UNL     1       4.146   2.818  17.817  0.00  0.00    +0.000 OA
ENDBRANCH  20  27
BRANCH  25  28
ATOM     28  O   UNL     1       5.625   4.751  19.495  0.00  0.00    +0.000 OA
ATOM     29  C   UNL     1       6.657   5.589  18.996  0.00  0.00    +0.000 C 
ENDBRANCH  25  28
ENDBRANCH  16  23
ENDBRANCH   1  17
TORSDOF 7
ENDMDL
MODEL 6
REMARK VINA RESULT:      -7.1      3.820      5.897
REMARK  Name = 
REMARK  11 active torsions:
REMARK  status: ('A' for Active; 'I' for Inactive)
REMARK    1  A    between atoms: C_1  and  O_2
REMARK    2  A    between atoms: O_2  and  C_3
REMARK    3  A    between atoms: C_6  and  N_7
REMARK    4  A    between atoms: C_8  and  C_10
REMARK    5  A    between atoms: C_10  and  N_11
REMARK    6  A    between atoms: C_16  and  S_17
REMARK    7  A    between atoms: S_17  and  C_18
REMARK    8  A    between atoms: C_18  and  C_19
REMARK    9  A    between atoms: C_18  and  C_20
REMARK   10  A    between atoms: C_26  and  O_27
REMARK   11  A    between atoms: O_27  and  C_28
REMARK                            x       y       z     vdW  Elec       q    Type
REMARK                         _______ _______ _______ _____ _____    ______ ____
ROOT
ATOM      1  C   UNL     1       1.226  10.108  19.759  0.00  0.00    +0.000 C 
ENDROOT
BRANCH   1   2
ATOM      2  N   UNL     1       1.761   8.802  19.473  0.00  0.00    +0.000 N 
ATOM      3  N   UNL     1       1.770   7.771  20.392  0.00  0.00    +0.000 NA
ATOM      4  C   UNL     1       2.314   6.789  19.745  0.00  0.00    +0.000 A 
ATOM      5  C   UNL     1       2.562   5.436  20.236  0.00  0.00    +0.000 A 
ATOM      6  C   UNL     1       3.152   4.568  19.404  0.00  0.00    +0.000 A 
ATOM      7  C   UNL     1       3.513   5.050  18.044  0.00  0.00    +0.000 A 
ATOM      8  N   UNL     1       3.278   6.236  17.581  0.00  0.00    +0.000 NA
ATOM      9  N   UNL     1       2.680   7.075  18.472  0.00  0.00    +0.000 N 
ATOM     10  C   UNL     1       2.303   8.381  18.246  0.00  0.00    +0.000 A 
ATOM     11  O   UNL     1       2.351   9.055  17.228  0.00  0.00    +0.000 OA
BRANCH   7  12
ATOM     12  S   UNL     1       4.295   3.819  17.081  0.00  0.00    +0.000 S 
BRANCH  12  13
ATOM     13  C   UNL     1       5.688   4.727  16.324  0.00  0.00    +0.000 C 
ATOM     14  C   UNL     1       6.933   4.674  17.210  0.00  0.00    +0.000 C 
ATOM     15  C   UNL     1       5.990   4.078  14.973  0.00  0.00    +0.000 C 
ENDBRANCH  12  13
ENDBRANCH   7  12
ENDBRANCH   1   2
BRANCH   1  17
ATOM     16  N   UNL     1      -0.738  10.954  18.562  0.00  0.00    +0.000 N 
ATOM     17  C   UNL     1      -0.293  10.143  19.599  0.00  0.00    +0.000 C 
ATOM     18  O   UNL     1      -1.002   9.575  20.427  0.00  0.00    +0.000 OA
ATOM     19  H   UNL     1      -0.033  11.473  18.040  0.00  0.00    +0.000 HD
BRANCH  16  23
ATOM     20  C   UNL     1      -4.703  11.841  17.354  0.00  0.00    +0.000 A 
ATOM     21  C   UNL     1      -4.317  12.017  18.689  0.00  0.00    +0.000 A 
ATOM     22  C   UNL     1      -3.019  11.723  19.111  0.00  0.00    +0.000 A 
ATOM     23  C   UNL     1      -2.083  11.212  18.219  0.00  0.00    +0.000 A 
ATOM     24  C   UNL     1      -2.495  10.944  16.908  0.00  0.00    +0.000 A 
ATOM     25  C   UNL     1      -3.799  11.245  16.463  0.00  0.00    +0.000 A 
BRANCH  20  27
ATOM     26  C   UNL     1      -6.998  12.060  17.874  0.00  0.00    +0.000 C 
ATOM     27  O   UNL     1      -5.944  12.229  16.925  0.00  0.00    +0.000 OA
ENDBRANCH  20  27
BRANCH  25  28
ATOM     28  O   UNL     1      -3.984  10.913  15.146  0.00  0.00    +0.000 OA
ATOM     29  C   UNL     1      -3.138   9.939  14.553  0.00  0.00    +0.000 C 
ENDBRANCH  25  28
ENDBRANCH  16  23
ENDBRANCH   1  17
TORSDOF 7
ENDMDL
MODEL 7
REMARK VINA RESULT:      -7.1      5.818      7.566
REMARK  Name = 
REMARK  11 active torsions:
REMARK  status: ('A' for Active; 'I' for Inactive)
REMARK    1  A    between atoms: C_1  and  O_2
REMARK    2  A    between atoms: O_2  and  C_3
REMARK    3  A    between atoms: C_6  and  N_7
REMARK    4  A    between atoms: C_8  and  C_10
REMARK    5  A    between atoms: C_10  and  N_11
REMARK    6  A    between atoms: C_16  and  S_17
REMARK    7  A    between atoms: S_17  and  C_18
REMARK    8  A    between atoms: C_18  and  C_19
REMARK    9  A    between atoms: C_18  and  C_20
REMARK   10  A    between atoms: C_26  and  O_27
REMARK   11  A    between atoms: O_27  and  C_28
REMARK                            x       y       z     vdW  Elec       q    Type
REMARK                         _______ _______ _______ _____ _____    ______ ____
ROOT
ATOM      1  C   UNL     1       7.420   7.129  16.651  0.00  0.00    +0.000 C 
ENDROOT
BRANCH   1   2
ATOM      2  N   UNL     1       6.197   6.470  17.030  0.00  0.00    +0.000 N 
ATOM      3  N   UNL     1       5.074   7.149  17.458  0.00  0.00    +0.000 NA
ATOM      4  C   UNL     1       4.212   6.208  17.681  0.00  0.00    +0.000 A 
ATOM      5  C   UNL     1       2.834   6.359  18.143  0.00  0.00    +0.000 A 
ATOM      6  C   UNL     1       2.111   5.248  18.324  0.00  0.00    +0.000 A 
ATOM      7  C   UNL     1       2.766   3.942  18.045  0.00  0.00    +0.000 A 
ATOM      8  N   UNL     1       3.976   3.788  17.609  0.00  0.00    +0.000 NA
ATOM      9  N   UNL     1       4.664   4.952  17.448  0.00  0.00    +0.000 N 
ATOM     10  C   UNL     1       5.956   5.086  16.987  0.00  0.00    +0.000 A 
ATOM     11  O   UNL     1       6.740   4.245  16.572  0.00  0.00    +0.000 OA
BRANCH   7  12
ATOM     12  S   UNL     1       1.711   2.582  18.347  0.00  0.00    +0.000 S 
BRANCH  12  13
ATOM     13  C   UNL     1       2.039   2.203  20.103  0.00  0.00    +0.000 C 
ATOM     14  C   UNL     1       3.487   2.515  20.480  0.00  0.00    +0.000 C 
ATOM     15  C   UNL     1       1.093   3.055  20.950  0.00  0.00    +0.000 C 
ENDBRANCH  12  13
ENDBRANCH   7  12
ENDBRANCH   1   2
BRANCH   1  17
ATOM     16  N   UNL     1       8.156   9.309  17.494  0.00  0.00    +0.000 N 
ATOM     17  C   UNL     1       7.989   7.964  17.797  0.00  0.00    +0.000 C 
ATOM     18  O   UNL     1       8.358   7.404  18.827  0.00  0.00    +0.000 OA
ATOM     19  H   UNL     1       7.928   9.606  16.546  0.00  0.00    +0.000 HD
BRANCH  16  23
ATOM     20  C   UNL     1       9.919  12.350  19.862  0.00  0.00    +0.000 A 
ATOM     21  C   UNL     1       9.865  11.032  20.334  0.00  0.00    +0.000 A 
ATOM     22  C   UNL     1       9.281  10.016  19.575  0.00  0.00    +0.000 A 
ATOM     23  C   UNL     1       8.705  10.297  18.341  0.00  0.00    +0.000 A 
ATOM     24  C   UNL     1       8.672  11.630  17.913  0.00  0.00    +0.000 A 
ATOM     25  C   UNL     1       9.266  12.665  18.663  0.00  0.00    +0.000 A 
BRANCH  20  27
ATOM     26  C   UNL     1       9.789  14.056  21.493  0.00  0.00    +0.000 C 
ATOM     27  O   UNL     1      10.585  13.319  20.564  0.00  0.00    +0.000 OA
ENDBRANCH  20  27
BRANCH  25  28
ATOM     28  O   UNL     1       9.128  13.887  18.056  0.00  0.00    +0.000 OA
ATOM     29  C   UNL     1       7.842  14.489  18.001  0.00  0.00    +0.000 C 
ENDBRANCH  25  28
ENDBRANCH  16  23
ENDBRANCH   1  17
TORSDOF 7
ENDMDL
MODEL 8
REMARK VINA RESULT:      -7.1      4.885     10.244
REMARK  Name = 
REMARK  11 active torsions:
REMARK  status: ('A' for Active; 'I' for Inactive)
REMARK    1  A    between atoms: C_1  and  O_2
REMARK    2  A    between atoms: O_2  and  C_3
REMARK    3  A    between atoms: C_6  and  N_7
REMARK    4  A    between atoms: C_8  and  C_10
REMARK    5  A    between atoms: C_10  and  N_11
REMARK    6  A    between atoms: C_16  and  S_17
REMARK    7  A    between atoms: S_17  and  C_18
REMARK    8  A    between atoms: C_18  and  C_19
REMARK    9  A    between atoms: C_18  and  C_20
REMARK   10  A    between atoms: C_26  and  O_27
REMARK   11  A    between atoms: O_27  and  C_28
REMARK                            x       y       z     vdW  Elec       q    Type
REMARK                         _______ _______ _______ _____ _____    ______ ____
ROOT
ATOM      1  C   UNL     1       1.441   9.429  21.925  0.00  0.00    +0.000 C 
ENDROOT
BRANCH   1   2
ATOM      2  N   UNL     1       0.312  10.321  21.977  0.00  0.00    +0.000 N 
ATOM      3  N   UNL     1      -0.436  10.527  23.120  0.00  0.00    +0.000 NA
ATOM      4  C   UNL     1      -1.328  11.391  22.750  0.00  0.00    +0.000 A 
ATOM      5  C   UNL     1      -2.382  11.981  23.571  0.00  0.00    +0.000 A 
ATOM      6  C   UNL     1      -3.215  12.852  22.987  0.00  0.00    +0.000 A 
ATOM      7  C   UNL     1      -3.006  13.149  21.545  0.00  0.00    +0.000 A 
ATOM      8  N   UNL     1      -2.062  12.657  20.807  0.00  0.00    +0.000 NA
ATOM      9  N   UNL     1      -1.249  11.776  21.453  0.00  0.00    +0.000 N 
ATOM     10  C   UNL     1      -0.162  11.117  20.921  0.00  0.00    +0.000 A 
ATOM     11  O   UNL     1       0.352  11.202  19.815  0.00  0.00    +0.000 OA
BRANCH   7  12
ATOM     12  S   UNL     1      -4.179  14.280  20.914  0.00  0.00    +0.000 S 
BRANCH  12  13
ATOM     13  C   UNL     1      -5.416  13.183  20.137  0.00  0.00    +0.000 C 
ATOM     14  C   UNL     1      -4.759  12.203  19.165  0.00  0.00    +0.000 C 
ATOM     15  C   UNL     1      -6.119  12.408  21.252  0.00  0.00    +0.000 C 
ENDBRANCH  12  13
ENDBRANCH   7  12
ENDBRANCH   1   2
BRANCH   1  17
ATOM     16  N   UNL     1       2.145   7.493  20.598  0.00  0.00    +0.000 N 
ATOM     17  C   UNL     1       1.084   8.104  21.254  0.00  0.00    +0.000 C 
ATOM     18  O   UNL     1      -0.088   7.734  21.233  0.00  0.00    +0.000 OA
ATOM     19  H   UNL     1       3.035   7.989  20.588  0.00  0.00    +0.000 HD
BRANCH  16  23
ATOM     20  C   UNL     1       2.089   3.791  18.536  0.00  0.00    +0.000 A 
ATOM     21  C   UNL     1       2.492   4.959  17.876  0.00  0.00    +0.000 A 
ATOM     22  C   UNL     1       2.510   6.190  18.533  0.00  0.00    +0.000 A 
ATOM     23  C   UNL     1       2.092   6.293  19.855  0.00  0.00    +0.000 A 
ATOM     24  C   UNL     1       1.596   5.145  20.485  0.00  0.00    +0.000 A 
ATOM     25  C   UNL     1       1.582   3.892  19.839  0.00  0.00    +0.000 A 
BRANCH  20  27
ATOM     26  C   UNL     1       3.352   1.820  18.210  0.00  0.00    +0.000 C 
ATOM     27  O   UNL     1       2.173   2.571  17.918  0.00  0.00    +0.000 OA
ENDBRANCH  20  27
BRANCH  25  28
ATOM     28  O   UNL     1       1.067   2.905  20.639  0.00  0.00    +0.000 OA
ATOM     29  C   UNL     1       1.756   2.553  21.830  0.00  0.00    +0.000 C 
ENDBRANCH  25  28
ENDBRANCH  16  23
ENDBRANCH   1  17
TORSDOF 7
ENDMDL
MODEL 9
REMARK VINA RESULT:      -7.0      4.970      9.857
REMARK  Name = 
REMARK  11 active torsions:
REMARK  status: ('A' for Active; 'I' for Inactive)
REMARK    1  A    between atoms: C_1  and  O_2
REMARK    2  A    between atoms: O_2  and  C_3
REMARK    3  A    between atoms: C_6  and  N_7
REMARK    4  A    between atoms: C_8  and  C_10
REMARK    5  A    between atoms: C_10  and  N_11
REMARK    6  A    between atoms: C_16  and  S_17
REMARK    7  A    between atoms: S_17  and  C_18
REMARK    8  A    between atoms: C_18  and  C_19
REMARK    9  A    between atoms: C_18  and  C_20
REMARK   10  A    between atoms: C_26  and  O_27
REMARK   11  A    between atoms: O_27  and  C_28
REMARK                            x       y       z     vdW  Elec       q    Type
REMARK                         _______ _______ _______ _____ _____    ______ ____
ROOT
ATOM      1  C   UNL     1       1.956  10.112  18.232  0.00  0.00    +0.000 C 
ENDROOT
BRANCH   1   2
ATOM      2  N   UNL     1       0.544  10.390  18.300  0.00  0.00    +0.000 N 
ATOM      3  N   UNL     1      -0.404   9.654  17.616  0.00  0.00    +0.000 NA
ATOM      4  C   UNL     1      -1.524  10.210  17.953  0.00  0.00    +0.000 A 
ATOM      5  C   UNL     1      -2.867   9.824  17.527  0.00  0.00    +0.000 A 
ATOM      6  C   UNL     1      -3.899  10.544  17.984  0.00  0.00    +0.000 A 
ATOM      7  C   UNL     1      -3.599  11.687  18.888  0.00  0.00    +0.000 A 
ATOM      8  N   UNL     1      -2.419  12.029  19.298  0.00  0.00    +0.000 NA
ATOM      9  N   UNL     1      -1.410  11.263  18.798  0.00  0.00    +0.000 N 
ATOM     10  C   UNL     1      -0.065  11.391  19.075  0.00  0.00    +0.000 A 
ATOM     11  O   UNL     1       0.517  12.142  19.844  0.00  0.00    +0.000 OA
BRANCH   7  12
ATOM     12  S   UNL     1      -5.036  12.547  19.385  0.00  0.00    +0.000 S 
BRANCH  12  13
ATOM     13  C   UNL     1      -6.379  11.492  18.738  0.00  0.00    +0.000 C 
ATOM     14  C   UNL     1      -7.253  10.949  19.868  0.00  0.00    +0.000 C 
ATOM     15  C   UNL     1      -7.229  12.344  17.794  0.00  0.00    +0.000 C 
ENDBRANCH  12  13
ENDBRANCH   7  12
ENDBRANCH   1   2
BRANCH   1  17
ATOM     16  N   UNL     1       2.128   7.969  19.407  0.00  0.00    +0.000 N 
ATOM     17  C   UNL     1       2.234   8.611  18.180  0.00  0.00    +0.000 C 
ATOM     18  O   UNL     1       2.632   8.107  17.132  0.00  0.00    +0.000 OA
ATOM     19  H   UNL     1       1.918   8.546  20.219  0.00  0.00    +0.000 HD
BRANCH  16  23
ATOM     20  C   UNL     1       2.937   3.845  19.958  0.00  0.00    +0.000 A 
ATOM     21  C   UNL     1       1.752   4.403  20.454  0.00  0.00    +0.000 A 
ATOM     22  C   UNL     1       1.469   5.760  20.292  0.00  0.00    +0.000 A 
ATOM     23  C   UNL     1       2.378   6.602  19.661  0.00  0.00    +0.000 A 
ATOM     24  C   UNL     1       3.605   6.066  19.252  0.00  0.00    +0.000 A 
ATOM     25  C   UNL     1       3.901   4.695  19.399  0.00  0.00    +0.000 A 
BRANCH  20  27
ATOM     26  C   UNL     1       2.903   1.771  18.824  0.00  0.00    +0.000 C 
ATOM     27  O   UNL     1       3.161   2.496  20.028  0.00  0.00    +0.000 OA
ENDBRANCH  20  27
BRANCH  25  28
ATOM     28  O   UNL     1       5.149   4.383  18.923  0.00  0.00    +0.000 OA
ATOM     29  C   UNL     1       5.376   4.398  17.521  0.00  0.00    +0.000 C 
ENDBRANCH  25  28
ENDBRANCH  16  23
ENDBRANCH   1  17
TORSDOF 7
ENDMDL
