MODEL 1
REMARK VINA RESULT:      -6.6      0.000      0.000
REMARK  Name = 
REMARK  16 active torsions:
REMARK  status: ('A' for Active; 'I' for Inactive)
REMARK    1  A    between atoms: C_1  and  C_2
REMARK    2  A    between atoms: C_2  and  C_3
REMARK    3  A    between atoms: C_3  and  C_4
REMARK    4  A    between atoms: C_4  and  C_5
REMARK    5  A    between atoms: C_5  and  C_6
REMARK    6  A    between atoms: C_6  and  C_7
REMARK    7  A    between atoms: C_7  and  C_8
REMARK    8  A    between atoms: C_8  and  C_9
REMARK    9  A    between atoms: C_9  and  C_10
REMARK   10  A    between atoms: C_10  and  C_11
REMARK   11  A    between atoms: C_11  and  C_12
REMARK   12  A    between atoms: C_12  and  O_13
REMARK   13  A    between atoms: O_13  and  C_14
REMARK   14  A    between atoms: C_14  and  C_16
REMARK   15  A    between atoms: C_16  and  C_17
REMARK   16  A    between atoms: C_19  and  C_20
REMARK                            x       y       z     vdW  Elec       q    Type
REMARK                         _______ _______ _______ _____ _____    ______ ____
ROOT
ATOM      1  C   UNL     1       2.357   2.824  21.386  0.00  0.00    +0.000 C 
ATOM      2  O   UNL     1       1.509   2.253  22.060  0.00  0.00    +0.000 OA
ENDROOT
BRANCH   1   3
ATOM      3  C   UNL     1       2.067   4.015  20.567  0.00  0.00    +0.000 C 
ATOM      4  C   UNL     1       2.490   5.212  21.025  0.00  0.00    +0.000 C 
BRANCH   4   5
ATOM      5  C   UNL     1       2.282   6.426  20.323  0.00  0.00    +0.000 A 
ATOM      6  C   UNL     1       2.621   6.872  19.061  0.00  0.00    +0.000 A 
ATOM      7  C   UNL     1       1.991   8.132  18.857  0.00  0.00    +0.000 A 
ATOM      8  C   UNL     1       1.895   9.019  17.762  0.00  0.00    +0.000 A 
ATOM      9  C   UNL     1       1.130  10.184  17.889  0.00  0.00    +0.000 A 
ATOM     10  C   UNL     1       0.492  10.490  19.089  0.00  0.00    +0.000 A 
ATOM     11  C   UNL     1       0.590   9.637  20.196  0.00  0.00    +0.000 A 
ATOM     12  C   UNL     1       1.333   8.460  20.042  0.00  0.00    +0.000 A 
ATOM     13  N   UNL     1       1.551   7.424  20.924  0.00  0.00    +0.000 N 
ATOM     14  H   UNL     1       1.178   7.397  21.863  0.00  0.00    +0.000 HD
ENDBRANCH   4   5
BRANCH   3  15
ATOM     15  C   UNL     1       1.338   3.935  19.235  0.00  0.00    +0.000 C 
ATOM     16  N   UNL     1       0.733   3.870  18.130  0.00  0.00    +0.000 NA
ENDBRANCH   3  15
ENDBRANCH   1   3
BRANCH   1  17
ATOM     17  O   UNL     1       3.665   2.472  21.318  0.00  0.00    +0.000 OA
BRANCH  17  18
ATOM     18  C   UNL     1       4.073   1.919  20.054  0.00  0.00    +0.000 C 
BRANCH  18  19
ATOM     19  C   UNL     1       4.786   2.962  19.191  0.00  0.00    +0.000 C 
BRANCH  19  20
ATOM     20  C   UNL     1       4.275   2.965  17.749  0.00  0.00    +0.000 C 
BRANCH  20  21
ATOM     21  C   UNL     1       4.238   4.382  17.174  0.00  0.00    +0.000 C 
BRANCH  21  22
ATOM     22  C   UNL     1       5.560   5.113  17.411  0.00  0.00    +0.000 C 
BRANCH  22  23
ATOM     23  C   UNL     1       6.585   4.767  16.331  0.00  0.00    +0.000 C 
BRANCH  23  24
ATOM     24  C   UNL     1       6.197   5.377  14.983  0.00  0.00    +0.000 C 
BRANCH  24  25
ATOM     25  C   UNL     1       6.828   4.602  13.829  0.00  0.00    +0.000 C 
BRANCH  25  26
ATOM     26  C   UNL     1       5.931   3.446  13.384  0.00  0.00    +0.000 C 
BRANCH  26  27
ATOM     27  C   UNL     1       5.639   3.524  11.886  0.00  0.00    +0.000 C 
BRANCH  27  29
ATOM     28  C   UNL     1       3.573   3.786  10.480  0.00  0.00    +0.000 C 
ATOM     29  C   UNL     1       4.255   2.967  11.562  0.00  0.00    +0.000 C 
ENDBRANCH  27  29
ENDBRANCH  26  27
ENDBRANCH  25  26
ENDBRANCH  24  25
ENDBRANCH  23  24
ENDBRANCH  22  23
ENDBRANCH  21  22
ENDBRANCH  20  21
ENDBRANCH  19  20
ENDBRANCH  18  19
ENDBRANCH  17  18
ENDBRANCH   1  17
TORSDOF 15
ENDMDL
MODEL 2
REMARK VINA RESULT:      -6.5      4.183      5.992
REMARK  Name = 
REMARK  16 active torsions:
REMARK  status: ('A' for Active; 'I' for Inactive)
REMARK    1  A    between atoms: C_1  and  C_2
REMARK    2  A    between atoms: C_2  and  C_3
REMARK    3  A    between atoms: C_3  and  C_4
REMARK    4  A    between atoms: C_4  and  C_5
REMARK    5  A    between atoms: C_5  and  C_6
REMARK    6  A    between atoms: C_6  and  C_7
REMARK    7  A    between atoms: C_7  and  C_8
REMARK    8  A    between atoms: C_8  and  C_9
REMARK    9  A    between atoms: C_9  and  C_10
REMARK   10  A    between atoms: C_10  and  C_11
REMARK   11  A    between atoms: C_11  and  C_12
REMARK   12  A    between atoms: C_12  and  O_13
REMARK   13  A    between atoms: O_13  and  C_14
REMARK   14  A    between atoms: C_14  and  C_16
REMARK   15  A    between atoms: C_16  and  C_17
REMARK   16  A    between atoms: C_19  and  C_20
REMARK                            x       y       z     vdW  Elec       q    Type
REMARK                         _______ _______ _______ _____ _____    ______ ____
ROOT
ATOM      1  C   UNL     1       4.186   3.740  18.670  0.00  0.00    +0.000 C 
ATOM      2  O   UNL     1       4.839   3.053  19.445  0.00  0.00    +0.000 OA
ENDROOT
BRANCH   1   3
ATOM      3  C   UNL     1       3.171   4.713  19.114  0.00  0.00    +0.000 C 
ATOM      4  C   UNL     1       3.423   6.023  18.910  0.00  0.00    +0.000 C 
BRANCH   4   5
ATOM      5  C   UNL     1       2.521   7.052  19.283  0.00  0.00    +0.000 A 
ATOM      6  C   UNL     1       1.909   7.403  20.470  0.00  0.00    +0.000 A 
ATOM      7  C   UNL     1       1.233   8.639  20.265  0.00  0.00    +0.000 A 
ATOM      8  C   UNL     1       0.517   9.520  21.104  0.00  0.00    +0.000 A 
ATOM      9  C   UNL     1       0.009  10.712  20.574  0.00  0.00    +0.000 A 
ATOM     10  C   UNL     1       0.176  11.018  19.225  0.00  0.00    +0.000 A 
ATOM     11  C   UNL     1       0.863  10.151  18.368  0.00  0.00    +0.000 A 
ATOM     12  C   UNL     1       1.392   8.978  18.921  0.00  0.00    +0.000 A 
ATOM     13  N   UNL     1       2.151   7.984  18.343  0.00  0.00    +0.000 N 
ATOM     14  H   UNL     1       2.427   7.981  17.370  0.00  0.00    +0.000 HD
ENDBRANCH   4   5
BRANCH   3  15
ATOM     15  C   UNL     1       1.863   4.292  19.764  0.00  0.00    +0.000 C 
ATOM     16  N   UNL     1       0.778   3.943  20.303  0.00  0.00    +0.000 NA
ENDBRANCH   3  15
ENDBRANCH   1   3
BRANCH   1  17
ATOM     17  O   UNL     1       4.318   3.731  17.320  0.00  0.00    +0.000 OA
BRANCH  17  18
ATOM     18  C   UNL     1       5.638   4.053  16.845  0.00  0.00    +0.000 C 
BRANCH  18  19
ATOM     19  C   UNL     1       5.613   5.246  15.888  0.00  0.00    +0.000 C 
BRANCH  19  20
ATOM     20  C   UNL     1       6.483   6.402  16.383  0.00  0.00    +0.000 C 
BRANCH  20  21
ATOM     21  C   UNL     1       6.768   6.284  17.881  0.00  0.00    +0.000 C 
BRANCH  21  22
ATOM     22  C   UNL     1       8.012   7.082  18.275  0.00  0.00    +0.000 C 
BRANCH  22  23
ATOM     23  C   UNL     1       7.867   8.555  17.894  0.00  0.00    +0.000 C 
BRANCH  23  24
ATOM     24  C   UNL     1       8.829   9.432  18.696  0.00  0.00    +0.000 C 
BRANCH  24  25
ATOM     25  C   UNL     1       9.079  10.761  17.987  0.00  0.00    +0.000 C 
BRANCH  25  26
ATOM     26  C   UNL     1       9.336  11.884  18.992  0.00  0.00    +0.000 C 
BRANCH  26  27
ATOM     27  C   UNL     1      10.174  11.385  20.168  0.00  0.00    +0.000 C 
BRANCH  27  29
ATOM     28  C   UNL     1      11.619  13.336  19.517  0.00  0.00    +0.000 C 
ATOM     29  C   UNL     1      11.597  11.936  20.107  0.00  0.00    +0.000 C 
ENDBRANCH  27  29
ENDBRANCH  26  27
ENDBRANCH  25  26
ENDBRANCH  24  25
ENDBRANCH  23  24
ENDBRANCH  22  23
ENDBRANCH  21  22
ENDBRANCH  20  21
ENDBRANCH  19  20
ENDBRANCH  18  19
ENDBRANCH  17  18
ENDBRANCH   1  17
TORSDOF 15
ENDMDL
MODEL 3
REMARK VINA RESULT:      -6.5      6.885      9.239
REMARK  Name = 
REMARK  16 active torsions:
REMARK  status: ('A' for Active; 'I' for Inactive)
REMARK    1  A    between atoms: C_1  and  C_2
REMARK    2  A    between atoms: C_2  and  C_3
REMARK    3  A    between atoms: C_3  and  C_4
REMARK    4  A    between atoms: C_4  and  C_5
REMARK    5  A    between atoms: C_5  and  C_6
REMARK    6  A    between atoms: C_6  and  C_7
REMARK    7  A    between atoms: C_7  and  C_8
REMARK    8  A    between atoms: C_8  and  C_9
REMARK    9  A    between atoms: C_9  and  C_10
REMARK   10  A    between atoms: C_10  and  C_11
REMARK   11  A    between atoms: C_11  and  C_12
REMARK   12  A    between atoms: C_12  and  O_13
REMARK   13  A    between atoms: O_13  and  C_14
REMARK   14  A    between atoms: C_14  and  C_16
REMARK   15  A    between atoms: C_16  and  C_17
REMARK   16  A    between atoms: C_19  and  C_20
REMARK                            x       y       z     vdW  Elec       q    Type
REMARK                         _______ _______ _______ _____ _____    ______ ____
ROOT
ATOM      1  C   UNL     1       7.089   6.666  16.584  0.00  0.00    +0.000 C 
ATOM      2  O   UNL     1       7.734   6.105  15.707  0.00  0.00    +0.000 OA
ENDROOT
BRANCH   1   3
ATOM      3  C   UNL     1       6.104   5.970  17.431  0.00  0.00    +0.000 C 
ATOM      4  C   UNL     1       4.867   5.773  16.925  0.00  0.00    +0.000 C 
BRANCH   4   5
ATOM      5  C   UNL     1       3.838   5.107  17.638  0.00  0.00    +0.000 A 
ATOM      6  C   UNL     1       2.982   4.068  17.333  0.00  0.00    +0.000 A 
ATOM      7  C   UNL     1       2.271   3.723  18.517  0.00  0.00    +0.000 A 
ATOM      8  C   UNL     1       1.344   2.712  18.850  0.00  0.00    +0.000 A 
ATOM      9  C   UNL     1       0.865   2.625  20.163  0.00  0.00    +0.000 A 
ATOM     10  C   UNL     1       1.270   3.542  21.130  0.00  0.00    +0.000 A 
ATOM     11  C   UNL     1       2.173   4.567  20.820  0.00  0.00    +0.000 A 
ATOM     12  C   UNL     1       2.666   4.620  19.510  0.00  0.00    +0.000 A 
ATOM     13  N   UNL     1       3.593   5.467  18.942  0.00  0.00    +0.000 N 
ATOM     14  H   UNL     1       4.053   6.214  19.444  0.00  0.00    +0.000 HD
ENDBRANCH   4   5
BRANCH   3  15
ATOM     15  C   UNL     1       6.437   5.457  18.822  0.00  0.00    +0.000 C 
ATOM     16  N   UNL     1       6.714   5.033  19.977  0.00  0.00    +0.000 NA
ENDBRANCH   3  15
ENDBRANCH   1   3
BRANCH   1  17
ATOM     17  O   UNL     1       7.206   7.975  16.919  0.00  0.00    +0.000 OA
BRANCH  17  18
ATOM     18  C   UNL     1       8.144   8.241  17.979  0.00  0.00    +0.000 C 
BRANCH  18  19
ATOM     19  C   UNL     1       8.505   9.726  18.047  0.00  0.00    +0.000 C 
BRANCH  19  20
ATOM     20  C   UNL     1       9.198  10.091  19.361  0.00  0.00    +0.000 C 
BRANCH  20  21
ATOM     21  C   UNL     1      10.389  11.021  19.123  0.00  0.00    +0.000 C 
BRANCH  21  22
ATOM     22  C   UNL     1      10.726  11.825  20.379  0.00  0.00    +0.000 C 
BRANCH  22  23
ATOM     23  C   UNL     1      10.792  13.322  20.075  0.00  0.00    +0.000 C 
BRANCH  23  24
ATOM     24  C   UNL     1      10.756  13.585  18.570  0.00  0.00    +0.000 C 
BRANCH  24  25
ATOM     25  C   UNL     1      10.465  15.055  18.276  0.00  0.00    +0.000 C 
BRANCH  25  26
ATOM     26  C   UNL     1      11.582  15.955  18.803  0.00  0.00    +0.000 C 
BRANCH  26  27
ATOM     27  C   UNL     1      11.805  17.150  17.878  0.00  0.00    +0.000 C 
BRANCH  27  29
ATOM     28  C   UNL     1       9.797  18.630  18.184  0.00  0.00    +0.000 C 
ATOM     29  C   UNL     1      10.491  17.634  17.271  0.00  0.00    +0.000 C 
ENDBRANCH  27  29
ENDBRANCH  26  27
ENDBRANCH  25  26
ENDBRANCH  24  25
ENDBRANCH  23  24
ENDBRANCH  22  23
ENDBRANCH  21  22
ENDBRANCH  20  21
ENDBRANCH  19  20
ENDBRANCH  18  19
ENDBRANCH  17  18
ENDBRANCH   1  17
TORSDOF 15
ENDMDL
MODEL 4
REMARK VINA RESULT:      -6.4      3.727      6.418
REMARK  Name = 
REMARK  16 active torsions:
REMARK  status: ('A' for Active; 'I' for Inactive)
REMARK    1  A    between atoms: C_1  and  C_2
REMARK    2  A    between atoms: C_2  and  C_3
REMARK    3  A    between atoms: C_3  and  C_4
REMARK    4  A    between atoms: C_4  and  C_5
REMARK    5  A    between atoms: C_5  and  C_6
REMARK    6  A    between atoms: C_6  and  C_7
REMARK    7  A    between atoms: C_7  and  C_8
REMARK    8  A    between atoms: C_8  and  C_9
REMARK    9  A    between atoms: C_9  and  C_10
REMARK   10  A    between atoms: C_10  and  C_11
REMARK   11  A    between atoms: C_11  and  C_12
REMARK   12  A    between atoms: C_12  and  O_13
REMARK   13  A    between atoms: O_13  and  C_14
REMARK   14  A    between atoms: C_14  and  C_16
REMARK   15  A    between atoms: C_16  and  C_17
REMARK   16  A    between atoms: C_19  and  C_20
REMARK                            x       y       z     vdW  Elec       q    Type
REMARK                         _______ _______ _______ _____ _____    ______ ____
ROOT
ATOM      1  C   UNL     1       1.780   8.947  18.445  0.00  0.00    +0.000 C 
ATOM      2  O   UNL     1       2.575   8.741  17.537  0.00  0.00    +0.000 OA
ENDROOT
BRANCH   1   3
ATOM      3  C   UNL     1       0.650   9.887  18.330  0.00  0.00    +0.000 C 
ATOM      4  C   UNL     1      -0.514   9.414  17.837  0.00  0.00    +0.000 C 
BRANCH   4   5
ATOM      5  C   UNL     1      -1.673  10.217  17.688  0.00  0.00    +0.000 A 
ATOM      6  C   UNL     1      -2.502  10.513  16.624  0.00  0.00    +0.000 A 
ATOM      7  C   UNL     1      -3.611  11.251  17.124  0.00  0.00    +0.000 A 
ATOM      8  C   UNL     1      -4.801  11.750  16.550  0.00  0.00    +0.000 A 
ATOM      9  C   UNL     1      -5.732  12.407  17.363  0.00  0.00    +0.000 A 
ATOM     10  C   UNL     1      -5.480  12.600  18.720  0.00  0.00    +0.000 A 
ATOM     11  C   UNL     1      -4.299  12.134  19.308  0.00  0.00    +0.000 A 
ATOM     12  C   UNL     1      -3.393  11.450  18.487  0.00  0.00    +0.000 A 
ATOM     13  N   UNL     1      -2.197  10.840  18.796  0.00  0.00    +0.000 N 
ATOM     14  H   UNL     1      -1.798  10.823  19.725  0.00  0.00    +0.000 HD
ENDBRANCH   4   5
BRANCH   3  15
ATOM     15  C   UNL     1       0.748  11.341  18.762  0.00  0.00    +0.000 C 
ATOM     16  N   UNL     1       0.829  12.548  19.121  0.00  0.00    +0.000 NA
ENDBRANCH   3  15
ENDBRANCH   1   3
BRANCH   1  17
ATOM     17  O   UNL     1       1.803   8.332  19.654  0.00  0.00    +0.000 OA
BRANCH  17  18
ATOM     18  C   UNL     1       2.351   7.001  19.639  0.00  0.00    +0.000 C 
BRANCH  18  19
ATOM     19  C   UNL     1       1.463   6.021  20.409  0.00  0.00    +0.000 C 
BRANCH  19  20
ATOM     20  C   UNL     1       2.272   4.899  21.059  0.00  0.00    +0.000 C 
BRANCH  20  21
ATOM     21  C   UNL     1       1.498   3.579  21.056  0.00  0.00    +0.000 C 
BRANCH  21  22
ATOM     22  C   UNL     1       1.103   3.171  19.636  0.00  0.00    +0.000 C 
BRANCH  22  23
ATOM     23  C   UNL     1       1.959   2.008  19.137  0.00  0.00    +0.000 C 
BRANCH  23  24
ATOM     24  C   UNL     1       2.623   2.340  17.800  0.00  0.00    +0.000 C 
BRANCH  24  25
ATOM     25  C   UNL     1       2.468   3.822  17.465  0.00  0.00    +0.000 C 
BRANCH  25  26
ATOM     26  C   UNL     1       3.830   4.490  17.275  0.00  0.00    +0.000 C 
BRANCH  26  27
ATOM     27  C   UNL     1       4.821   4.027  18.342  0.00  0.00    +0.000 C 
BRANCH  27  29
ATOM     28  C   UNL     1       6.780   5.594  18.490  0.00  0.00    +0.000 C 
ATOM     29  C   UNL     1       5.433   5.214  19.081  0.00  0.00    +0.000 C 
ENDBRANCH  27  29
ENDBRANCH  26  27
ENDBRANCH  25  26
ENDBRANCH  24  25
ENDBRANCH  23  24
ENDBRANCH  22  23
ENDBRANCH  21  22
ENDBRANCH  20  21
ENDBRANCH  19  20
ENDBRANCH  18  19
ENDBRANCH  17  18
ENDBRANCH   1  17
TORSDOF 15
ENDMDL
MODEL 5
REMARK VINA RESULT:      -6.3      5.934      8.461
REMARK  Name = 
REMARK  16 active torsions:
REMARK  status: ('A' for Active; 'I' for Inactive)
REMARK    1  A    between atoms: C_1  and  C_2
REMARK    2  A    between atoms: C_2  and  C_3
REMARK    3  A    between atoms: C_3  and  C_4
REMARK    4  A    between atoms: C_4  and  C_5
REMARK    5  A    between atoms: C_5  and  C_6
REMARK    6  A    between atoms: C_6  and  C_7
REMARK    7  A    between atoms: C_7  and  C_8
REMARK    8  A    between atoms: C_8  and  C_9
REMARK    9  A    between atoms: C_9  and  C_10
REMARK   10  A    between atoms: C_10  and  C_11
REMARK   11  A    between atoms: C_11  and  C_12
REMARK   12  A    between atoms: C_12  and  O_13
REMARK   13  A    between atoms: O_13  and  C_14
REMARK   14  A    between atoms: C_14  and  C_16
REMARK   15  A    between atoms: C_16  and  C_17
REMARK   16  A    between atoms: C_19  and  C_20
REMARK                            x       y       z     vdW  Elec       q    Type
REMARK                         _______ _______ _______ _____ _____    ______ ____
ROOT
ATOM      1  C   UNL     1       6.951   5.816  15.848  0.00  0.00    +0.000 C 
ATOM      2  O   UNL     1       7.158   5.267  14.774  0.00  0.00    +0.000 OA
ENDROOT
BRANCH   1   3
ATOM      3  C   UNL     1       5.815   5.474  16.723  0.00  0.00    +0.000 C 
ATOM      4  C   UNL     1       5.791   4.240  17.271  0.00  0.00    +0.000 C 
BRANCH   4   5
ATOM      5  C   UNL     1       4.758   3.798  18.137  0.00  0.00    +0.000 A 
ATOM      6  C   UNL     1       4.718   3.428  19.466  0.00  0.00    +0.000 A 
ATOM      7  C   UNL     1       3.355   3.237  19.827  0.00  0.00    +0.000 A 
ATOM      8  C   UNL     1       2.688   2.943  21.036  0.00  0.00    +0.000 A 
ATOM      9  C   UNL     1       1.290   2.873  21.050  0.00  0.00    +0.000 A 
ATOM     10  C   UNL     1       0.557   3.059  19.880  0.00  0.00    +0.000 A 
ATOM     11  C   UNL     1       1.196   3.330  18.664  0.00  0.00    +0.000 A 
ATOM     12  C   UNL     1       2.593   3.428  18.674  0.00  0.00    +0.000 A 
ATOM     13  N   UNL     1       3.471   3.737  17.658  0.00  0.00    +0.000 N 
ATOM     14  H   UNL     1       3.186   3.935  16.709  0.00  0.00    +0.000 HD
ENDBRANCH   4   5
BRANCH   3  15
ATOM     15  C   UNL     1       4.700   6.457  17.039  0.00  0.00    +0.000 C 
ATOM     16  N   UNL     1       3.774   7.274  17.300  0.00  0.00    +0.000 NA
ENDBRANCH   3  15
ENDBRANCH   1   3
BRANCH   1  17
ATOM     17  O   UNL     1       7.737   6.776  16.395  0.00  0.00    +0.000 OA
BRANCH  17  18
ATOM     18  C   UNL     1       7.251   7.312  17.640  0.00  0.00    +0.000 C 
BRANCH  18  19
ATOM     19  C   UNL     1       8.385   7.918  18.470  0.00  0.00    +0.000 C 
BRANCH  19  20
ATOM     20  C   UNL     1       8.496   9.431  18.276  0.00  0.00    +0.000 C 
BRANCH  20  21
ATOM     21  C   UNL     1       9.234  10.089  19.442  0.00  0.00    +0.000 C 
BRANCH  21  22
ATOM     22  C   UNL     1       9.397  11.593  19.219  0.00  0.00    +0.000 C 
BRANCH  22  23
ATOM     23  C   UNL     1       9.884  11.891  17.801  0.00  0.00    +0.000 C 
BRANCH  23  24
ATOM     24  C   UNL     1      11.404  11.758  17.696  0.00  0.00    +0.000 C 
BRANCH  24  25
ATOM     25  C   UNL     1      12.067  13.126  17.560  0.00  0.00    +0.000 C 
BRANCH  25  26
ATOM     26  C   UNL     1      11.023  14.233  17.408  0.00  0.00    +0.000 C 
BRANCH  26  27
ATOM     27  C   UNL     1      11.161  15.273  18.519  0.00  0.00    +0.000 C 
BRANCH  27  29
ATOM     28  C   UNL     1       8.757  15.643  17.889  0.00  0.00    +0.000 C 
ATOM     29  C   UNL     1       9.795  15.763  18.991  0.00  0.00    +0.000 C 
ENDBRANCH  27  29
ENDBRANCH  26  27
ENDBRANCH  25  26
ENDBRANCH  24  25
ENDBRANCH  23  24
ENDBRANCH  22  23
ENDBRANCH  21  22
ENDBRANCH  20  21
ENDBRANCH  19  20
ENDBRANCH  18  19
ENDBRANCH  17  18
ENDBRANCH   1  17
TORSDOF 15
ENDMDL
MODEL 6
REMARK VINA RESULT:      -6.2      5.570      7.738
REMARK  Name = 
REMARK  16 active torsions:
REMARK  status: ('A' for Active; 'I' for Inactive)
REMARK    1  A    between atoms: C_1  and  C_2
REMARK    2  A    between atoms: C_2  and  C_3
REMARK    3  A    between atoms: C_3  and  C_4
REMARK    4  A    between atoms: C_4  and  C_5
REMARK    5  A    between atoms: C_5  and  C_6
REMARK    6  A    between atoms: C_6  and  C_7
REMARK    7  A    between atoms: C_7  and  C_8
REMARK    8  A    between atoms: C_8  and  C_9
REMARK    9  A    between atoms: C_9  and  C_10
REMARK   10  A    between atoms: C_10  and  C_11
REMARK   11  A    between atoms: C_11  and  C_12
REMARK   12  A    between atoms: C_12  and  O_13
REMARK   13  A    between atoms: O_13  and  C_14
REMARK   14  A    between atoms: C_14  and  C_16
REMARK   15  A    between atoms: C_16  and  C_17
REMARK   16  A    between atoms: C_19  and  C_20
REMARK                            x       y       z     vdW  Elec       q    Type
REMARK                         _______ _______ _______ _____ _____    ______ ____
ROOT
ATOM      1  C   UNL     1       5.404   5.754  16.026  0.00  0.00    +0.000 C 
ATOM      2  O   UNL     1       5.299   4.999  15.068  0.00  0.00    +0.000 OA
ENDROOT
BRANCH   1   3
ATOM      3  C   UNL     1       4.309   5.998  16.982  0.00  0.00    +0.000 C 
ATOM      4  C   UNL     1       4.045   7.277  17.324  0.00  0.00    +0.000 C 
BRANCH   4   5
ATOM      5  C   UNL     1       3.011   7.639  18.225  0.00  0.00    +0.000 A 
ATOM      6  C   UNL     1       2.632   7.193  19.475  0.00  0.00    +0.000 A 
ATOM      7  C   UNL     1       1.612   8.058  19.959  0.00  0.00    +0.000 A 
ATOM      8  C   UNL     1       0.905   8.163  21.177  0.00  0.00    +0.000 A 
ATOM      9  C   UNL     1      -0.026   9.195  21.344  0.00  0.00    +0.000 A 
ATOM     10  C   UNL     1      -0.282  10.095  20.312  0.00  0.00    +0.000 A 
ATOM     11  C   UNL     1       0.389   9.999  19.088  0.00  0.00    +0.000 A 
ATOM     12  C   UNL     1       1.340   8.981  18.949  0.00  0.00    +0.000 A 
ATOM     13  N   UNL     1       2.181   8.685  17.898  0.00  0.00    +0.000 N 
ATOM     14  H   UNL     1       2.203   9.206  17.032  0.00  0.00    +0.000 HD
ENDBRANCH   4   5
BRANCH   3  15
ATOM     15  C   UNL     1       3.469   4.875  17.569  0.00  0.00    +0.000 C 
ATOM     16  N   UNL     1       2.772   3.944  18.056  0.00  0.00    +0.000 NA
ENDBRANCH   3  15
ENDBRANCH   1   3
BRANCH   1  17
ATOM     17  O   UNL     1       6.526   6.438  16.359  0.00  0.00    +0.000 OA
BRANCH  17  18
ATOM     18  C   UNL     1       7.331   5.811  17.375  0.00  0.00    +0.000 C 
BRANCH  18  19
ATOM     19  C   UNL     1       7.902   6.841  18.352  0.00  0.00    +0.000 C 
BRANCH  19  20
ATOM     20  C   UNL     1       7.914   8.252  17.761  0.00  0.00    +0.000 C 
BRANCH  20  21
ATOM     21  C   UNL     1       8.732   9.211  18.627  0.00  0.00    +0.000 C 
BRANCH  21  22
ATOM     22  C   UNL     1       8.715  10.629  18.053  0.00  0.00    +0.000 C 
BRANCH  22  23
ATOM     23  C   UNL     1      10.125  11.213  17.980  0.00  0.00    +0.000 C 
BRANCH  23  24
ATOM     24  C   UNL     1      10.242  12.489  18.814  0.00  0.00    +0.000 C 
BRANCH  24  25
ATOM     25  C   UNL     1      10.850  12.194  20.184  0.00  0.00    +0.000 C 
BRANCH  25  26
ATOM     26  C   UNL     1       9.778  12.182  21.273  0.00  0.00    +0.000 C 
BRANCH  26  27
ATOM     27  C   UNL     1       9.232  13.587  21.520  0.00  0.00    +0.000 C 
BRANCH  27  29
ATOM     28  C   UNL     1      10.099  15.646  22.672  0.00  0.00    +0.000 C 
ATOM     29  C   UNL     1      10.358  14.616  21.586  0.00  0.00    +0.000 C 
ENDBRANCH  27  29
ENDBRANCH  26  27
ENDBRANCH  25  26
ENDBRANCH  24  25
ENDBRANCH  23  24
ENDBRANCH  22  23
ENDBRANCH  21  22
ENDBRANCH  20  21
ENDBRANCH  19  20
ENDBRANCH  18  19
ENDBRANCH  17  18
ENDBRANCH   1  17
TORSDOF 15
ENDMDL
MODEL 7
REMARK VINA RESULT:      -6.2      5.592      8.798
REMARK  Name = 
REMARK  16 active torsions:
REMARK  status: ('A' for Active; 'I' for Inactive)
REMARK    1  A    between atoms: C_1  and  C_2
REMARK    2  A    between atoms: C_2  and  C_3
REMARK    3  A    between atoms: C_3  and  C_4
REMARK    4  A    between atoms: C_4  and  C_5
REMARK    5  A    between atoms: C_5  and  C_6
REMARK    6  A    between atoms: C_6  and  C_7
REMARK    7  A    between atoms: C_7  and  C_8
REMARK    8  A    between atoms: C_8  and  C_9
REMARK    9  A    between atoms: C_9  and  C_10
REMARK   10  A    between atoms: C_10  and  C_11
REMARK   11  A    between atoms: C_11  and  C_12
REMARK   12  A    between atoms: C_12  and  O_13
REMARK   13  A    between atoms: O_13  and  C_14
REMARK   14  A    between atoms: C_14  and  C_16
REMARK   15  A    between atoms: C_16  and  C_17
REMARK   16  A    between atoms: C_19  and  C_20
REMARK                            x       y       z     vdW  Elec       q    Type
REMARK                         _______ _______ _______ _____ _____    ______ ____
ROOT
ATOM      1  C   UNL     1       7.246   7.200  17.038  0.00  0.00    +0.000 C 
ATOM      2  O   UNL     1       7.975   6.800  16.140  0.00  0.00    +0.000 OA
ENDROOT
BRANCH   1   3
ATOM      3  C   UNL     1       6.219   6.358  17.679  0.00  0.00    +0.000 C 
ATOM      4  C   UNL     1       5.021   6.252  17.067  0.00  0.00    +0.000 C 
BRANCH   4   5
ATOM      5  C   UNL     1       3.959   5.464  17.579  0.00  0.00    +0.000 A 
ATOM      6  C   UNL     1       3.402   4.255  17.212  0.00  0.00    +0.000 A 
ATOM      7  C   UNL     1       2.460   3.884  18.212  0.00  0.00    +0.000 A 
ATOM      8  C   UNL     1       1.655   2.745  18.434  0.00  0.00    +0.000 A 
ATOM      9  C   UNL     1       0.856   2.682  19.580  0.00  0.00    +0.000 A 
ATOM     10  C   UNL     1       0.823   3.742  20.484  0.00  0.00    +0.000 A 
ATOM     11  C   UNL     1       1.595   4.891  20.276  0.00  0.00    +0.000 A 
ATOM     12  C   UNL     1       2.414   4.924  19.140  0.00  0.00    +0.000 A 
ATOM     13  N   UNL     1       3.309   5.882  18.716  0.00  0.00    +0.000 N 
ATOM     14  H   UNL     1       3.485   6.746  19.211  0.00  0.00    +0.000 HD
ENDBRANCH   4   5
BRANCH   3  15
ATOM     15  C   UNL     1       6.473   5.601  18.972  0.00  0.00    +0.000 C 
ATOM     16  N   UNL     1       6.682   4.973  20.046  0.00  0.00    +0.000 NA
ENDBRANCH   3  15
ENDBRANCH   1   3
BRANCH   1  17
ATOM     17  O   UNL     1       7.294   8.440  17.586  0.00  0.00    +0.000 OA
BRANCH  17  18
ATOM     18  C   UNL     1       8.450   8.688  18.408  0.00  0.00    +0.000 C 
BRANCH  18  19
ATOM     19  C   UNL     1       8.903  10.146  18.312  0.00  0.00    +0.000 C 
BRANCH  19  20
ATOM     20  C   UNL     1       9.413  10.680  19.651  0.00  0.00    +0.000 C 
BRANCH  20  21
ATOM     21  C   UNL     1       9.392  12.209  19.686  0.00  0.00    +0.000 C 
BRANCH  21  22
ATOM     22  C   UNL     1       9.831  12.801  18.346  0.00  0.00    +0.000 C 
BRANCH  22  23
ATOM     23  C   UNL     1       8.979  14.014  17.972  0.00  0.00    +0.000 C 
BRANCH  23  24
ATOM     24  C   UNL     1       7.596  13.589  17.478  0.00  0.00    +0.000 C 
BRANCH  24  25
ATOM     25  C   UNL     1       6.523  14.575  17.937  0.00  0.00    +0.000 C 
BRANCH  25  26
ATOM     26  C   UNL     1       7.149  15.868  18.459  0.00  0.00    +0.000 C 
BRANCH  26  27
ATOM     27  C   UNL     1       6.071  16.861  18.894  0.00  0.00    +0.000 C 
BRANCH  27  29
ATOM     28  C   UNL     1       3.716  17.050  19.749  0.00  0.00    +0.000 C 
ATOM     29  C   UNL     1       4.702  16.191  18.975  0.00  0.00    +0.000 C 
ENDBRANCH  27  29
ENDBRANCH  26  27
ENDBRANCH  25  26
ENDBRANCH  24  25
ENDBRANCH  23  24
ENDBRANCH  22  23
ENDBRANCH  21  22
ENDBRANCH  20  21
ENDBRANCH  19  20
ENDBRANCH  18  19
ENDBRANCH  17  18
ENDBRANCH   1  17
TORSDOF 15
ENDMDL
MODEL 8
REMARK VINA RESULT:      -6.2      6.230      8.723
REMARK  Name = 
REMARK  16 active torsions:
REMARK  status: ('A' for Active; 'I' for Inactive)
REMARK    1  A    between atoms: C_1  and  C_2
REMARK    2  A    between atoms: C_2  and  C_3
REMARK    3  A    between atoms: C_3  and  C_4
REMARK    4  A    between atoms: C_4  and  C_5
REMARK    5  A    between atoms: C_5  and  C_6
REMARK    6  A    between atoms: C_6  and  C_7
REMARK    7  A    between atoms: C_7  and  C_8
REMARK    8  A    between atoms: C_8  and  C_9
REMARK    9  A    between atoms: C_9  and  C_10
REMARK   10  A    between atoms: C_10  and  C_11
REMARK   11  A    between atoms: C_11  and  C_12
REMARK   12  A    between atoms: C_12  and  O_13
REMARK   13  A    between atoms: O_13  and  C_14
REMARK   14  A    between atoms: C_14  and  C_16
REMARK   15  A    between atoms: C_16  and  C_17
REMARK   16  A    between atoms: C_19  and  C_20
REMARK                            x       y       z     vdW  Elec       q    Type
REMARK                         _______ _______ _______ _____ _____    ______ ____
ROOT
ATOM      1  C   UNL     1       6.354   6.691  16.277  0.00  0.00    +0.000 C 
ATOM      2  O   UNL     1       5.913   6.916  15.157  0.00  0.00    +0.000 OA
ENDROOT
BRANCH   1   3
ATOM      3  C   UNL     1       5.625   5.904  17.288  0.00  0.00    +0.000 C 
ATOM      4  C   UNL     1       4.357   5.537  17.005  0.00  0.00    +0.000 C 
BRANCH   4   5
ATOM      5  C   UNL     1       3.558   4.771  17.891  0.00  0.00    +0.000 A 
ATOM      6  C   UNL     1       3.040   3.491  17.848  0.00  0.00    +0.000 A 
ATOM      7  C   UNL     1       2.450   3.214  19.113  0.00  0.00    +0.000 A 
ATOM      8  C   UNL     1       1.851   2.074  19.692  0.00  0.00    +0.000 A 
ATOM      9  C   UNL     1       1.409   2.130  21.018  0.00  0.00    +0.000 A 
ATOM     10  C   UNL     1       1.525   3.305  21.758  0.00  0.00    +0.000 A 
ATOM     11  C   UNL     1       2.096   4.455  21.201  0.00  0.00    +0.000 A 
ATOM     12  C   UNL     1       2.563   4.372  19.883  0.00  0.00    +0.000 A 
ATOM     13  N   UNL     1       3.210   5.309  19.107  0.00  0.00    +0.000 N 
ATOM     14  H   UNL     1       3.432   6.243  19.423  0.00  0.00    +0.000 HD
ENDBRANCH   4   5
BRANCH   3  15
ATOM     15  C   UNL     1       6.253   5.481  18.606  0.00  0.00    +0.000 C 
ATOM     16  N   UNL     1       6.774   5.131  19.700  0.00  0.00    +0.000 NA
ENDBRANCH   3  15
ENDBRANCH   1   3
BRANCH   1  17
ATOM     17  O   UNL     1       7.566   7.096  16.732  0.00  0.00    +0.000 OA
BRANCH  17  18
ATOM     18  C   UNL     1       7.550   8.344  17.450  0.00  0.00    +0.000 C 
BRANCH  18  19
ATOM     19  C   UNL     1       8.584   8.355  18.578  0.00  0.00    +0.000 C 
BRANCH  19  20
ATOM     20  C   UNL     1       8.953   9.775  19.009  0.00  0.00    +0.000 C 
BRANCH  20  21
ATOM     21  C   UNL     1       9.243  10.667  17.801  0.00  0.00    +0.000 C 
BRANCH  21  22
ATOM     22  C   UNL     1      10.052  11.901  18.203  0.00  0.00    +0.000 C 
BRANCH  22  23
ATOM     23  C   UNL     1      11.384  11.505  18.839  0.00  0.00    +0.000 C 
BRANCH  23  24
ATOM     24  C   UNL     1      11.636  12.284  20.130  0.00  0.00    +0.000 C 
BRANCH  24  25
ATOM     25  C   UNL     1      10.326  12.793  20.728  0.00  0.00    +0.000 C 
BRANCH  25  26
ATOM     26  C   UNL     1      10.458  14.242  21.195  0.00  0.00    +0.000 C 
BRANCH  26  27
ATOM     27  C   UNL     1      10.960  15.139  20.065  0.00  0.00    +0.000 C 
BRANCH  27  29
ATOM     28  C   UNL     1      10.455  15.609  17.648  0.00  0.00    +0.000 C 
ATOM     29  C   UNL     1       9.866  15.393  19.032  0.00  0.00    +0.000 C 
ENDBRANCH  27  29
ENDBRANCH  26  27
ENDBRANCH  25  26
ENDBRANCH  24  25
ENDBRANCH  23  24
ENDBRANCH  22  23
ENDBRANCH  21  22
ENDBRANCH  20  21
ENDBRANCH  19  20
ENDBRANCH  18  19
ENDBRANCH  17  18
ENDBRANCH   1  17
TORSDOF 15
ENDMDL
MODEL 9
REMARK VINA RESULT:      -6.1      6.420      9.259
REMARK  Name = 
REMARK  16 active torsions:
REMARK  status: ('A' for Active; 'I' for Inactive)
REMARK    1  A    between atoms: C_1  and  C_2
REMARK    2  A    between atoms: C_2  and  C_3
REMARK    3  A    between atoms: C_3  and  C_4
REMARK    4  A    between atoms: C_4  and  C_5
REMARK    5  A    between atoms: C_5  and  C_6
REMARK    6  A    between atoms: C_6  and  C_7
REMARK    7  A    between atoms: C_7  and  C_8
REMARK    8  A    between atoms: C_8  and  C_9
REMARK    9  A    between atoms: C_9  and  C_10
REMARK   10  A    between atoms: C_10  and  C_11
REMARK   11  A    between atoms: C_11  and  C_12
REMARK   12  A    between atoms: C_12  and  O_13
REMARK   13  A    between atoms: O_13  and  C_14
REMARK   14  A    between atoms: C_14  and  C_16
REMARK   15  A    between atoms: C_16  and  C_17
REMARK   16  A    between atoms: C_19  and  C_20
REMARK                            x       y       z     vdW  Elec       q    Type
REMARK                         _______ _______ _______ _____ _____    ______ ____
ROOT
ATOM      1  C   UNL     1       7.286   6.607  17.177  0.00  0.00    +0.000 C 
ATOM      2  O   UNL     1       7.764   6.326  16.085  0.00  0.00    +0.000 OA
ENDROOT
BRANCH   1   3
ATOM      3  C   UNL     1       6.022   6.035  17.675  0.00  0.00    +0.000 C 
ATOM      4  C   UNL     1       6.055   4.788  18.191  0.00  0.00    +0.000 C 
BRANCH   4   5
ATOM      5  C   UNL     1       4.909   4.136  18.711  0.00  0.00    +0.000 A 
ATOM      6  C   UNL     1       4.574   3.635  19.953  0.00  0.00    +0.000 A 
ATOM      7  C   UNL     1       3.208   3.238  19.913  0.00  0.00    +0.000 A 
ATOM      8  C   UNL     1       2.297   2.744  20.872  0.00  0.00    +0.000 A 
ATOM      9  C   UNL     1       0.972   2.496  20.496  0.00  0.00    +0.000 A 
ATOM     10  C   UNL     1       0.555   2.701  19.182  0.00  0.00    +0.000 A 
ATOM     11  C   UNL     1       1.444   3.169  18.208  0.00  0.00    +0.000 A 
ATOM     12  C   UNL     1       2.758   3.443  18.608  0.00  0.00    +0.000 A 
ATOM     13  N   UNL     1       3.817   3.958  17.894  0.00  0.00    +0.000 N 
ATOM     14  H   UNL     1       3.766   4.210  16.916  0.00  0.00    +0.000 HD
ENDBRANCH   4   5
BRANCH   3  15
ATOM     15  C   UNL     1       4.710   6.802  17.646  0.00  0.00    +0.000 C 
ATOM     16  N   UNL     1       3.621   7.438  17.621  0.00  0.00    +0.000 NA
ENDBRANCH   3  15
ENDBRANCH   1   3
BRANCH   1  17
ATOM     17  O   UNL     1       7.853   7.443  18.082  0.00  0.00    +0.000 OA
BRANCH  17  18
ATOM     18  C   UNL     1       7.963   8.811  17.648  0.00  0.00    +0.000 C 
BRANCH  18  19
ATOM     19  C   UNL     1       8.874   9.620  18.574  0.00  0.00    +0.000 C 
BRANCH  19  20
ATOM     20  C   UNL     1       9.055  11.060  18.090  0.00  0.00    +0.000 C 
BRANCH  20  21
ATOM     21  C   UNL     1      10.532  11.454  18.054  0.00  0.00    +0.000 C 
BRANCH  21  22
ATOM     22  C   UNL     1      10.708  12.909  17.616  0.00  0.00    +0.000 C 
BRANCH  22  23
ATOM     23  C   UNL     1      10.169  13.873  18.672  0.00  0.00    +0.000 C 
BRANCH  23  24
ATOM     24  C   UNL     1      11.082  15.089  18.832  0.00  0.00    +0.000 C 
BRANCH  24  25
ATOM     25  C   UNL     1      10.938  15.704  20.223  0.00  0.00    +0.000 C 
BRANCH  25  26
ATOM     26  C   UNL     1      10.585  14.641  21.263  0.00  0.00    +0.000 C 
BRANCH  26  27
ATOM     27  C   UNL     1       9.339  15.039  22.052  0.00  0.00    +0.000 C 
BRANCH  27  29
ATOM     28  C   UNL     1       9.255  12.528  22.109  0.00  0.00    +0.000 C 
ATOM     29  C   UNL     1       8.629  13.814  22.622  0.00  0.00    +0.000 C 
ENDBRANCH  27  29
ENDBRANCH  26  27
ENDBRANCH  25  26
ENDBRANCH  24  25
ENDBRANCH  23  24
ENDBRANCH  22  23
ENDBRANCH  21  22
ENDBRANCH  20  21
ENDBRANCH  19  20
ENDBRANCH  18  19
ENDBRANCH  17  18
ENDBRANCH   1  17
TORSDOF 15
ENDMDL
