MODEL 1
REMARK VINA RESULT:      -7.7      0.000      0.000
REMARK  Name = 
REMARK  8 active torsions:
REMARK  status: ('A' for Active; 'I' for Inactive)
REMARK    1  A    between atoms: C_1  and  C_2
REMARK    2  A    between atoms: C_2  and  C_3
REMARK    3  A    between atoms: C_2  and  O_4
REMARK    4  A    between atoms: O_4  and  C_5
REMARK    5  A    between atoms: C_8  and  C_9
REMARK    6  A    between atoms: N_11  and  C_12
REMARK    7  A    between atoms: C_18  and  C_19
REMARK    8  A    between atoms: C_18  and  C_20
REMARK                            x       y       z     vdW  Elec       q    Type
REMARK                         _______ _______ _______ _____ _____    ______ ____
ROOT
ATOM      1  C   UNL     1       1.847   7.540  20.066  0.00  0.00    +0.000 C 
ATOM      2  O   UNL     1       2.632   7.589  19.127  0.00  0.00    +0.000 OA
ATOM      3  N   UNL     1       1.603   6.367  20.760  0.00  0.00    +0.000 N 
ATOM      4  H   UNL     1       1.030   6.383  21.591  0.00  0.00    +0.000 HD
ENDROOT
BRANCH   3   5
ATOM      5  C   UNL     1       2.299   5.119  20.446  0.00  0.00    +0.000 C 
ATOM      6  C   UNL     1       1.457   3.908  20.883  0.00  0.00    +0.000 C 
ATOM      7  C   UNL     1       2.116   2.566  20.590  0.00  0.00    +0.000 C 
ATOM      8  S   UNL     1       2.502   2.365  18.863  0.00  0.00    +0.000 S 
ATOM      9  O   UNL     1       3.378   1.217  18.736  0.00  0.00    +0.000 OA
ATOM     10  O   UNL     1       1.250   2.423  18.129  0.00  0.00    +0.000 OA
ATOM     11  C   UNL     1       3.457   3.871  18.495  0.00  0.00    +0.000 C 
ATOM     12  C   UNL     1       4.825   3.815  19.195  0.00  0.00    +0.000 C 
ATOM     13  C   UNL     1       3.697   3.956  16.978  0.00  0.00    +0.000 C 
ATOM     14  C   UNL     1       2.622   5.089  18.944  0.00  0.00    +0.000 C 
ENDBRANCH   3   5
BRANCH   1  18
ATOM     15  C   UNL     1      -0.360  10.994  21.466  0.00  0.00    +0.000 A 
ATOM     16  C   UNL     1       0.034   9.985  22.338  0.00  0.00    +0.000 A 
ATOM     17  C   UNL     1       0.779   8.894  21.864  0.00  0.00    +0.000 A 
ATOM     18  C   UNL     1       1.139   8.789  20.511  0.00  0.00    +0.000 A 
ATOM     19  C   UNL     1       0.794   9.837  19.651  0.00  0.00    +0.000 A 
ATOM     20  C   UNL     1       0.043  10.921  20.129  0.00  0.00    +0.000 A 
BRANCH  15  21
ATOM     21  O   UNL     1      -1.142  12.073  21.769  0.00  0.00    +0.000 OA
BRANCH  21  23
ATOM     22  C   UNL     1      -1.149  13.826  23.370  0.00  0.00    +0.000 C 
ATOM     23  C   UNL     1      -1.469  12.350  23.137  0.00  0.00    +0.000 C 
ATOM     24  C   UNL     1      -2.953  12.102  23.400  0.00  0.00    +0.000 C 
ENDBRANCH  21  23
ENDBRANCH  15  21
ENDBRANCH   1  18
TORSDOF 4
ENDMDL
MODEL 2
REMARK VINA RESULT:      -7.6      0.437      1.088
REMARK  Name = 
REMARK  8 active torsions:
REMARK  status: ('A' for Active; 'I' for Inactive)
REMARK    1  A    between atoms: C_1  and  C_2
REMARK    2  A    between atoms: C_2  and  C_3
REMARK    3  A    between atoms: C_2  and  O_4
REMARK    4  A    between atoms: O_4  and  C_5
REMARK    5  A    between atoms: C_8  and  C_9
REMARK    6  A    between atoms: N_11  and  C_12
REMARK    7  A    between atoms: C_18  and  C_19
REMARK    8  A    between atoms: C_18  and  C_20
REMARK                            x       y       z     vdW  Elec       q    Type
REMARK                         _______ _______ _______ _____ _____    ______ ____
ROOT
ATOM      1  C   UNL     1       1.788   7.638  20.112  0.00  0.00    +0.000 C 
ATOM      2  O   UNL     1       2.648   7.812  19.255  0.00  0.00    +0.000 OA
ATOM      3  N   UNL     1       1.614   6.417  20.739  0.00  0.00    +0.000 N 
ATOM      4  H   UNL     1       0.968   6.335  21.510  0.00  0.00    +0.000 HD
ENDROOT
BRANCH   3   5
ATOM      5  C   UNL     1       2.471   5.266  20.453  0.00  0.00    +0.000 C 
ATOM      6  C   UNL     1       2.008   4.038  21.256  0.00  0.00    +0.000 C 
ATOM      7  C   UNL     1       2.853   2.793  21.013  0.00  0.00    +0.000 C 
ATOM      8  S   UNL     1       2.901   2.333  19.294  0.00  0.00    +0.000 S 
ATOM      9  O   UNL     1       3.949   1.345  19.129  0.00  0.00    +0.000 OA
ATOM     10  O   UNL     1       1.538   2.039  18.886  0.00  0.00    +0.000 OA
ATOM     11  C   UNL     1       3.424   3.879  18.487  0.00  0.00    +0.000 C 
ATOM     12  C   UNL     1       4.891   4.187  18.833  0.00  0.00    +0.000 C 
ATOM     13  C   UNL     1       3.317   3.710  16.961  0.00  0.00    +0.000 C 
ATOM     14  C   UNL     1       2.470   5.003  18.940  0.00  0.00    +0.000 C 
ENDBRANCH   3   5
BRANCH   1  18
ATOM     15  C   UNL     1      -0.604  11.090  21.168  0.00  0.00    +0.000 A 
ATOM     16  C   UNL     1      -0.295  10.803  19.843  0.00  0.00    +0.000 A 
ATOM     17  C   UNL     1       0.452   9.658  19.526  0.00  0.00    +0.000 A 
ATOM     18  C   UNL     1       0.908   8.783  20.526  0.00  0.00    +0.000 A 
ATOM     19  C   UNL     1       0.541   9.044  21.851  0.00  0.00    +0.000 A 
ATOM     20  C   UNL     1      -0.200  10.194  22.162  0.00  0.00    +0.000 A 
BRANCH  15  21
ATOM     21  O   UNL     1      -1.259  12.198  21.629  0.00  0.00    +0.000 OA
BRANCH  21  23
ATOM     22  C   UNL     1      -1.089  13.780  23.391  0.00  0.00    +0.000 C 
ATOM     23  C   UNL     1      -1.493  12.350  23.035  0.00  0.00    +0.000 C 
ATOM     24  C   UNL     1      -2.971  12.142  23.362  0.00  0.00    +0.000 C 
ENDBRANCH  21  23
ENDBRANCH  15  21
ENDBRANCH   1  18
TORSDOF 4
ENDMDL
MODEL 3
REMARK VINA RESULT:      -7.5      2.000      2.892
REMARK  Name = 
REMARK  8 active torsions:
REMARK  status: ('A' for Active; 'I' for Inactive)
REMARK    1  A    between atoms: C_1  and  C_2
REMARK    2  A    between atoms: C_2  and  C_3
REMARK    3  A    between atoms: C_2  and  O_4
REMARK    4  A    between atoms: O_4  and  C_5
REMARK    5  A    between atoms: C_8  and  C_9
REMARK    6  A    between atoms: N_11  and  C_12
REMARK    7  A    between atoms: C_18  and  C_19
REMARK    8  A    between atoms: C_18  and  C_20
REMARK                            x       y       z     vdW  Elec       q    Type
REMARK                         _______ _______ _______ _____ _____    ______ ____
ROOT
ATOM      1  C   UNL     1       1.602   8.365  19.005  0.00  0.00    +0.000 C 
ATOM      2  O   UNL     1       1.557   8.684  17.822  0.00  0.00    +0.000 OA
ATOM      3  N   UNL     1       2.246   7.216  19.430  0.00  0.00    +0.000 N 
ATOM      4  H   UNL     1       2.354   7.035  20.418  0.00  0.00    +0.000 HD
ENDROOT
BRANCH   3   5
ATOM      5  C   UNL     1       2.952   6.331  18.503  0.00  0.00    +0.000 C 
ATOM      6  C   UNL     1       4.227   7.012  17.975  0.00  0.00    +0.000 C 
ATOM      7  C   UNL     1       5.022   6.151  17.000  0.00  0.00    +0.000 C 
ATOM      8  S   UNL     1       5.494   4.587  17.709  0.00  0.00    +0.000 S 
ATOM      9  O   UNL     1       5.969   3.740  16.633  0.00  0.00    +0.000 OA
ATOM     10  O   UNL     1       6.340   4.869  18.855  0.00  0.00    +0.000 OA
ATOM     11  C   UNL     1       3.906   3.932  18.311  0.00  0.00    +0.000 C 
ATOM     12  C   UNL     1       3.006   3.549  17.123  0.00  0.00    +0.000 C 
ATOM     13  C   UNL     1       4.168   2.664  19.142  0.00  0.00    +0.000 C 
ATOM     14  C   UNL     1       3.257   5.002  19.213  0.00  0.00    +0.000 C 
ENDBRANCH   3   5
BRANCH   1  18
ATOM     15  C   UNL     1      -0.028  11.078  21.960  0.00  0.00    +0.000 A 
ATOM     16  C   UNL     1       0.364  11.528  20.704  0.00  0.00    +0.000 A 
ATOM     17  C   UNL     1       0.856  10.621  19.752  0.00  0.00    +0.000 A 
ATOM     18  C   UNL     1       0.970   9.251  20.040  0.00  0.00    +0.000 A 
ATOM     19  C   UNL     1       0.516   8.796  21.283  0.00  0.00    +0.000 A 
ATOM     20  C   UNL     1       0.032   9.708  22.233  0.00  0.00    +0.000 A 
BRANCH  15  21
ATOM     21  O   UNL     1      -0.457  11.851  23.003  0.00  0.00    +0.000 OA
BRANCH  21  23
ATOM     22  C   UNL     1      -2.804  12.088  23.277  0.00  0.00    +0.000 C 
ATOM     23  C   UNL     1      -1.528  12.783  22.803  0.00  0.00    +0.000 C 
ATOM     24  C   UNL     1      -1.301  14.050  23.625  0.00  0.00    +0.000 C 
ENDBRANCH  21  23
ENDBRANCH  15  21
ENDBRANCH   1  18
TORSDOF 4
ENDMDL
MODEL 4
REMARK VINA RESULT:      -7.5      1.239      1.986
REMARK  Name = 
REMARK  8 active torsions:
REMARK  status: ('A' for Active; 'I' for Inactive)
REMARK    1  A    between atoms: C_1  and  C_2
REMARK    2  A    between atoms: C_2  and  C_3
REMARK    3  A    between atoms: C_2  and  O_4
REMARK    4  A    between atoms: O_4  and  C_5
REMARK    5  A    between atoms: C_8  and  C_9
REMARK    6  A    between atoms: N_11  and  C_12
REMARK    7  A    between atoms: C_18  and  C_19
REMARK    8  A    between atoms: C_18  and  C_20
REMARK                            x       y       z     vdW  Elec       q    Type
REMARK                         _______ _______ _______ _____ _____    ______ ____
ROOT
ATOM      1  C   UNL     1       1.628   7.994  19.781  0.00  0.00    +0.000 C 
ATOM      2  O   UNL     1       1.866   8.294  18.616  0.00  0.00    +0.000 OA
ATOM      3  N   UNL     1       1.876   6.727  20.279  0.00  0.00    +0.000 N 
ATOM      4  H   UNL     1       1.765   6.543  21.265  0.00  0.00    +0.000 HD
ENDROOT
BRANCH   3   5
ATOM      5  C   UNL     1       2.482   5.675  19.462  0.00  0.00    +0.000 C 
ATOM      6  C   UNL     1       3.943   5.443  19.881  0.00  0.00    +0.000 C 
ATOM      7  C   UNL     1       4.647   4.358  19.075  0.00  0.00    +0.000 C 
ATOM      8  S   UNL     1       3.800   2.793  19.164  0.00  0.00    +0.000 S 
ATOM      9  O   UNL     1       4.362   1.928  18.146  0.00  0.00    +0.000 OA
ATOM     10  O   UNL     1       3.791   2.385  20.557  0.00  0.00    +0.000 OA
ATOM     11  C   UNL     1       2.102   3.236  18.680  0.00  0.00    +0.000 C 
ATOM     12  C   UNL     1       2.055   3.605  17.187  0.00  0.00    +0.000 C 
ATOM     13  C   UNL     1       1.183   2.023  18.905  0.00  0.00    +0.000 C 
ATOM     14  C   UNL     1       1.635   4.398  19.582  0.00  0.00    +0.000 C 
ENDBRANCH   3   5
BRANCH   1  18
ATOM     15  C   UNL     1      -0.133  10.811  22.560  0.00  0.00    +0.000 A 
ATOM     16  C   UNL     1       0.263   9.543  22.969  0.00  0.00    +0.000 A 
ATOM     17  C   UNL     1       0.864   8.662  22.056  0.00  0.00    +0.000 A 
ATOM     18  C   UNL     1       1.075   9.031  20.717  0.00  0.00    +0.000 A 
ATOM     19  C   UNL     1       0.731  10.330  20.327  0.00  0.00    +0.000 A 
ATOM     20  C   UNL     1       0.124  11.203  21.242  0.00  0.00    +0.000 A 
BRANCH  15  21
ATOM     21  O   UNL     1      -0.789  11.742  23.315  0.00  0.00    +0.000 OA
BRANCH  21  23
ATOM     22  C   UNL     1      -2.980  12.566  22.913  0.00  0.00    +0.000 C 
ATOM     23  C   UNL     1      -1.491  12.813  22.670  0.00  0.00    +0.000 C 
ATOM     24  C   UNL     1      -1.093  14.160  23.272  0.00  0.00    +0.000 C 
ENDBRANCH  21  23
ENDBRANCH  15  21
ENDBRANCH   1  18
TORSDOF 4
ENDMDL
MODEL 5
REMARK VINA RESULT:      -7.5      4.036      9.845
REMARK  Name = 
REMARK  8 active torsions:
REMARK  status: ('A' for Active; 'I' for Inactive)
REMARK    1  A    between atoms: C_1  and  C_2
REMARK    2  A    between atoms: C_2  and  C_3
REMARK    3  A    between atoms: C_2  and  O_4
REMARK    4  A    between atoms: O_4  and  C_5
REMARK    5  A    between atoms: C_8  and  C_9
REMARK    6  A    between atoms: N_11  and  C_12
REMARK    7  A    between atoms: C_18  and  C_19
REMARK    8  A    between atoms: C_18  and  C_20
REMARK                            x       y       z     vdW  Elec       q    Type
REMARK                         _______ _______ _______ _____ _____    ______ ____
ROOT
ATOM      1  C   UNL     1      -0.194  10.381  22.297  0.00  0.00    +0.000 C 
ATOM      2  O   UNL     1      -0.038  10.087  23.476  0.00  0.00    +0.000 OA
ATOM      3  N   UNL     1      -1.036  11.405  21.900  0.00  0.00    +0.000 N 
ATOM      4  H   UNL     1      -1.063  11.688  20.931  0.00  0.00    +0.000 HD
ENDROOT
BRANCH   3   5
ATOM      5  C   UNL     1      -1.760  12.234  22.864  0.00  0.00    +0.000 C 
ATOM      6  C   UNL     1      -1.010  13.555  23.109  0.00  0.00    +0.000 C 
ATOM      7  C   UNL     1      -1.702  14.478  24.104  0.00  0.00    +0.000 C 
ATOM      8  S   UNL     1      -3.365  14.880  23.609  0.00  0.00    +0.000 S 
ATOM      9  O   UNL     1      -4.026  15.497  24.742  0.00  0.00    +0.000 OA
ATOM     10  O   UNL     1      -3.282  15.572  22.335  0.00  0.00    +0.000 OA
ATOM     11  C   UNL     1      -4.101  13.239  23.328  0.00  0.00    +0.000 C 
ATOM     12  C   UNL     1      -4.276  12.500  24.665  0.00  0.00    +0.000 C 
ATOM     13  C   UNL     1      -5.490  13.413  22.691  0.00  0.00    +0.000 C 
ATOM     14  C   UNL     1      -3.189  12.467  22.351  0.00  0.00    +0.000 C 
ENDBRANCH   3   5
BRANCH   1  18
ATOM     15  C   UNL     1       1.797   8.254  19.092  0.00  0.00    +0.000 A 
ATOM     16  C   UNL     1       1.195   9.489  18.876  0.00  0.00    +0.000 A 
ATOM     17  C   UNL     1       0.588  10.174  19.940  0.00  0.00    +0.000 A 
ATOM     18  C   UNL     1       0.566   9.634  21.237  0.00  0.00    +0.000 A 
ATOM     19  C   UNL     1       1.228   8.422  21.461  0.00  0.00    +0.000 A 
ATOM     20  C   UNL     1       1.827   7.739  20.391  0.00  0.00    +0.000 A 
BRANCH  15  21
ATOM     21  O   UNL     1       2.362   7.448  18.144  0.00  0.00    +0.000 OA
BRANCH  21  23
ATOM     22  C   UNL     1       2.094   5.097  17.940  0.00  0.00    +0.000 C 
ATOM     23  C   UNL     1       2.961   6.206  18.535  0.00  0.00    +0.000 C 
ATOM     24  C   UNL     1       4.381   6.093  17.982  0.00  0.00    +0.000 C 
ENDBRANCH  21  23
ENDBRANCH  15  21
ENDBRANCH   1  18
TORSDOF 4
ENDMDL
MODEL 6
REMARK VINA RESULT:      -7.5      0.856      1.476
REMARK  Name = 
REMARK  8 active torsions:
REMARK  status: ('A' for Active; 'I' for Inactive)
REMARK    1  A    between atoms: C_1  and  C_2
REMARK    2  A    between atoms: C_2  and  C_3
REMARK    3  A    between atoms: C_2  and  O_4
REMARK    4  A    between atoms: O_4  and  C_5
REMARK    5  A    between atoms: C_8  and  C_9
REMARK    6  A    between atoms: N_11  and  C_12
REMARK    7  A    between atoms: C_18  and  C_19
REMARK    8  A    between atoms: C_18  and  C_20
REMARK                            x       y       z     vdW  Elec       q    Type
REMARK                         _______ _______ _______ _____ _____    ______ ____
ROOT
ATOM      1  C   UNL     1       1.715   7.583  20.345  0.00  0.00    +0.000 C 
ATOM      2  O   UNL     1       2.433   7.814  19.379  0.00  0.00    +0.000 OA
ATOM      3  N   UNL     1       1.640   6.327  20.921  0.00  0.00    +0.000 N 
ATOM      4  H   UNL     1       1.120   6.195  21.776  0.00  0.00    +0.000 HD
ENDROOT
BRANCH   3   5
ATOM      5  C   UNL     1       2.445   5.202  20.442  0.00  0.00    +0.000 C 
ATOM      6  C   UNL     1       2.205   3.959  21.315  0.00  0.00    +0.000 C 
ATOM      7  C   UNL     1       3.010   2.740  20.880  0.00  0.00    +0.000 C 
ATOM      8  S   UNL     1       2.690   2.287  19.188  0.00  0.00    +0.000 S 
ATOM      9  O   UNL     1       3.703   1.331  18.787  0.00  0.00    +0.000 OA
ATOM     10  O   UNL     1       1.280   1.955  19.088  0.00  0.00    +0.000 OA
ATOM     11  C   UNL     1       2.979   3.850  18.300  0.00  0.00    +0.000 C 
ATOM     12  C   UNL     1       4.477   4.201  18.318  0.00  0.00    +0.000 C 
ATOM     13  C   UNL     1       2.543   3.684  16.834  0.00  0.00    +0.000 C 
ATOM     14  C   UNL     1       2.117   4.944  18.964  0.00  0.00    +0.000 C 
ENDBRANCH   3   5
BRANCH   1  18
ATOM     15  C   UNL     1      -0.455  10.949  21.994  0.00  0.00    +0.000 A 
ATOM     16  C   UNL     1      -0.141  10.884  20.641  0.00  0.00    +0.000 A 
ATOM     17  C   UNL     1       0.532   9.765  20.126  0.00  0.00    +0.000 A 
ATOM     18  C   UNL     1       0.908   8.694  20.954  0.00  0.00    +0.000 A 
ATOM     19  C   UNL     1       0.533   8.737  22.302  0.00  0.00    +0.000 A 
ATOM     20  C   UNL     1      -0.133   9.862  22.812  0.00  0.00    +0.000 A 
BRANCH  15  21
ATOM     21  O   UNL     1      -1.042  11.999  22.643  0.00  0.00    +0.000 OA
BRANCH  21  23
ATOM     22  C   UNL     1      -2.641  13.450  21.655  0.00  0.00    +0.000 C 
ATOM     23  C   UNL     1      -1.159  13.266  21.982  0.00  0.00    +0.000 C 
ATOM     24  C   UNL     1      -0.694  14.398  22.897  0.00  0.00    +0.000 C 
ENDBRANCH  21  23
ENDBRANCH  15  21
ENDBRANCH   1  18
TORSDOF 4
ENDMDL
MODEL 7
REMARK VINA RESULT:      -7.4      3.278      8.940
REMARK  Name = 
REMARK  8 active torsions:
REMARK  status: ('A' for Active; 'I' for Inactive)
REMARK    1  A    between atoms: C_1  and  C_2
REMARK    2  A    between atoms: C_2  and  C_3
REMARK    3  A    between atoms: C_2  and  O_4
REMARK    4  A    between atoms: O_4  and  C_5
REMARK    5  A    between atoms: C_8  and  C_9
REMARK    6  A    between atoms: N_11  and  C_12
REMARK    7  A    between atoms: C_18  and  C_19
REMARK    8  A    between atoms: C_18  and  C_20
REMARK                            x       y       z     vdW  Elec       q    Type
REMARK                         _______ _______ _______ _____ _____    ______ ____
ROOT
ATOM      1  C   UNL     1       1.999   8.857  18.342  0.00  0.00    +0.000 C 
ATOM      2  O   UNL     1       2.030   9.435  17.262  0.00  0.00    +0.000 OA
ATOM      3  N   UNL     1       1.292   9.357  19.422  0.00  0.00    +0.000 N 
ATOM      4  H   UNL     1       1.202   8.807  20.263  0.00  0.00    +0.000 HD
ENDROOT
BRANCH   3   5
ATOM      5  C   UNL     1       0.500  10.585  19.332  0.00  0.00    +0.000 C 
ATOM      6  C   UNL     1      -1.003  10.259  19.378  0.00  0.00    +0.000 C 
ATOM      7  C   UNL     1      -1.899  11.489  19.290  0.00  0.00    +0.000 C 
ATOM      8  S   UNL     1      -1.558  12.668  20.580  0.00  0.00    +0.000 S 
ATOM      9  O   UNL     1      -2.233  13.905  20.238  0.00  0.00    +0.000 OA
ATOM     10  O   UNL     1      -1.819  12.010  21.848  0.00  0.00    +0.000 OA
ATOM     11  C   UNL     1       0.238  12.920  20.419  0.00  0.00    +0.000 C 
ATOM     12  C   UNL     1       0.552  13.682  19.121  0.00  0.00    +0.000 C 
ATOM     13  C   UNL     1       0.735  13.765  21.604  0.00  0.00    +0.000 C 
ATOM     14  C   UNL     1       0.921  11.537  20.462  0.00  0.00    +0.000 C 
ENDBRANCH   3   5
BRANCH   1  18
ATOM     15  C   UNL     1       4.031   5.040  18.579  0.00  0.00    +0.000 A 
ATOM     16  C   UNL     1       4.324   5.955  17.573  0.00  0.00    +0.000 A 
ATOM     17  C   UNL     1       3.676   7.199  17.540  0.00  0.00    +0.000 A 
ATOM     18  C   UNL     1       2.720   7.550  18.508  0.00  0.00    +0.000 A 
ATOM     19  C   UNL     1       2.476   6.652  19.552  0.00  0.00    +0.000 A 
ATOM     20  C   UNL     1       3.121   5.406  19.576  0.00  0.00    +0.000 A 
BRANCH  15  21
ATOM     21  O   UNL     1       4.528   3.773  18.696  0.00  0.00    +0.000 OA
BRANCH  21  23
ATOM     22  C   UNL     1       3.345   1.776  18.196  0.00  0.00    +0.000 C 
ATOM     23  C   UNL     1       3.730   2.751  19.308  0.00  0.00    +0.000 C 
ATOM     24  C   UNL     1       4.527   2.012  20.381  0.00  0.00    +0.000 C 
ENDBRANCH  21  23
ENDBRANCH  15  21
ENDBRANCH   1  18
TORSDOF 4
ENDMDL
MODEL 8
REMARK VINA RESULT:      -7.4      1.026      1.199
REMARK  Name = 
REMARK  8 active torsions:
REMARK  status: ('A' for Active; 'I' for Inactive)
REMARK    1  A    between atoms: C_1  and  C_2
REMARK    2  A    between atoms: C_2  and  C_3
REMARK    3  A    between atoms: C_2  and  O_4
REMARK    4  A    between atoms: O_4  and  C_5
REMARK    5  A    between atoms: C_8  and  C_9
REMARK    6  A    between atoms: N_11  and  C_12
REMARK    7  A    between atoms: C_18  and  C_19
REMARK    8  A    between atoms: C_18  and  C_20
REMARK                            x       y       z     vdW  Elec       q    Type
REMARK                         _______ _______ _______ _____ _____    ______ ____
ROOT
ATOM      1  C   UNL     1       1.546   7.894  20.398  0.00  0.00    +0.000 C 
ATOM      2  O   UNL     1       2.073   8.061  19.304  0.00  0.00    +0.000 OA
ATOM      3  N   UNL     1       1.543   6.664  21.032  0.00  0.00    +0.000 N 
ATOM      4  H   UNL     1       1.192   6.584  21.975  0.00  0.00    +0.000 HD
ENDROOT
BRANCH   3   5
ATOM      5  C   UNL     1       2.208   5.493  20.460  0.00  0.00    +0.000 C 
ATOM      6  C   UNL     1       1.225   4.314  20.354  0.00  0.00    +0.000 C 
ATOM      7  C   UNL     1       1.842   3.052  19.765  0.00  0.00    +0.000 C 
ATOM      8  S   UNL     1       2.536   3.329  18.148  0.00  0.00    +0.000 S 
ATOM      9  O   UNL     1       3.347   2.176  17.812  0.00  0.00    +0.000 OA
ATOM     10  O   UNL     1       1.451   3.749  17.278  0.00  0.00    +0.000 OA
ATOM     11  C   UNL     1       3.634   4.753  18.430  0.00  0.00    +0.000 C 
ATOM     12  C   UNL     1       4.839   4.332  19.288  0.00  0.00    +0.000 C 
ATOM     13  C   UNL     1       4.162   5.256  17.075  0.00  0.00    +0.000 C 
ATOM     14  C   UNL     1       2.807   5.872  19.097  0.00  0.00    +0.000 C 
ENDBRANCH   3   5
BRANCH   1  18
ATOM     15  C   UNL     1      -0.504  11.098  22.470  0.00  0.00    +0.000 A 
ATOM     16  C   UNL     1      -0.349   9.844  23.050  0.00  0.00    +0.000 A 
ATOM     17  C   UNL     1       0.351   8.834  22.372  0.00  0.00    +0.000 A 
ATOM     18  C   UNL     1       0.903   9.057  21.099  0.00  0.00    +0.000 A 
ATOM     19  C   UNL     1       0.798  10.339  20.548  0.00  0.00    +0.000 A 
ATOM     20  C   UNL     1       0.091  11.342  21.228  0.00  0.00    +0.000 A 
BRANCH  15  21
ATOM     21  O   UNL     1      -1.215  12.148  22.979  0.00  0.00    +0.000 OA
BRANCH  21  23
ATOM     22  C   UNL     1      -3.450  12.306  23.766  0.00  0.00    +0.000 C 
ATOM     23  C   UNL     1      -2.556  12.382  22.528  0.00  0.00    +0.000 C 
ATOM     24  C   UNL     1      -2.680  13.766  21.894  0.00  0.00    +0.000 C 
ENDBRANCH  21  23
ENDBRANCH  15  21
ENDBRANCH   1  18
TORSDOF 4
ENDMDL
MODEL 9
REMARK VINA RESULT:      -7.4      2.991      3.855
REMARK  Name = 
REMARK  8 active torsions:
REMARK  status: ('A' for Active; 'I' for Inactive)
REMARK    1  A    between atoms: C_1  and  C_2
REMARK    2  A    between atoms: C_2  and  C_3
REMARK    3  A    between atoms: C_2  and  O_4
REMARK    4  A    between atoms: O_4  and  C_5
REMARK    5  A    between atoms: C_8  and  C_9
REMARK    6  A    between atoms: N_11  and  C_12
REMARK    7  A    between atoms: C_18  and  C_19
REMARK    8  A    between atoms: C_18  and  C_20
REMARK                            x       y       z     vdW  Elec       q    Type
REMARK                         _______ _______ _______ _____ _____    ______ ____
ROOT
ATOM      1  C   UNL     1       2.415   7.579  18.901  0.00  0.00    +0.000 C 
ATOM      2  O   UNL     1       2.399   6.594  19.630  0.00  0.00    +0.000 OA
ATOM      3  N   UNL     1       3.285   7.686  17.830  0.00  0.00    +0.000 N 
ATOM      4  H   UNL     1       3.203   8.462  17.191  0.00  0.00    +0.000 HD
ENDROOT
BRANCH   3   5
ATOM      5  C   UNL     1       4.212   6.613  17.470  0.00  0.00    +0.000 C 
ATOM      6  C   UNL     1       4.659   6.756  16.005  0.00  0.00    +0.000 C 
ATOM      7  C   UNL     1       5.629   5.672  15.552  0.00  0.00    +0.000 C 
ATOM      8  S   UNL     1       7.093   5.608  16.564  0.00  0.00    +0.000 S 
ATOM      9  O   UNL     1       7.794   4.379  16.250  0.00  0.00    +0.000 OA
ATOM     10  O   UNL     1       7.762   6.892  16.440  0.00  0.00    +0.000 OA
ATOM     11  C   UNL     1       6.405   5.475  18.244  0.00  0.00    +0.000 C 
ATOM     12  C   UNL     1       5.752   4.097  18.442  0.00  0.00    +0.000 C 
ATOM     13  C   UNL     1       7.546   5.616  19.267  0.00  0.00    +0.000 C 
ATOM     14  C   UNL     1       5.401   6.630  18.443  0.00  0.00    +0.000 C 
ENDBRANCH   3   5
BRANCH   1  18
ATOM     15  C   UNL     1      -0.516  10.655  19.740  0.00  0.00    +0.000 A 
ATOM     16  C   UNL     1       0.017   9.867  20.755  0.00  0.00    +0.000 A 
ATOM     17  C   UNL     1       0.992   8.901  20.460  0.00  0.00    +0.000 A 
ATOM     18  C   UNL     1       1.448   8.701  19.147  0.00  0.00    +0.000 A 
ATOM     19  C   UNL     1       0.954   9.539  18.140  0.00  0.00    +0.000 A 
ATOM     20  C   UNL     1      -0.026  10.497  18.440  0.00  0.00    +0.000 A 
BRANCH  15  21
ATOM     21  O   UNL     1      -1.515  11.579  19.867  0.00  0.00    +0.000 OA
BRANCH  21  23
ATOM     22  C   UNL     1      -1.286  13.924  20.156  0.00  0.00    +0.000 C 
ATOM     23  C   UNL     1      -1.425  12.586  20.882  0.00  0.00    +0.000 C 
ATOM     24  C   UNL     1      -2.688  12.602  21.742  0.00  0.00    +0.000 C 
ENDBRANCH  21  23
ENDBRANCH  15  21
ENDBRANCH   1  18
TORSDOF 4
ENDMDL
