MODEL 1
REMARK VINA RESULT:      -8.0      0.000      0.000
REMARK  Name = 
REMARK  7 active torsions:
REMARK  status: ('A' for Active; 'I' for Inactive)
REMARK    1  A    between atoms: C_1  and  N_2
REMARK    2  A    between atoms: N_2  and  C_3
REMARK    3  A    between atoms: N_2  and  C_4
REMARK    4  A    between atoms: C_4  and  C_5
REMARK    5  A    between atoms: C_4  and  C_12
REMARK    6  A    between atoms: C_5  and  C_6
REMARK    7  A    between atoms: C_12  and  C_14
REMARK                            x       y       z     vdW  Elec       q    Type
REMARK                         _______ _______ _______ _____ _____    ______ ____
ROOT
ATOM      1  C   UNL     1       4.131   6.621  17.302  0.00  0.00    +0.000 C 
ATOM      2  O   UNL     1       3.757   7.696  16.855  0.00  0.00    +0.000 OA
ENDROOT
BRANCH   1   3
ATOM      3  C   UNL     1       3.246   5.916  18.370  0.00  0.00    +0.000 A 
ATOM      4  C   UNL     1       2.969   6.614  19.553  0.00  0.00    +0.000 A 
ATOM      5  N   UNL     1       2.187   5.906  20.376  0.00  0.00    +0.000 N 
ATOM      6  C   UNL     1       1.899   4.758  19.793  0.00  0.00    +0.000 A 
ATOM      7  C   UNL     1       1.076   3.783  20.373  0.00  0.00    +0.000 A 
ATOM      8  C   UNL     1       0.830   2.609  19.682  0.00  0.00    +0.000 A 
ATOM      9  C   UNL     1       1.405   2.422  18.414  0.00  0.00    +0.000 A 
ATOM     10  C   UNL     1       2.248   3.437  17.820  0.00  0.00    +0.000 A 
ATOM     11  C   UNL     1       2.502   4.653  18.539  0.00  0.00    +0.000 A 
ATOM     12  H   UNL     1       1.854   6.225  21.307  0.00  0.00    +0.000 HD
ENDBRANCH   1   3
BRANCH   1  13
ATOM     13  C   UNL     1       5.549   6.022  16.791  0.00  0.00    +0.000 C 
BRANCH  13  15
ATOM     14  C   UNL     1       7.418   4.698  17.852  0.00  0.00    +0.000 C 
ATOM     15  N   UNL     1       6.607   5.950  17.868  0.00  0.00    +0.000 NA
ATOM     16  C   UNL     1       7.585   7.043  17.781  0.00  0.00    +0.000 C 
ENDBRANCH  13  15
BRANCH  13  17
ATOM     17  C   UNL     1       5.373   4.610  16.077  0.00  0.00    +0.000 C 
BRANCH  17  18
ATOM     18  C   UNL     1       5.950   4.464  14.642  0.00  0.00    +0.000 A 
ATOM     19  C   UNL     1       5.335   3.631  13.667  0.00  0.00    +0.000 A 
ATOM     20  C   UNL     1       5.903   3.464  12.391  0.00  0.00    +0.000 A 
ATOM     21  C   UNL     1       7.078   4.133  12.051  0.00  0.00    +0.000 A 
ATOM     22  C   UNL     1       7.681   4.982  12.981  0.00  0.00    +0.000 A 
ATOM     23  C   UNL     1       7.126   5.148  14.262  0.00  0.00    +0.000 A 
ENDBRANCH  17  18
ENDBRANCH  13  17
ENDBRANCH   1  13
TORSDOF 5
ENDMDL
MODEL 2
REMARK VINA RESULT:      -7.9      0.085      1.034
REMARK  Name = 
REMARK  7 active torsions:
REMARK  status: ('A' for Active; 'I' for Inactive)
REMARK    1  A    between atoms: C_1  and  N_2
REMARK    2  A    between atoms: N_2  and  C_3
REMARK    3  A    between atoms: N_2  and  C_4
REMARK    4  A    between atoms: C_4  and  C_5
REMARK    5  A    between atoms: C_4  and  C_12
REMARK    6  A    between atoms: C_5  and  C_6
REMARK    7  A    between atoms: C_12  and  C_14
REMARK                            x       y       z     vdW  Elec       q    Type
REMARK                         _______ _______ _______ _____ _____    ______ ____
ROOT
ATOM      1  C   UNL     1       4.080   6.627  17.371  0.00  0.00    +0.000 C 
ATOM      2  O   UNL     1       3.697   7.704  16.938  0.00  0.00    +0.000 OA
ENDROOT
BRANCH   1   3
ATOM      3  C   UNL     1       3.204   5.903  18.435  0.00  0.00    +0.000 A 
ATOM      4  C   UNL     1       2.923   6.587  19.625  0.00  0.00    +0.000 A 
ATOM      5  N   UNL     1       2.150   5.864  20.442  0.00  0.00    +0.000 N 
ATOM      6  C   UNL     1       1.872   4.719  19.849  0.00  0.00    +0.000 A 
ATOM      7  C   UNL     1       1.060   3.730  20.421  0.00  0.00    +0.000 A 
ATOM      8  C   UNL     1       0.825   2.560  19.720  0.00  0.00    +0.000 A 
ATOM      9  C   UNL     1       1.400   2.391  18.448  0.00  0.00    +0.000 A 
ATOM     10  C   UNL     1       2.232   3.420  17.863  0.00  0.00    +0.000 A 
ATOM     11  C   UNL     1       2.474   4.631  18.593  0.00  0.00    +0.000 A 
ATOM     12  H   UNL     1       1.815   6.170  21.377  0.00  0.00    +0.000 HD
ENDBRANCH   1   3
BRANCH   1  13
ATOM     13  C   UNL     1       5.501   6.045  16.849  0.00  0.00    +0.000 C 
BRANCH  13  15
ATOM     14  C   UNL     1       7.348   4.728  17.955  0.00  0.00    +0.000 C 
ATOM     15  N   UNL     1       6.574   6.002  17.912  0.00  0.00    +0.000 NA
ATOM     16  C   UNL     1       7.582   7.059  17.749  0.00  0.00    +0.000 C 
ENDBRANCH  13  15
BRANCH  13  17
ATOM     17  C   UNL     1       5.339   4.623  16.153  0.00  0.00    +0.000 C 
BRANCH  17  18
ATOM     18  C   UNL     1       5.957   4.450  14.739  0.00  0.00    +0.000 A 
ATOM     19  C   UNL     1       7.147   5.126  14.352  0.00  0.00    +0.000 A 
ATOM     20  C   UNL     1       7.661   5.004  13.048  0.00  0.00    +0.000 A 
ATOM     21  C   UNL     1       7.018   4.197  12.111  0.00  0.00    +0.000 A 
ATOM     22  C   UNL     1       5.867   3.499  12.478  0.00  0.00    +0.000 A 
ATOM     23  C   UNL     1       5.341   3.621  13.776  0.00  0.00    +0.000 A 
ENDBRANCH  17  18
ENDBRANCH  13  17
ENDBRANCH   1  13
TORSDOF 5
ENDMDL
MODEL 3
REMARK VINA RESULT:      -7.9      2.116      6.530
REMARK  Name = 
REMARK  7 active torsions:
REMARK  status: ('A' for Active; 'I' for Inactive)
REMARK    1  A    between atoms: C_1  and  N_2
REMARK    2  A    between atoms: N_2  and  C_3
REMARK    3  A    between atoms: N_2  and  C_4
REMARK    4  A    between atoms: C_4  and  C_5
REMARK    5  A    between atoms: C_4  and  C_12
REMARK    6  A    between atoms: C_5  and  C_6
REMARK    7  A    between atoms: C_12  and  C_14
REMARK                            x       y       z     vdW  Elec       q    Type
REMARK                         _______ _______ _______ _____ _____    ______ ____
ROOT
ATOM      1  C   UNL     1       2.350   4.114  18.110  0.00  0.00    +0.000 C 
ATOM      2  O   UNL     1       1.678   3.620  17.215  0.00  0.00    +0.000 OA
ENDROOT
BRANCH   1   3
ATOM      3  C   UNL     1       3.892   4.194  17.919  0.00  0.00    +0.000 A 
ATOM      4  C   UNL     1       4.704   3.847  19.006  0.00  0.00    +0.000 A 
ATOM      5  N   UNL     1       6.004   3.941  18.706  0.00  0.00    +0.000 N 
ATOM      6  C   UNL     1       6.115   4.317  17.447  0.00  0.00    +0.000 A 
ATOM      7  C   UNL     1       7.346   4.490  16.798  0.00  0.00    +0.000 A 
ATOM      8  C   UNL     1       7.360   4.887  15.472  0.00  0.00    +0.000 A 
ATOM      9  C   UNL     1       6.142   5.102  14.803  0.00  0.00    +0.000 A 
ATOM     10  C   UNL     1       4.877   4.915  15.479  0.00  0.00    +0.000 A 
ATOM     11  C   UNL     1       4.866   4.504  16.854  0.00  0.00    +0.000 A 
ATOM     12  H   UNL     1       6.787   3.731  19.357  0.00  0.00    +0.000 HD
ENDBRANCH   1   3
BRANCH   1  13
ATOM     13  C   UNL     1       1.598   4.608  19.459  0.00  0.00    +0.000 C 
BRANCH  13  15
ATOM     14  C   UNL     1       1.606   2.130  19.936  0.00  0.00    +0.000 C 
ATOM     15  N   UNL     1       1.336   3.502  20.455  0.00  0.00    +0.000 NA
ATOM     16  C   UNL     1       2.155   3.622  21.670  0.00  0.00    +0.000 C 
ENDBRANCH  13  15
BRANCH  13  17
ATOM     17  C   UNL     1       2.360   5.822  20.151  0.00  0.00    +0.000 C 
BRANCH  17  18
ATOM     18  C   UNL     1       2.040   7.250  19.630  0.00  0.00    +0.000 A 
ATOM     19  C   UNL     1       1.357   8.206  20.430  0.00  0.00    +0.000 A 
ATOM     20  C   UNL     1       1.023   9.475  19.921  0.00  0.00    +0.000 A 
ATOM     21  C   UNL     1       1.377   9.826  18.619  0.00  0.00    +0.000 A 
ATOM     22  C   UNL     1       2.077   8.916  17.827  0.00  0.00    +0.000 A 
ATOM     23  C   UNL     1       2.407   7.642  18.323  0.00  0.00    +0.000 A 
ENDBRANCH  17  18
ENDBRANCH  13  17
ENDBRANCH   1  13
TORSDOF 5
ENDMDL
MODEL 4
REMARK VINA RESULT:      -7.9      2.107      6.577
REMARK  Name = 
REMARK  7 active torsions:
REMARK  status: ('A' for Active; 'I' for Inactive)
REMARK    1  A    between atoms: C_1  and  N_2
REMARK    2  A    between atoms: N_2  and  C_3
REMARK    3  A    between atoms: N_2  and  C_4
REMARK    4  A    between atoms: C_4  and  C_5
REMARK    5  A    between atoms: C_4  and  C_12
REMARK    6  A    between atoms: C_5  and  C_6
REMARK    7  A    between atoms: C_12  and  C_14
REMARK                            x       y       z     vdW  Elec       q    Type
REMARK                         _______ _______ _______ _____ _____    ______ ____
ROOT
ATOM      1  C   UNL     1       4.371   3.422  19.345  0.00  0.00    +0.000 C 
ATOM      2  O   UNL     1       4.808   2.532  20.061  0.00  0.00    +0.000 OA
ENDROOT
BRANCH   1   3
ATOM      3  C   UNL     1       5.357   4.154  18.389  0.00  0.00    +0.000 A 
ATOM      4  C   UNL     1       6.319   4.995  18.961  0.00  0.00    +0.000 A 
ATOM      5  N   UNL     1       7.111   5.546  18.035  0.00  0.00    +0.000 N 
ATOM      6  C   UNL     1       6.743   5.098  16.851  0.00  0.00    +0.000 A 
ATOM      7  C   UNL     1       7.381   5.459  15.656  0.00  0.00    +0.000 A 
ATOM      8  C   UNL     1       6.922   4.934  14.460  0.00  0.00    +0.000 A 
ATOM      9  C   UNL     1       5.831   4.048  14.470  0.00  0.00    +0.000 A 
ATOM     10  C   UNL     1       5.182   3.677  15.709  0.00  0.00    +0.000 A 
ATOM     11  C   UNL     1       5.660   4.223  16.946  0.00  0.00    +0.000 A 
ATOM     12  H   UNL     1       7.894   6.202  18.229  0.00  0.00    +0.000 HD
ENDBRANCH   1   3
BRANCH   1  13
ATOM     13  C   UNL     1       2.803   3.818  19.474  0.00  0.00    +0.000 C 
BRANCH  13  15
ATOM     14  C   UNL     1       1.308   2.792  21.229  0.00  0.00    +0.000 C 
ATOM     15  N   UNL     1       1.910   2.665  19.870  0.00  0.00    +0.000 NA
ATOM     16  C   UNL     1       0.771   2.486  18.960  0.00  0.00    +0.000 C 
ENDBRANCH  13  15
BRANCH  13  17
ATOM     17  C   UNL     1       2.584   5.061  20.443  0.00  0.00    +0.000 C 
BRANCH  17  18
ATOM     18  C   UNL     1       2.331   6.443  19.779  0.00  0.00    +0.000 A 
ATOM     19  C   UNL     1       1.679   7.500  20.471  0.00  0.00    +0.000 A 
ATOM     20  C   UNL     1       1.404   8.725  19.835  0.00  0.00    +0.000 A 
ATOM     21  C   UNL     1       1.788   8.931  18.511  0.00  0.00    +0.000 A 
ATOM     22  C   UNL     1       2.459   7.919  17.822  0.00  0.00    +0.000 A 
ATOM     23  C   UNL     1       2.729   6.689  18.446  0.00  0.00    +0.000 A 
ENDBRANCH  17  18
ENDBRANCH  13  17
ENDBRANCH   1  13
TORSDOF 5
ENDMDL
MODEL 5
REMARK VINA RESULT:      -7.8      2.133      6.589
REMARK  Name = 
REMARK  7 active torsions:
REMARK  status: ('A' for Active; 'I' for Inactive)
REMARK    1  A    between atoms: C_1  and  N_2
REMARK    2  A    between atoms: N_2  and  C_3
REMARK    3  A    between atoms: N_2  and  C_4
REMARK    4  A    between atoms: C_4  and  C_5
REMARK    5  A    between atoms: C_4  and  C_12
REMARK    6  A    between atoms: C_5  and  C_6
REMARK    7  A    between atoms: C_12  and  C_14
REMARK                            x       y       z     vdW  Elec       q    Type
REMARK                         _______ _______ _______ _____ _____    ______ ____
ROOT
ATOM      1  C   UNL     1       4.348   3.467  19.428  0.00  0.00    +0.000 C 
ATOM      2  O   UNL     1       4.801   2.585  20.143  0.00  0.00    +0.000 OA
ENDROOT
BRANCH   1   3
ATOM      3  C   UNL     1       5.322   4.228  18.483  0.00  0.00    +0.000 A 
ATOM      4  C   UNL     1       6.195   5.161  19.058  0.00  0.00    +0.000 A 
ATOM      5  N   UNL     1       6.988   5.729  18.143  0.00  0.00    +0.000 N 
ATOM      6  C   UNL     1       6.707   5.205  16.965  0.00  0.00    +0.000 A 
ATOM      7  C   UNL     1       7.373   5.560  15.783  0.00  0.00    +0.000 A 
ATOM      8  C   UNL     1       7.007   4.953  14.594  0.00  0.00    +0.000 A 
ATOM      9  C   UNL     1       5.983   3.991  14.597  0.00  0.00    +0.000 A 
ATOM     10  C   UNL     1       5.306   3.627  15.823  0.00  0.00    +0.000 A 
ATOM     11  C   UNL     1       5.686   4.258  17.053  0.00  0.00    +0.000 A 
ATOM     12  H   UNL     1       7.713   6.447  18.340  0.00  0.00    +0.000 HD
ENDBRANCH   1   3
BRANCH   1  13
ATOM     13  C   UNL     1       2.770   3.824  19.547  0.00  0.00    +0.000 C 
BRANCH  13  15
ATOM     14  C   UNL     1       1.358   2.755  21.345  0.00  0.00    +0.000 C 
ATOM     15  N   UNL     1       1.907   2.654  19.962  0.00  0.00    +0.000 NA
ATOM     16  C   UNL     1       0.734   2.475  19.095  0.00  0.00    +0.000 C 
ENDBRANCH  13  15
BRANCH  13  17
ATOM     17  C   UNL     1       2.516   5.077  20.494  0.00  0.00    +0.000 C 
BRANCH  17  18
ATOM     18  C   UNL     1       2.224   6.439  19.806  0.00  0.00    +0.000 A 
ATOM     19  C   UNL     1       2.579   6.687  18.451  0.00  0.00    +0.000 A 
ATOM     20  C   UNL     1       2.361   7.946  17.862  0.00  0.00    +0.000 A 
ATOM     21  C   UNL     1       1.771   8.974  18.595  0.00  0.00    +0.000 A 
ATOM     22  C   UNL     1       1.385   8.743  19.916  0.00  0.00    +0.000 A 
ATOM     23  C   UNL     1       1.606   7.492  20.518  0.00  0.00    +0.000 A 
ENDBRANCH  17  18
ENDBRANCH  13  17
ENDBRANCH   1  13
TORSDOF 5
ENDMDL
MODEL 6
REMARK VINA RESULT:      -7.8      2.916      6.850
REMARK  Name = 
REMARK  7 active torsions:
REMARK  status: ('A' for Active; 'I' for Inactive)
REMARK    1  A    between atoms: C_1  and  N_2
REMARK    2  A    between atoms: N_2  and  C_3
REMARK    3  A    between atoms: N_2  and  C_4
REMARK    4  A    between atoms: C_4  and  C_5
REMARK    5  A    between atoms: C_4  and  C_12
REMARK    6  A    between atoms: C_5  and  C_6
REMARK    7  A    between atoms: C_12  and  C_14
REMARK                            x       y       z     vdW  Elec       q    Type
REMARK                         _______ _______ _______ _____ _____    ______ ____
ROOT
ATOM      1  C   UNL     1       2.202   4.480  18.440  0.00  0.00    +0.000 C 
ATOM      2  O   UNL     1       1.601   4.149  17.428  0.00  0.00    +0.000 OA
ENDROOT
BRANCH   1   3
ATOM      3  C   UNL     1       3.758   4.513  18.400  0.00  0.00    +0.000 A 
ATOM      4  C   UNL     1       4.447   3.381  18.851  0.00  0.00    +0.000 A 
ATOM      5  N   UNL     1       5.772   3.532  18.747  0.00  0.00    +0.000 N 
ATOM      6  C   UNL     1       6.017   4.717  18.221  0.00  0.00    +0.000 A 
ATOM      7  C   UNL     1       7.308   5.190  17.951  0.00  0.00    +0.000 A 
ATOM      8  C   UNL     1       7.464   6.449  17.396  0.00  0.00    +0.000 A 
ATOM      9  C   UNL     1       6.325   7.222  17.110  0.00  0.00    +0.000 A 
ATOM     10  C   UNL     1       4.996   6.722  17.386  0.00  0.00    +0.000 A 
ATOM     11  C   UNL     1       4.838   5.418  17.962  0.00  0.00    +0.000 A 
ATOM     12  H   UNL     1       6.480   2.822  19.020  0.00  0.00    +0.000 HD
ENDBRANCH   1   3
BRANCH   1  13
ATOM     13  C   UNL     1       1.343   4.813  19.776  0.00  0.00    +0.000 C 
BRANCH  13  15
ATOM     14  C   UNL     1       1.093   2.307  19.945  0.00  0.00    +0.000 C 
ATOM     15  N   UNL     1       1.103   3.614  20.664  0.00  0.00    +0.000 NA
ATOM     16  C   UNL     1       2.121   3.467  21.714  0.00  0.00    +0.000 C 
ENDBRANCH  13  15
BRANCH  13  17
ATOM     17  C   UNL     1       1.980   6.012  20.606  0.00  0.00    +0.000 C 
BRANCH  17  18
ATOM     18  C   UNL     1       1.636   7.455  20.145  0.00  0.00    +0.000 A 
ATOM     19  C   UNL     1       1.996   7.938  18.856  0.00  0.00    +0.000 A 
ATOM     20  C   UNL     1       1.729   9.266  18.477  0.00  0.00    +0.000 A 
ATOM     21  C   UNL     1       1.085  10.133  19.358  0.00  0.00    +0.000 A 
ATOM     22  C   UNL     1       0.692   9.672  20.615  0.00  0.00    +0.000 A 
ATOM     23  C   UNL     1       0.963   8.349  21.007  0.00  0.00    +0.000 A 
ENDBRANCH  17  18
ENDBRANCH  13  17
ENDBRANCH   1  13
TORSDOF 5
ENDMDL
MODEL 7
REMARK VINA RESULT:      -7.7      1.221      1.748
REMARK  Name = 
REMARK  7 active torsions:
REMARK  status: ('A' for Active; 'I' for Inactive)
REMARK    1  A    between atoms: C_1  and  N_2
REMARK    2  A    between atoms: N_2  and  C_3
REMARK    3  A    between atoms: N_2  and  C_4
REMARK    4  A    between atoms: C_4  and  C_5
REMARK    5  A    between atoms: C_4  and  C_12
REMARK    6  A    between atoms: C_5  and  C_6
REMARK    7  A    between atoms: C_12  and  C_14
REMARK                            x       y       z     vdW  Elec       q    Type
REMARK                         _______ _______ _______ _____ _____    ______ ____
ROOT
ATOM      1  C   UNL     1       4.122   5.942  17.322  0.00  0.00    +0.000 C 
ATOM      2  O   UNL     1       3.621   7.057  17.328  0.00  0.00    +0.000 OA
ENDROOT
BRANCH   1   3
ATOM      3  C   UNL     1       3.290   4.754  17.887  0.00  0.00    +0.000 A 
ATOM      4  C   UNL     1       2.917   3.737  16.999  0.00  0.00    +0.000 A 
ATOM      5  N   UNL     1       2.225   2.771  17.612  0.00  0.00    +0.000 N 
ATOM      6  C   UNL     1       2.127   3.076  18.892  0.00  0.00    +0.000 A 
ATOM      7  C   UNL     1       1.481   2.263  19.833  0.00  0.00    +0.000 A 
ATOM      8  C   UNL     1       1.431   2.668  21.156  0.00  0.00    +0.000 A 
ATOM      9  C   UNL     1       2.035   3.881  21.528  0.00  0.00    +0.000 A 
ATOM     10  C   UNL     1       2.706   4.711  20.551  0.00  0.00    +0.000 A 
ATOM     11  C   UNL     1       2.754   4.289  19.181  0.00  0.00    +0.000 A 
ATOM     12  H   UNL     1       1.848   1.918  17.152  0.00  0.00    +0.000 HD
ENDBRANCH   1   3
BRANCH   1  13
ATOM     13  C   UNL     1       5.639   5.779  16.773  0.00  0.00    +0.000 C 
BRANCH  13  15
ATOM     14  C   UNL     1       7.664   4.925  18.014  0.00  0.00    +0.000 C 
ATOM     15  N   UNL     1       6.700   6.046  17.816  0.00  0.00    +0.000 NA
ATOM     16  C   UNL     1       7.531   7.216  17.499  0.00  0.00    +0.000 C 
ENDBRANCH  13  15
BRANCH  13  17
ATOM     17  C   UNL     1       5.871   4.364  16.082  0.00  0.00    +0.000 C 
BRANCH  17  18
ATOM     18  C   UNL     1       6.305   4.366  14.590  0.00  0.00    +0.000 A 
ATOM     19  C   UNL     1       5.655   3.556  13.618  0.00  0.00    +0.000 A 
ATOM     20  C   UNL     1       6.099   3.526  12.284  0.00  0.00    +0.000 A 
ATOM     21  C   UNL     1       7.181   4.309  11.884  0.00  0.00    +0.000 A 
ATOM     22  C   UNL     1       7.813   5.136  12.813  0.00  0.00    +0.000 A 
ATOM     23  C   UNL     1       7.382   5.167  14.151  0.00  0.00    +0.000 A 
ENDBRANCH  17  18
ENDBRANCH  13  17
ENDBRANCH   1  13
TORSDOF 5
ENDMDL
MODEL 8
REMARK VINA RESULT:      -7.7      1.085      1.499
REMARK  Name = 
REMARK  7 active torsions:
REMARK  status: ('A' for Active; 'I' for Inactive)
REMARK    1  A    between atoms: C_1  and  N_2
REMARK    2  A    between atoms: N_2  and  C_3
REMARK    3  A    between atoms: N_2  and  C_4
REMARK    4  A    between atoms: C_4  and  C_5
REMARK    5  A    between atoms: C_4  and  C_12
REMARK    6  A    between atoms: C_5  and  C_6
REMARK    7  A    between atoms: C_12  and  C_14
REMARK                            x       y       z     vdW  Elec       q    Type
REMARK                         _______ _______ _______ _____ _____    ______ ____
ROOT
ATOM      1  C   UNL     1       4.144   6.582  17.489  0.00  0.00    +0.000 C 
ATOM      2  O   UNL     1       3.608   7.536  16.942  0.00  0.00    +0.000 OA
ENDROOT
BRANCH   1   3
ATOM      3  C   UNL     1       3.459   5.968  18.744  0.00  0.00    +0.000 A 
ATOM      4  C   UNL     1       2.572   6.777  19.466  0.00  0.00    +0.000 A 
ATOM      5  N   UNL     1       2.041   6.126  20.506  0.00  0.00    +0.000 N 
ATOM      6  C   UNL     1       2.513   4.894  20.513  0.00  0.00    +0.000 A 
ATOM      7  C   UNL     1       2.142   3.930  21.461  0.00  0.00    +0.000 A 
ATOM      8  C   UNL     1       2.692   2.661  21.384  0.00  0.00    +0.000 A 
ATOM      9  C   UNL     1       3.604   2.366  20.356  0.00  0.00    +0.000 A 
ATOM     10  C   UNL     1       3.975   3.366  19.379  0.00  0.00    +0.000 A 
ATOM     11  C   UNL     1       3.405   4.680  19.461  0.00  0.00    +0.000 A 
ATOM     12  H   UNL     1       1.358   6.527  21.179  0.00  0.00    +0.000 HD
ENDBRANCH   1   3
BRANCH   1  13
ATOM     13  C   UNL     1       5.559   6.050  16.902  0.00  0.00    +0.000 C 
BRANCH  13  15
ATOM     14  C   UNL     1       7.490   4.788  17.928  0.00  0.00    +0.000 C 
ATOM     15  N   UNL     1       6.678   6.040  17.918  0.00  0.00    +0.000 NA
ATOM     16  C   UNL     1       7.648   7.125  17.711  0.00  0.00    +0.000 C 
ENDBRANCH  13  15
BRANCH  13  17
ATOM     17  C   UNL     1       5.415   4.626  16.207  0.00  0.00    +0.000 C 
BRANCH  17  18
ATOM     18  C   UNL     1       6.002   4.471  14.777  0.00  0.00    +0.000 A 
ATOM     19  C   UNL     1       7.182   5.154  14.372  0.00  0.00    +0.000 A 
ATOM     20  C   UNL     1       7.667   5.049  13.056  0.00  0.00    +0.000 A 
ATOM     21  C   UNL     1       7.004   4.252  12.123  0.00  0.00    +0.000 A 
ATOM     22  C   UNL     1       5.863   3.547  12.507  0.00  0.00    +0.000 A 
ATOM     23  C   UNL     1       5.365   3.653  13.818  0.00  0.00    +0.000 A 
ENDBRANCH  17  18
ENDBRANCH  13  17
ENDBRANCH   1  13
TORSDOF 5
ENDMDL
MODEL 9
REMARK VINA RESULT:      -7.6      2.468      6.839
REMARK  Name = 
REMARK  7 active torsions:
REMARK  status: ('A' for Active; 'I' for Inactive)
REMARK    1  A    between atoms: C_1  and  N_2
REMARK    2  A    between atoms: N_2  and  C_3
REMARK    3  A    between atoms: N_2  and  C_4
REMARK    4  A    between atoms: C_4  and  C_5
REMARK    5  A    between atoms: C_4  and  C_12
REMARK    6  A    between atoms: C_5  and  C_6
REMARK    7  A    between atoms: C_12  and  C_14
REMARK                            x       y       z     vdW  Elec       q    Type
REMARK                         _______ _______ _______ _____ _____    ______ ____
ROOT
ATOM      1  C   UNL     1       1.879   4.534  18.024  0.00  0.00    +0.000 C 
ATOM      2  O   UNL     1       1.033   4.234  17.194  0.00  0.00    +0.000 OA
ENDROOT
BRANCH   1   3
ATOM      3  C   UNL     1       3.380   4.403  17.632  0.00  0.00    +0.000 A 
ATOM      4  C   UNL     1       3.865   3.126  17.324  0.00  0.00    +0.000 A 
ATOM      5  N   UNL     1       5.160   3.156  16.988  0.00  0.00    +0.000 N 
ATOM      6  C   UNL     1       5.575   4.407  17.033  0.00  0.00    +0.000 A 
ATOM      7  C   UNL     1       6.882   4.799  16.714  0.00  0.00    +0.000 A 
ATOM      8  C   UNL     1       7.223   6.139  16.790  0.00  0.00    +0.000 A 
ATOM      9  C   UNL     1       6.251   7.076  17.179  0.00  0.00    +0.000 A 
ATOM     10  C   UNL     1       4.902   6.663  17.501  0.00  0.00    +0.000 A 
ATOM     11  C   UNL     1       4.552   5.274  17.421  0.00  0.00    +0.000 A 
ATOM     12  H   UNL     1       5.728   2.328  16.719  0.00  0.00    +0.000 HD
ENDBRANCH   1   3
BRANCH   1  13
ATOM     13  C   UNL     1       1.386   5.000  19.498  0.00  0.00    +0.000 C 
BRANCH  13  15
ATOM     14  C   UNL     1       1.270   2.505  19.863  0.00  0.00    +0.000 C 
ATOM     15  N   UNL     1       1.232   3.862  20.481  0.00  0.00    +0.000 NA
ATOM     16  C   UNL     1       2.286   3.847  21.505  0.00  0.00    +0.000 C 
ENDBRANCH  13  15
BRANCH  13  17
ATOM     17  C   UNL     1       2.314   6.144  20.099  0.00  0.00    +0.000 C 
BRANCH  17  18
ATOM     18  C   UNL     1       1.845   7.613  19.906  0.00  0.00    +0.000 A 
ATOM     19  C   UNL     1       1.248   8.354  20.963  0.00  0.00    +0.000 A 
ATOM     20  C   UNL     1       0.774   9.663  20.755  0.00  0.00    +0.000 A 
ATOM     21  C   UNL     1       0.901  10.267  19.505  0.00  0.00    +0.000 A 
ATOM     22  C   UNL     1       1.513   9.570  18.462  0.00  0.00    +0.000 A 
ATOM     23  C   UNL     1       1.981   8.258  18.657  0.00  0.00    +0.000 A 
ENDBRANCH  17  18
ENDBRANCH  13  17
ENDBRANCH   1  13
TORSDOF 5
ENDMDL
