MODEL 1
REMARK VINA RESULT:      -6.5      0.000      0.000
REMARK  Name = 
REMARK  8 active torsions:
REMARK  status: ('A' for Active; 'I' for Inactive)
REMARK    1  A    between atoms: C_1  and  C_2
REMARK    2  A    between atoms: C_7  and  O_8
REMARK    3  A    between atoms: O_8  and  C_9
REMARK    4  A    between atoms: C_9  and  O_11
REMARK    5  A    between atoms: O_11  and  C_12
REMARK    6  A    between atoms: C_12  and  C_13
REMARK    7  A    between atoms: C_12  and  C_14
REMARK    8  A    between atoms: C_12  and  C_15
REMARK                            x       y       z     vdW  Elec       q    Type
REMARK                         _______ _______ _______ _____ _____    ______ ____
ROOT
ATOM      1  O   UNL     1       4.733   5.651  18.157  0.00  0.00    +0.000 OA
ENDROOT
BRANCH   1   8
ATOM      2  C   UNL     1       7.394   6.972  17.677  0.00  0.00    +0.000 C 
ATOM      3  C   UNL     1       6.750   5.978  16.760  0.00  0.00    +0.000 A 
ATOM      4  N   UNL     1       7.503   5.621  15.683  0.00  0.00    +0.000 NA
ATOM      5  C   UNL     1       6.986   4.719  14.821  0.00  0.00    +0.000 A 
ATOM      6  C   UNL     1       5.728   4.159  14.959  0.00  0.00    +0.000 A 
ATOM      7  C   UNL     1       4.958   4.530  16.059  0.00  0.00    +0.000 A 
ATOM      8  C   UNL     1       5.472   5.450  16.975  0.00  0.00    +0.000 A 
ENDBRANCH   1   8
BRANCH   1   9
ATOM      9  C   UNL     1       4.657   4.593  19.049  0.00  0.00    +0.000 C 
ATOM     10  O   UNL     1       5.573   3.826  19.317  0.00  0.00    +0.000 OA
BRANCH   9  11
ATOM     11  O   UNL     1       3.375   4.501  19.506  0.00  0.00    +0.000 OA
BRANCH  11  12
ATOM     12  C   UNL     1       2.444   3.597  18.854  0.00  0.00    +0.000 C 
ATOM     13  C   UNL     1       3.131   2.329  18.332  0.00  0.00    +0.000 C 
ATOM     14  C   UNL     1       1.416   3.166  19.916  0.00  0.00    +0.000 C 
ATOM     15  C   UNL     1       1.683   4.350  17.752  0.00  0.00    +0.000 C 
ENDBRANCH  11  12
ENDBRANCH   9  11
ENDBRANCH   1   9
TORSDOF 4
ENDMDL
MODEL 2
REMARK VINA RESULT:      -6.4      0.795      1.039
REMARK  Name = 
REMARK  8 active torsions:
REMARK  status: ('A' for Active; 'I' for Inactive)
REMARK    1  A    between atoms: C_1  and  C_2
REMARK    2  A    between atoms: C_7  and  O_8
REMARK    3  A    between atoms: O_8  and  C_9
REMARK    4  A    between atoms: C_9  and  O_11
REMARK    5  A    between atoms: O_11  and  C_12
REMARK    6  A    between atoms: C_12  and  C_13
REMARK    7  A    between atoms: C_12  and  C_14
REMARK    8  A    between atoms: C_12  and  C_15
REMARK                            x       y       z     vdW  Elec       q    Type
REMARK                         _______ _______ _______ _____ _____    ______ ____
ROOT
ATOM      1  O   UNL     1       5.479   3.998  18.760  0.00  0.00    +0.000 OA
ENDROOT
BRANCH   1   8
ATOM      2  C   UNL     1       7.625   6.082  18.441  0.00  0.00    +0.000 C 
ATOM      3  C   UNL     1       6.948   5.366  17.312  0.00  0.00    +0.000 A 
ATOM      4  N   UNL     1       7.434   5.659  16.075  0.00  0.00    +0.000 NA
ATOM      5  C   UNL     1       6.876   5.038  15.014  0.00  0.00    +0.000 A 
ATOM      6  C   UNL     1       5.825   4.143  15.114  0.00  0.00    +0.000 A 
ATOM      7  C   UNL     1       5.327   3.849  16.381  0.00  0.00    +0.000 A 
ATOM      8  C   UNL     1       5.894   4.464  17.498  0.00  0.00    +0.000 A 
ENDBRANCH   1   8
BRANCH   1   9
ATOM      9  C   UNL     1       4.342   4.570  19.309  0.00  0.00    +0.000 C 
ATOM     10  O   UNL     1       4.200   5.759  19.563  0.00  0.00    +0.000 OA
BRANCH   9  11
ATOM     11  O   UNL     1       3.451   3.577  19.597  0.00  0.00    +0.000 OA
BRANCH  11  12
ATOM     12  C   UNL     1       2.314   3.357  18.722  0.00  0.00    +0.000 C 
ATOM     13  C   UNL     1       2.486   2.110  17.846  0.00  0.00    +0.000 C 
ATOM     14  C   UNL     1       1.088   3.126  19.626  0.00  0.00    +0.000 C 
ATOM     15  C   UNL     1       2.048   4.625  17.897  0.00  0.00    +0.000 C 
ENDBRANCH  11  12
ENDBRANCH   9  11
ENDBRANCH   1   9
TORSDOF 4
ENDMDL
MODEL 3
REMARK VINA RESULT:      -6.3      1.382      1.822
REMARK  Name = 
REMARK  8 active torsions:
REMARK  status: ('A' for Active; 'I' for Inactive)
REMARK    1  A    between atoms: C_1  and  C_2
REMARK    2  A    between atoms: C_7  and  O_8
REMARK    3  A    between atoms: O_8  and  C_9
REMARK    4  A    between atoms: C_9  and  O_11
REMARK    5  A    between atoms: O_11  and  C_12
REMARK    6  A    between atoms: C_12  and  C_13
REMARK    7  A    between atoms: C_12  and  C_14
REMARK    8  A    between atoms: C_12  and  C_15
REMARK                            x       y       z     vdW  Elec       q    Type
REMARK                         _______ _______ _______ _____ _____    ______ ____
ROOT
ATOM      1  O   UNL     1       4.718   4.744  18.937  0.00  0.00    +0.000 OA
ENDROOT
BRANCH   1   8
ATOM      2  C   UNL     1       7.617   5.550  18.895  0.00  0.00    +0.000 C 
ATOM      3  C   UNL     1       6.846   5.051  17.711  0.00  0.00    +0.000 A 
ATOM      4  N   UNL     1       7.580   4.895  16.576  0.00  0.00    +0.000 NA
ATOM      5  C   UNL     1       6.950   4.437  15.473  0.00  0.00    +0.000 A 
ATOM      6  C   UNL     1       5.598   4.144  15.429  0.00  0.00    +0.000 A 
ATOM      7  C   UNL     1       4.848   4.310  16.592  0.00  0.00    +0.000 A 
ATOM      8  C   UNL     1       5.476   4.767  17.751  0.00  0.00    +0.000 A 
ENDBRANCH   1   8
BRANCH   1   9
ATOM      9  C   UNL     1       4.354   3.503  19.436  0.00  0.00    +0.000 C 
ATOM     10  O   UNL     1       5.124   2.674  19.901  0.00  0.00    +0.000 OA
BRANCH   9  11
ATOM     11  O   UNL     1       3.014   3.333  19.241  0.00  0.00    +0.000 OA
BRANCH  11  12
ATOM     12  C   UNL     1       2.089   3.615  20.324  0.00  0.00    +0.000 C 
ATOM     13  C   UNL     1       2.009   5.113  20.646  0.00  0.00    +0.000 C 
ATOM     14  C   UNL     1       0.694   3.164  19.854  0.00  0.00    +0.000 C 
ATOM     15  C   UNL     1       2.460   2.769  21.551  0.00  0.00    +0.000 C 
ENDBRANCH  11  12
ENDBRANCH   9  11
ENDBRANCH   1   9
TORSDOF 4
ENDMDL
MODEL 4
REMARK VINA RESULT:      -6.3      0.180      1.107
REMARK  Name = 
REMARK  8 active torsions:
REMARK  status: ('A' for Active; 'I' for Inactive)
REMARK    1  A    between atoms: C_1  and  C_2
REMARK    2  A    between atoms: C_7  and  O_8
REMARK    3  A    between atoms: O_8  and  C_9
REMARK    4  A    between atoms: C_9  and  O_11
REMARK    5  A    between atoms: O_11  and  C_12
REMARK    6  A    between atoms: C_12  and  C_13
REMARK    7  A    between atoms: C_12  and  C_14
REMARK    8  A    between atoms: C_12  and  C_15
REMARK                            x       y       z     vdW  Elec       q    Type
REMARK                         _______ _______ _______ _____ _____    ______ ____
ROOT
ATOM      1  O   UNL     1       4.715   5.679  18.132  0.00  0.00    +0.000 OA
ENDROOT
BRANCH   1   8
ATOM      2  C   UNL     1       7.352   7.032  17.606  0.00  0.00    +0.000 C 
ATOM      3  C   UNL     1       6.725   5.997  16.722  0.00  0.00    +0.000 A 
ATOM      4  N   UNL     1       7.483   5.620  15.657  0.00  0.00    +0.000 NA
ATOM      5  C   UNL     1       6.982   4.681  14.825  0.00  0.00    +0.000 A 
ATOM      6  C   UNL     1       5.734   4.103  14.983  0.00  0.00    +0.000 A 
ATOM      7  C   UNL     1       4.958   4.496  16.072  0.00  0.00    +0.000 A 
ATOM      8  C   UNL     1       5.456   5.453  16.957  0.00  0.00    +0.000 A 
ENDBRANCH   1   8
BRANCH   1   9
ATOM      9  C   UNL     1       4.683   4.660  19.071  0.00  0.00    +0.000 C 
ATOM     10  O   UNL     1       5.587   3.864  19.283  0.00  0.00    +0.000 OA
BRANCH   9  11
ATOM     11  O   UNL     1       3.448   4.643  19.651  0.00  0.00    +0.000 OA
BRANCH  11  12
ATOM     12  C   UNL     1       2.399   3.818  19.081  0.00  0.00    +0.000 C 
ATOM     13  C   UNL     1       1.754   4.463  17.848  0.00  0.00    +0.000 C 
ATOM     14  C   UNL     1       3.058   2.502  18.626  0.00  0.00    +0.000 C 
ATOM     15  C   UNL     1       1.371   3.468  20.167  0.00  0.00    +0.000 C 
ENDBRANCH  11  12
ENDBRANCH   9  11
ENDBRANCH   1   9
TORSDOF 4
ENDMDL
MODEL 5
REMARK VINA RESULT:      -6.2      0.743      1.371
REMARK  Name = 
REMARK  8 active torsions:
REMARK  status: ('A' for Active; 'I' for Inactive)
REMARK    1  A    between atoms: C_1  and  C_2
REMARK    2  A    between atoms: C_7  and  O_8
REMARK    3  A    between atoms: O_8  and  C_9
REMARK    4  A    between atoms: C_9  and  O_11
REMARK    5  A    between atoms: O_11  and  C_12
REMARK    6  A    between atoms: C_12  and  C_13
REMARK    7  A    between atoms: C_12  and  C_14
REMARK    8  A    between atoms: C_12  and  C_15
REMARK                            x       y       z     vdW  Elec       q    Type
REMARK                         _______ _______ _______ _____ _____    ______ ____
ROOT
ATOM      1  O   UNL     1       5.504   4.504  18.780  0.00  0.00    +0.000 OA
ENDROOT
BRANCH   1   8
ATOM      2  C   UNL     1       7.645   6.507  18.100  0.00  0.00    +0.000 C 
ATOM      3  C   UNL     1       7.011   5.563  17.126  0.00  0.00    +0.000 A 
ATOM      4  N   UNL     1       7.534   5.600  15.870  0.00  0.00    +0.000 NA
ATOM      5  C   UNL     1       7.015   4.766  14.944  0.00  0.00    +0.000 A 
ATOM      6  C   UNL     1       5.968   3.896  15.195  0.00  0.00    +0.000 A 
ATOM      7  C   UNL     1       5.432   3.864  16.480  0.00  0.00    +0.000 A 
ATOM      8  C   UNL     1       5.957   4.705  17.462  0.00  0.00    +0.000 A 
ENDBRANCH   1   8
BRANCH   1   9
ATOM      9  C   UNL     1       4.241   4.977  19.100  0.00  0.00    +0.000 C 
ATOM     10  O   UNL     1       3.857   6.128  18.945  0.00  0.00    +0.000 OA
BRANCH   9  11
ATOM     11  O   UNL     1       3.537   3.970  19.692  0.00  0.00    +0.000 OA
BRANCH  11  12
ATOM     12  C   UNL     1       2.255   3.570  19.140  0.00  0.00    +0.000 C 
ATOM     13  C   UNL     1       2.022   4.141  17.735  0.00  0.00    +0.000 C 
ATOM     14  C   UNL     1       2.275   2.034  19.021  0.00  0.00    +0.000 C 
ATOM     15  C   UNL     1       1.134   3.943  20.121  0.00  0.00    +0.000 C 
ENDBRANCH  11  12
ENDBRANCH   9  11
ENDBRANCH   1   9
TORSDOF 4
ENDMDL
MODEL 6
REMARK VINA RESULT:      -6.1      0.936      1.170
REMARK  Name = 
REMARK  8 active torsions:
REMARK  status: ('A' for Active; 'I' for Inactive)
REMARK    1  A    between atoms: C_1  and  C_2
REMARK    2  A    between atoms: C_7  and  O_8
REMARK    3  A    between atoms: O_8  and  C_9
REMARK    4  A    between atoms: C_9  and  O_11
REMARK    5  A    between atoms: O_11  and  C_12
REMARK    6  A    between atoms: C_12  and  C_13
REMARK    7  A    between atoms: C_12  and  C_14
REMARK    8  A    between atoms: C_12  and  C_15
REMARK                            x       y       z     vdW  Elec       q    Type
REMARK                         _______ _______ _______ _____ _____    ______ ____
ROOT
ATOM      1  O   UNL     1       4.633   5.273  18.109  0.00  0.00    +0.000 OA
ENDROOT
BRANCH   1   8
ATOM      2  C   UNL     1       7.259   6.718  17.847  0.00  0.00    +0.000 C 
ATOM      3  C   UNL     1       6.677   5.800  16.816  0.00  0.00    +0.000 A 
ATOM      4  N   UNL     1       7.472   5.576  15.735  0.00  0.00    +0.000 NA
ATOM      5  C   UNL     1       7.013   4.747  14.773  0.00  0.00    +0.000 A 
ATOM      6  C   UNL     1       5.771   4.137  14.815  0.00  0.00    +0.000 A 
ATOM      7  C   UNL     1       4.957   4.373  15.920  0.00  0.00    +0.000 A 
ATOM      8  C   UNL     1       5.412   5.213  16.937  0.00  0.00    +0.000 A 
ENDBRANCH   1   8
BRANCH   1   9
ATOM      9  C   UNL     1       4.548   4.122  18.878  0.00  0.00    +0.000 C 
ATOM     10  O   UNL     1       5.478   3.604  19.480  0.00  0.00    +0.000 OA
BRANCH   9  11
ATOM     11  O   UNL     1       3.282   3.625  18.776  0.00  0.00    +0.000 OA
BRANCH  11  12
ATOM     12  C   UNL     1       2.409   3.642  19.936  0.00  0.00    +0.000 C 
ATOM     13  C   UNL     1       2.909   2.722  21.057  0.00  0.00    +0.000 C 
ATOM     14  C   UNL     1       2.412   5.084  20.480  0.00  0.00    +0.000 C 
ATOM     15  C   UNL     1       0.972   3.315  19.503  0.00  0.00    +0.000 C 
ENDBRANCH  11  12
ENDBRANCH   9  11
ENDBRANCH   1   9
TORSDOF 4
ENDMDL
MODEL 7
REMARK VINA RESULT:      -6.1      1.240      1.428
REMARK  Name = 
REMARK  8 active torsions:
REMARK  status: ('A' for Active; 'I' for Inactive)
REMARK    1  A    between atoms: C_1  and  C_2
REMARK    2  A    between atoms: C_7  and  O_8
REMARK    3  A    between atoms: O_8  and  C_9
REMARK    4  A    between atoms: C_9  and  O_11
REMARK    5  A    between atoms: O_11  and  C_12
REMARK    6  A    between atoms: C_12  and  C_13
REMARK    7  A    between atoms: C_12  and  C_14
REMARK    8  A    between atoms: C_12  and  C_15
REMARK                            x       y       z     vdW  Elec       q    Type
REMARK                         _______ _______ _______ _____ _____    ______ ____
ROOT
ATOM      1  O   UNL     1       4.943   3.788  18.229  0.00  0.00    +0.000 OA
ENDROOT
BRANCH   1   8
ATOM      2  C   UNL     1       7.694   5.003  18.322  0.00  0.00    +0.000 C 
ATOM      3  C   UNL     1       6.902   4.763  17.073  0.00  0.00    +0.000 A 
ATOM      4  N   UNL     1       7.554   5.061  15.916  0.00  0.00    +0.000 NA
ATOM      5  C   UNL     1       6.901   4.856  14.752  0.00  0.00    +0.000 A 
ATOM      6  C   UNL     1       5.602   4.385  14.673  0.00  0.00    +0.000 A 
ATOM      7  C   UNL     1       4.936   4.086  15.859  0.00  0.00    +0.000 A 
ATOM      8  C   UNL     1       5.590   4.274  17.077  0.00  0.00    +0.000 A 
ENDBRANCH   1   8
BRANCH   1   9
ATOM      9  C   UNL     1       4.056   4.640  18.870  0.00  0.00    +0.000 C 
ATOM     10  O   UNL     1       4.371   5.561  19.610  0.00  0.00    +0.000 OA
BRANCH   9  11
ATOM     11  O   UNL     1       2.785   4.222  18.605  0.00  0.00    +0.000 OA
BRANCH  11  12
ATOM     12  C   UNL     1       2.089   3.385  19.567  0.00  0.00    +0.000 C 
ATOM     13  C   UNL     1       3.048   2.730  20.569  0.00  0.00    +0.000 C 
ATOM     14  C   UNL     1       1.142   4.304  20.361  0.00  0.00    +0.000 C 
ATOM     15  C   UNL     1       1.222   2.359  18.823  0.00  0.00    +0.000 C 
ENDBRANCH  11  12
ENDBRANCH   9  11
ENDBRANCH   1   9
TORSDOF 4
ENDMDL
MODEL 8
REMARK VINA RESULT:      -6.1      1.387      1.882
REMARK  Name = 
REMARK  8 active torsions:
REMARK  status: ('A' for Active; 'I' for Inactive)
REMARK    1  A    between atoms: C_1  and  C_2
REMARK    2  A    between atoms: C_7  and  O_8
REMARK    3  A    between atoms: O_8  and  C_9
REMARK    4  A    between atoms: C_9  and  O_11
REMARK    5  A    between atoms: O_11  and  C_12
REMARK    6  A    between atoms: C_12  and  C_13
REMARK    7  A    between atoms: C_12  and  C_14
REMARK    8  A    between atoms: C_12  and  C_15
REMARK                            x       y       z     vdW  Elec       q    Type
REMARK                         _______ _______ _______ _____ _____    ______ ____
ROOT
ATOM      1  O   UNL     1       5.979   4.225  18.785  0.00  0.00    +0.000 OA
ENDROOT
BRANCH   1   8
ATOM      2  C   UNL     1       7.635   6.620  18.020  0.00  0.00    +0.000 C 
ATOM      3  C   UNL     1       7.018   5.656  17.053  0.00  0.00    +0.000 A 
ATOM      4  N   UNL     1       7.327   5.881  15.747  0.00  0.00    +0.000 NA
ATOM      5  C   UNL     1       6.814   5.041  14.822  0.00  0.00    +0.000 A 
ATOM      6  C   UNL     1       5.974   3.984  15.127  0.00  0.00    +0.000 A 
ATOM      7  C   UNL     1       5.656   3.760  16.465  0.00  0.00    +0.000 A 
ATOM      8  C   UNL     1       6.183   4.603  17.444  0.00  0.00    +0.000 A 
ENDBRANCH   1   8
BRANCH   1   9
ATOM      9  C   UNL     1       4.679   4.255  19.265  0.00  0.00    +0.000 C 
ATOM     10  O   UNL     1       4.044   3.282  19.648  0.00  0.00    +0.000 OA
BRANCH   9  11
ATOM     11  O   UNL     1       4.205   5.530  19.156  0.00  0.00    +0.000 OA
BRANCH  11  12
ATOM     12  C   UNL     1       2.779   5.754  19.000  0.00  0.00    +0.000 C 
ATOM     13  C   UNL     1       2.013   5.578  20.317  0.00  0.00    +0.000 C 
ATOM     14  C   UNL     1       2.600   7.216  18.549  0.00  0.00    +0.000 C 
ATOM     15  C   UNL     1       2.237   4.855  17.879  0.00  0.00    +0.000 C 
ENDBRANCH  11  12
ENDBRANCH   9  11
ENDBRANCH   1   9
TORSDOF 4
ENDMDL
MODEL 9
REMARK VINA RESULT:      -6.0      1.596      2.791
REMARK  Name = 
REMARK  8 active torsions:
REMARK  status: ('A' for Active; 'I' for Inactive)
REMARK    1  A    between atoms: C_1  and  C_2
REMARK    2  A    between atoms: C_7  and  O_8
REMARK    3  A    between atoms: O_8  and  C_9
REMARK    4  A    between atoms: C_9  and  O_11
REMARK    5  A    between atoms: O_11  and  C_12
REMARK    6  A    between atoms: C_12  and  C_13
REMARK    7  A    between atoms: C_12  and  C_14
REMARK    8  A    between atoms: C_12  and  C_15
REMARK                            x       y       z     vdW  Elec       q    Type
REMARK                         _______ _______ _______ _____ _____    ______ ____
ROOT
ATOM      1  O   UNL     1       5.762   4.172  17.970  0.00  0.00    +0.000 OA
ENDROOT
BRANCH   1   8
ATOM      2  C   UNL     1       5.202   6.141  15.764  0.00  0.00    +0.000 C 
ATOM      3  C   UNL     1       6.230   6.323  16.838  0.00  0.00    +0.000 A 
ATOM      4  N   UNL     1       6.876   7.521  16.815  0.00  0.00    +0.000 NA
ATOM      5  C   UNL     1       7.808   7.756  17.763  0.00  0.00    +0.000 A 
ATOM      6  C   UNL     1       8.159   6.838  18.738  0.00  0.00    +0.000 A 
ATOM      7  C   UNL     1       7.499   5.611  18.756  0.00  0.00    +0.000 A 
ATOM      8  C   UNL     1       6.521   5.346  17.797  0.00  0.00    +0.000 A 
ENDBRANCH   1   8
BRANCH   1   9
ATOM      9  C   UNL     1       5.020   4.058  19.135  0.00  0.00    +0.000 C 
ATOM     10  O   UNL     1       4.903   3.040  19.803  0.00  0.00    +0.000 OA
BRANCH   9  11
ATOM     11  O   UNL     1       4.378   5.241  19.358  0.00  0.00    +0.000 OA
BRANCH  11  12
ATOM     12  C   UNL     1       2.951   5.342  19.108  0.00  0.00    +0.000 C 
ATOM     13  C   UNL     1       2.116   5.027  20.355  0.00  0.00    +0.000 C 
ATOM     14  C   UNL     1       2.666   6.803  18.713  0.00  0.00    +0.000 C 
ATOM     15  C   UNL     1       2.576   4.457  17.909  0.00  0.00    +0.000 C 
ENDBRANCH  11  12
ENDBRANCH   9  11
ENDBRANCH   1   9
TORSDOF 4
ENDMDL
