MODEL 1
REMARK VINA RESULT:      -8.1      0.000      0.000
REMARK  Name = 
REMARK  12 active torsions:
REMARK  status: ('A' for Active; 'I' for Inactive)
REMARK    1  A    between atoms: C_1  and  C_2
REMARK    2  A    between atoms: C_2  and  O_3
REMARK    3  A    between atoms: O_3  and  C_4
REMARK    4  A    between atoms: C_4  and  C_6
REMARK    5  A    between atoms: C_6  and  C_7
REMARK    6  A    between atoms: C_6  and  N_8
REMARK    7  A    between atoms: C_9  and  C_11
REMARK    8  A    between atoms: C_11  and  C_12
REMARK    9  A    between atoms: C_11  and  N_22
REMARK   10  A    between atoms: C_12  and  C_13
REMARK   11  A    between atoms: C_16  and  N_17
REMARK   12  A    between atoms: C_23  and  C_25
REMARK                            x       y       z     vdW  Elec       q    Type
REMARK                         _______ _______ _______ _____ _____    ______ ____
ROOT
ATOM      1  C   UNL     1       2.570   6.807  18.751  0.00  0.00    +0.000 C 
ENDROOT
BRANCH   1   3
ATOM      2  N   UNL     1       1.769   4.476  19.099  0.00  0.00    +0.000 N 
ATOM      3  C   UNL     1       1.958   5.716  19.666  0.00  0.00    +0.000 C 
ATOM      4  O   UNL     1       1.617   5.944  20.827  0.00  0.00    +0.000 OA
ATOM      5  H   UNL     1       1.559   4.518  18.097  0.00  0.00    +0.000 HD
BRANCH   2   6
ATOM      6  C   UNL     1       1.155   3.425  19.894  0.00  0.00    +0.000 C 
ATOM      7  C   UNL     1       0.606   2.291  19.039  0.00  0.00    +0.000 C 
BRANCH   6   8
ATOM      8  C   UNL     1       2.139   2.796  20.907  0.00  0.00    +0.000 C 
ATOM      9  O   UNL     1       1.720   2.237  21.915  0.00  0.00    +0.000 OA
BRANCH   8  10
ATOM     10  O   UNL     1       3.477   2.918  20.642  0.00  0.00    +0.000 OA
BRANCH  10  12
ATOM     11  C   UNL     1       4.539   2.899  18.404  0.00  0.00    +0.000 C 
ATOM     12  C   UNL     1       3.962   2.077  19.558  0.00  0.00    +0.000 C 
ENDBRANCH  10  12
ENDBRANCH   8  10
ENDBRANCH   6   8
ENDBRANCH   2   6
ENDBRANCH   1   3
BRANCH   1  13
ATOM     13  N   UNL     1       1.806   7.983  19.158  0.00  0.00    +0.000 N 
ATOM     14  C   UNL     1       1.627   9.053  18.308  0.00  0.00    +0.000 C 
ATOM     15  O   UNL     1       2.078   9.111  17.166  0.00  0.00    +0.000 OA
ATOM     16  H   UNL     1       1.173   7.886  19.941  0.00  0.00    +0.000 HD
BRANCH  14  17
ATOM     17  C   UNL     1       0.767  10.142  18.829  0.00  0.00    +0.000 A 
ATOM     18  C   UNL     1       1.338  10.900  19.904  0.00  0.00    +0.000 A 
ATOM     19  C   UNL     1       0.546  11.833  20.543  0.00  0.00    +0.000 A 
ATOM     20  C   UNL     1      -0.761  12.005  20.085  0.00  0.00    +0.000 A 
ATOM     21  C   UNL     1      -1.337  11.215  19.052  0.00  0.00    +0.000 A 
ATOM     22  C   UNL     1      -2.689  11.274  18.770  0.00  0.00    +0.000 A 
ATOM     23  C   UNL     1      -3.278  10.404  17.825  0.00  0.00    +0.000 A 
ATOM     24  C   UNL     1      -2.682   9.985  16.649  0.00  0.00    +0.000 A 
ATOM     25  C   UNL     1      -1.372   9.791  17.079  0.00  0.00    +0.000 A 
ATOM     26  C   UNL     1      -0.600  10.337  18.291  0.00  0.00    +0.000 A 
ENDBRANCH  14  17
ENDBRANCH   1  13
BRANCH   1  27
ATOM     27  C   UNL     1       4.117   6.959  18.983  0.00  0.00    +0.000 C 
BRANCH  27  28
ATOM     28  C   UNL     1       5.052   6.686  17.805  0.00  0.00    +0.000 A 
ATOM     29  C   UNL     1       4.640   6.797  16.485  0.00  0.00    +0.000 A 
ATOM     30  C   UNL     1       5.076   5.916  15.509  0.00  0.00    +0.000 A 
ATOM     31  C   UNL     1       6.318   5.363  15.691  0.00  0.00    +0.000 A 
ATOM     32  C   UNL     1       6.961   5.502  16.930  0.00  0.00    +0.000 A 
ATOM     33  C   UNL     1       6.295   6.114  18.001  0.00  0.00    +0.000 A 
BRANCH  31  34
ATOM     34  N   UNL     1       7.006   4.809  14.529  0.00  0.00    +0.000 N 
ATOM     35  O   UNL     1       6.530   3.801  13.983  0.00  0.00    +0.000 OA
ATOM     36  O   UNL     1       7.990   5.435  14.112  0.00  0.00    +0.000 OA
ENDBRANCH  31  34
ENDBRANCH  27  28
ENDBRANCH   1  27
TORSDOF 10
ENDMDL
MODEL 2
REMARK VINA RESULT:      -8.1      1.633      2.161
REMARK  Name = 
REMARK  12 active torsions:
REMARK  status: ('A' for Active; 'I' for Inactive)
REMARK    1  A    between atoms: C_1  and  C_2
REMARK    2  A    between atoms: C_2  and  O_3
REMARK    3  A    between atoms: O_3  and  C_4
REMARK    4  A    between atoms: C_4  and  C_6
REMARK    5  A    between atoms: C_6  and  C_7
REMARK    6  A    between atoms: C_6  and  N_8
REMARK    7  A    between atoms: C_9  and  C_11
REMARK    8  A    between atoms: C_11  and  C_12
REMARK    9  A    between atoms: C_11  and  N_22
REMARK   10  A    between atoms: C_12  and  C_13
REMARK   11  A    between atoms: C_16  and  N_17
REMARK   12  A    between atoms: C_23  and  C_25
REMARK                            x       y       z     vdW  Elec       q    Type
REMARK                         _______ _______ _______ _____ _____    ______ ____
ROOT
ATOM      1  C   UNL     1       2.683   6.704  18.877  0.00  0.00    +0.000 C 
ENDROOT
BRANCH   1   3
ATOM      2  N   UNL     1       1.763   4.428  19.286  0.00  0.00    +0.000 N 
ATOM      3  C   UNL     1       1.940   5.696  19.790  0.00  0.00    +0.000 C 
ATOM      4  O   UNL     1       1.492   6.011  20.893  0.00  0.00    +0.000 OA
ATOM      5  H   UNL     1       1.658   4.410  18.267  0.00  0.00    +0.000 HD
BRANCH   2   6
ATOM      6  C   UNL     1       1.033   3.451  20.077  0.00  0.00    +0.000 C 
ATOM      7  C   UNL     1       0.591   2.247  19.256  0.00  0.00    +0.000 C 
BRANCH   6   8
ATOM      8  C   UNL     1       1.860   2.913  21.267  0.00  0.00    +0.000 C 
ATOM      9  O   UNL     1       1.309   2.334  22.196  0.00  0.00    +0.000 OA
BRANCH   8  10
ATOM     10  O   UNL     1       3.211   3.136  21.244  0.00  0.00    +0.000 OA
BRANCH  10  12
ATOM     11  C   UNL     1       4.548   2.322  19.324  0.00  0.00    +0.000 C 
ATOM     12  C   UNL     1       4.002   2.031  20.723  0.00  0.00    +0.000 C 
ENDBRANCH  10  12
ENDBRANCH   8  10
ENDBRANCH   6   8
ENDBRANCH   2   6
ENDBRANCH   1   3
BRANCH   1  13
ATOM     13  N   UNL     1       2.162   7.975  19.372  0.00  0.00    +0.000 N 
ATOM     14  C   UNL     1       1.810   8.993  18.510  0.00  0.00    +0.000 C 
ATOM     15  O   UNL     1       1.899   8.922  17.286  0.00  0.00    +0.000 OA
ATOM     16  H   UNL     1       1.788   7.999  20.312  0.00  0.00    +0.000 HD
BRANCH  14  17
ATOM     17  C   UNL     1       1.226  10.195  19.149  0.00  0.00    +0.000 A 
ATOM     18  C   UNL     1       1.509  11.432  18.481  0.00  0.00    +0.000 A 
ATOM     19  C   UNL     1       1.129  12.610  19.092  0.00  0.00    +0.000 A 
ATOM     20  C   UNL     1       0.463  12.527  20.315  0.00  0.00    +0.000 A 
ATOM     21  C   UNL     1       0.231  11.301  20.998  0.00  0.00    +0.000 A 
ATOM     22  C   UNL     1      -0.243  11.278  22.295  0.00  0.00    +0.000 A 
ATOM     23  C   UNL     1      -0.361  10.064  23.010  0.00  0.00    +0.000 A 
ATOM     24  C   UNL     1      -0.747   8.853  22.464  0.00  0.00    +0.000 A 
ATOM     25  C   UNL     1      -0.084   8.900  21.240  0.00  0.00    +0.000 A 
ATOM     26  C   UNL     1       0.479  10.075  20.424  0.00  0.00    +0.000 A 
ENDBRANCH  14  17
ENDBRANCH   1  13
BRANCH   1  27
ATOM     27  C   UNL     1       4.243   6.575  19.017  0.00  0.00    +0.000 C 
BRANCH  27  28
ATOM     28  C   UNL     1       5.002   5.813  17.930  0.00  0.00    +0.000 A 
ATOM     29  C   UNL     1       6.371   5.946  17.745  0.00  0.00    +0.000 A 
ATOM     30  C   UNL     1       6.938   5.953  16.482  0.00  0.00    +0.000 A 
ATOM     31  C   UNL     1       6.280   5.242  15.510  0.00  0.00    +0.000 A 
ATOM     32  C   UNL     1       4.982   4.772  15.757  0.00  0.00    +0.000 A 
ATOM     33  C   UNL     1       4.327   5.114  16.948  0.00  0.00    +0.000 A 
BRANCH  31  34
ATOM     34  N   UNL     1       7.028   4.840  14.322  0.00  0.00    +0.000 N 
ATOM     35  O   UNL     1       6.637   3.850  13.683  0.00  0.00    +0.000 OA
ATOM     36  O   UNL     1       7.970   5.568  13.982  0.00  0.00    +0.000 OA
ENDBRANCH  31  34
ENDBRANCH  27  28
ENDBRANCH   1  27
TORSDOF 10
ENDMDL
MODEL 3
REMARK VINA RESULT:      -8.0      1.735      2.390
REMARK  Name = 
REMARK  12 active torsions:
REMARK  status: ('A' for Active; 'I' for Inactive)
REMARK    1  A    between atoms: C_1  and  C_2
REMARK    2  A    between atoms: C_2  and  O_3
REMARK    3  A    between atoms: O_3  and  C_4
REMARK    4  A    between atoms: C_4  and  C_6
REMARK    5  A    between atoms: C_6  and  C_7
REMARK    6  A    between atoms: C_6  and  N_8
REMARK    7  A    between atoms: C_9  and  C_11
REMARK    8  A    between atoms: C_11  and  C_12
REMARK    9  A    between atoms: C_11  and  N_22
REMARK   10  A    between atoms: C_12  and  C_13
REMARK   11  A    between atoms: C_16  and  N_17
REMARK   12  A    between atoms: C_23  and  C_25
REMARK                            x       y       z     vdW  Elec       q    Type
REMARK                         _______ _______ _______ _____ _____    ______ ____
ROOT
ATOM      1  C   UNL     1       3.057   6.285  17.818  0.00  0.00    +0.000 C 
ENDROOT
BRANCH   1   3
ATOM      2  N   UNL     1       3.075   3.815  18.128  0.00  0.00    +0.000 N 
ATOM      3  C   UNL     1       2.320   4.922  17.816  0.00  0.00    +0.000 C 
ATOM      4  O   UNL     1       1.131   4.816  17.512  0.00  0.00    +0.000 OA
ATOM      5  H   UNL     1       4.053   3.899  17.835  0.00  0.00    +0.000 HD
BRANCH   2   6
ATOM      6  C   UNL     1       2.450   2.504  18.097  0.00  0.00    +0.000 C 
ATOM      7  C   UNL     1       3.462   1.371  18.199  0.00  0.00    +0.000 C 
BRANCH   6   8
ATOM      8  C   UNL     1       1.428   2.306  19.240  0.00  0.00    +0.000 C 
ATOM      9  O   UNL     1       0.225   2.287  19.002  0.00  0.00    +0.000 OA
BRANCH   8  10
ATOM     10  O   UNL     1       1.922   2.184  20.511  0.00  0.00    +0.000 OA
BRANCH  10  12
ATOM     11  C   UNL     1       2.230   4.467  21.423  0.00  0.00    +0.000 C 
ATOM     12  C   UNL     1       1.420   3.170  21.457  0.00  0.00    +0.000 C 
ENDBRANCH  10  12
ENDBRANCH   8  10
ENDBRANCH   6   8
ENDBRANCH   2   6
ENDBRANCH   1   3
BRANCH   1  13
ATOM     13  N   UNL     1       2.368   6.982  18.900  0.00  0.00    +0.000 N 
ATOM     14  C   UNL     1       1.994   8.304  18.780  0.00  0.00    +0.000 C 
ATOM     15  O   UNL     1       2.201   8.992  17.782  0.00  0.00    +0.000 OA
ATOM     16  H   UNL     1       1.910   6.421  19.606  0.00  0.00    +0.000 HD
BRANCH  14  17
ATOM     17  C   UNL     1       1.236   8.857  19.927  0.00  0.00    +0.000 A 
ATOM     18  C   UNL     1       1.157   7.996  21.071  0.00  0.00    +0.000 A 
ATOM     19  C   UNL     1       0.346   8.373  22.122  0.00  0.00    +0.000 A 
ATOM     20  C   UNL     1      -0.331   9.589  22.023  0.00  0.00    +0.000 A 
ATOM     21  C   UNL     1      -0.289  10.414  20.865  0.00  0.00    +0.000 A 
ATOM     22  C   UNL     1      -1.131  11.501  20.725  0.00  0.00    +0.000 A 
ATOM     23  C   UNL     1      -1.170  12.248  19.526  0.00  0.00    +0.000 A 
ATOM     24  C   UNL     1      -0.073  12.537  18.733  0.00  0.00    +0.000 A 
ATOM     25  C   UNL     1       0.619  11.330  18.801  0.00  0.00    +0.000 A 
ATOM     26  C   UNL     1       0.567  10.175  19.814  0.00  0.00    +0.000 A 
ENDBRANCH  14  17
ENDBRANCH   1  13
BRANCH   1  27
ATOM     27  C   UNL     1       4.598   6.111  18.073  0.00  0.00    +0.000 C 
BRANCH  27  28
ATOM     28  C   UNL     1       5.505   5.867  16.866  0.00  0.00    +0.000 A 
ATOM     29  C   UNL     1       5.286   6.468  15.636  0.00  0.00    +0.000 A 
ATOM     30  C   UNL     1       5.503   5.794  14.445  0.00  0.00    +0.000 A 
ATOM     31  C   UNL     1       6.470   4.821  14.459  0.00  0.00    +0.000 A 
ATOM     32  C   UNL     1       6.997   4.387  15.685  0.00  0.00    +0.000 A 
ATOM     33  C   UNL     1       6.465   4.873  16.888  0.00  0.00    +0.000 A 
BRANCH  31  34
ATOM     34  N   UNL     1       7.051   4.405  13.186  0.00  0.00    +0.000 N 
ATOM     35  O   UNL     1       6.565   3.422  12.606  0.00  0.00    +0.000 OA
ATOM     36  O   UNL     1       7.955   5.116  12.726  0.00  0.00    +0.000 OA
ENDBRANCH  31  34
ENDBRANCH  27  28
ENDBRANCH   1  27
TORSDOF 10
ENDMDL
MODEL 4
REMARK VINA RESULT:      -8.0      4.036      9.957
REMARK  Name = 
REMARK  12 active torsions:
REMARK  status: ('A' for Active; 'I' for Inactive)
REMARK    1  A    between atoms: C_1  and  C_2
REMARK    2  A    between atoms: C_2  and  O_3
REMARK    3  A    between atoms: O_3  and  C_4
REMARK    4  A    between atoms: C_4  and  C_6
REMARK    5  A    between atoms: C_6  and  C_7
REMARK    6  A    between atoms: C_6  and  N_8
REMARK    7  A    between atoms: C_9  and  C_11
REMARK    8  A    between atoms: C_11  and  C_12
REMARK    9  A    between atoms: C_11  and  N_22
REMARK   10  A    between atoms: C_12  and  C_13
REMARK   11  A    between atoms: C_16  and  N_17
REMARK   12  A    between atoms: C_23  and  C_25
REMARK                            x       y       z     vdW  Elec       q    Type
REMARK                         _______ _______ _______ _____ _____    ______ ____
ROOT
ATOM      1  C   UNL     1      -0.274  10.294  20.018  0.00  0.00    +0.000 C 
ENDROOT
BRANCH   1   3
ATOM      2  N   UNL     1      -1.970  10.232  18.196  0.00  0.00    +0.000 N 
ATOM      3  C   UNL     1      -0.950  10.945  18.785  0.00  0.00    +0.000 C 
ATOM      4  O   UNL     1      -0.578  12.024  18.322  0.00  0.00    +0.000 OA
ATOM      5  H   UNL     1      -1.847   9.218  18.270  0.00  0.00    +0.000 HD
BRANCH   2   6
ATOM      6  C   UNL     1      -2.612  10.770  17.008  0.00  0.00    +0.000 C 
ATOM      7  C   UNL     1      -2.688   9.757  15.875  0.00  0.00    +0.000 C 
BRANCH   6   8
ATOM      8  C   UNL     1      -4.052  11.258  17.282  0.00  0.00    +0.000 C 
ATOM      9  O   UNL     1      -4.653  11.923  16.446  0.00  0.00    +0.000 OA
BRANCH   8  10
ATOM     10  O   UNL     1      -4.603  10.940  18.495  0.00  0.00    +0.000 OA
BRANCH  10  12
ATOM     11  C   UNL     1      -3.907  12.704  20.088  0.00  0.00    +0.000 C 
ATOM     12  C   UNL     1      -5.047  12.082  19.281  0.00  0.00    +0.000 C 
ENDBRANCH  10  12
ENDBRANCH   8  10
ENDBRANCH   6   8
ENDBRANCH   2   6
ENDBRANCH   1   3
BRANCH   1  13
ATOM     13  N   UNL     1       0.652   9.364  19.378  0.00  0.00    +0.000 N 
ATOM     14  C   UNL     1       1.334   8.412  20.106  0.00  0.00    +0.000 C 
ATOM     15  O   UNL     1       1.225   8.265  21.322  0.00  0.00    +0.000 OA
ATOM     16  H   UNL     1       0.570   9.229  18.378  0.00  0.00    +0.000 HD
BRANCH  14  17
ATOM     17  C   UNL     1       2.181   7.491  19.314  0.00  0.00    +0.000 A 
ATOM     18  C   UNL     1       2.945   8.117  18.273  0.00  0.00    +0.000 A 
ATOM     19  C   UNL     1       3.643   7.311  17.396  0.00  0.00    +0.000 A 
ATOM     20  C   UNL     1       3.588   5.930  17.591  0.00  0.00    +0.000 A 
ATOM     21  C   UNL     1       2.788   5.313  18.592  0.00  0.00    +0.000 A 
ATOM     22  C   UNL     1       2.599   3.945  18.620  0.00  0.00    +0.000 A 
ATOM     23  C   UNL     1       1.711   3.347  19.543  0.00  0.00    +0.000 A 
ATOM     24  C   UNL     1       1.521   3.764  20.848  0.00  0.00    +0.000 A 
ATOM     25  C   UNL     1       1.557   5.147  20.684  0.00  0.00    +0.000 A 
ATOM     26  C   UNL     1       2.143   6.032  19.572  0.00  0.00    +0.000 A 
ENDBRANCH  14  17
ENDBRANCH   1  13
BRANCH   1  27
ATOM     27  C   UNL     1       0.442  11.362  20.920  0.00  0.00    +0.000 C 
BRANCH  27  28
ATOM     28  C   UNL     1      -0.349  11.975  22.076  0.00  0.00    +0.000 A 
ATOM     29  C   UNL     1      -1.177  11.221  22.895  0.00  0.00    +0.000 A 
ATOM     30  C   UNL     1      -2.384  11.713  23.364  0.00  0.00    +0.000 A 
ATOM     31  C   UNL     1      -2.467  13.072  23.537  0.00  0.00    +0.000 A 
ATOM     32  C   UNL     1      -1.462  13.898  23.012  0.00  0.00    +0.000 A 
ATOM     33  C   UNL     1      -0.437  13.346  22.231  0.00  0.00    +0.000 A 
BRANCH  31  34
ATOM     34  N   UNL     1      -3.502  13.594  24.424  0.00  0.00    +0.000 N 
ATOM     35  O   UNL     1      -4.330  12.801  24.900  0.00  0.00    +0.000 OA
ATOM     36  O   UNL     1      -3.439  14.798  24.708  0.00  0.00    +0.000 OA
ENDBRANCH  31  34
ENDBRANCH  27  28
ENDBRANCH   1  27
TORSDOF 10
ENDMDL
MODEL 5
REMARK VINA RESULT:      -7.9      1.802      2.375
REMARK  Name = 
REMARK  12 active torsions:
REMARK  status: ('A' for Active; 'I' for Inactive)
REMARK    1  A    between atoms: C_1  and  C_2
REMARK    2  A    between atoms: C_2  and  O_3
REMARK    3  A    between atoms: O_3  and  C_4
REMARK    4  A    between atoms: C_4  and  C_6
REMARK    5  A    between atoms: C_6  and  C_7
REMARK    6  A    between atoms: C_6  and  N_8
REMARK    7  A    between atoms: C_9  and  C_11
REMARK    8  A    between atoms: C_11  and  C_12
REMARK    9  A    between atoms: C_11  and  N_22
REMARK   10  A    between atoms: C_12  and  C_13
REMARK   11  A    between atoms: C_16  and  N_17
REMARK   12  A    between atoms: C_23  and  C_25
REMARK                            x       y       z     vdW  Elec       q    Type
REMARK                         _______ _______ _______ _____ _____    ______ ____
ROOT
ATOM      1  C   UNL     1       3.202   6.430  18.294  0.00  0.00    +0.000 C 
ENDROOT
BRANCH   1   3
ATOM      2  N   UNL     1       3.693   4.068  18.909  0.00  0.00    +0.000 N 
ATOM      3  C   UNL     1       2.718   5.018  18.711  0.00  0.00    +0.000 C 
ATOM      4  O   UNL     1       1.524   4.736  18.822  0.00  0.00    +0.000 OA
ATOM      5  H   UNL     1       4.513   4.201  18.308  0.00  0.00    +0.000 HD
BRANCH   2   6
ATOM      6  C   UNL     1       3.298   2.713  19.255  0.00  0.00    +0.000 C 
ATOM      7  C   UNL     1       3.508   1.732  18.109  0.00  0.00    +0.000 C 
BRANCH   6   8
ATOM      8  C   UNL     1       4.072   2.163  20.474  0.00  0.00    +0.000 C 
ATOM      9  O   UNL     1       5.218   1.746  20.347  0.00  0.00    +0.000 OA
BRANCH   8  10
ATOM     10  O   UNL     1       3.416   2.138  21.676  0.00  0.00    +0.000 OA
BRANCH  10  12
ATOM     11  C   UNL     1       1.001   2.691  21.635  0.00  0.00    +0.000 C 
ATOM     12  C   UNL     1       2.429   3.194  21.853  0.00  0.00    +0.000 C 
ENDBRANCH  10  12
ENDBRANCH   8  10
ENDBRANCH   6   8
ENDBRANCH   2   6
ENDBRANCH   1   3
BRANCH   1  13
ATOM     13  N   UNL     1       2.514   7.268  19.273  0.00  0.00    +0.000 N 
ATOM     14  C   UNL     1       1.827   8.401  18.892  0.00  0.00    +0.000 C 
ATOM     15  O   UNL     1       1.734   8.794  17.730  0.00  0.00    +0.000 OA
ATOM     16  H   UNL     1       2.299   6.862  20.174  0.00  0.00    +0.000 HD
BRANCH  14  17
ATOM     17  C   UNL     1       1.116   9.110  19.981  0.00  0.00    +0.000 A 
ATOM     18  C   UNL     1       0.793   8.300  21.120  0.00  0.00    +0.000 A 
ATOM     19  C   UNL     1       0.002   8.845  22.111  0.00  0.00    +0.000 A 
ATOM     20  C   UNL     1      -0.415  10.169  21.961  0.00  0.00    +0.000 A 
ATOM     21  C   UNL     1      -0.134  10.950  20.806  0.00  0.00    +0.000 A 
ATOM     22  C   UNL     1      -0.736  12.178  20.605  0.00  0.00    +0.000 A 
ATOM     23  C   UNL     1      -0.545  12.898  19.404  0.00  0.00    +0.000 A 
ATOM     24  C   UNL     1       0.637  12.954  18.688  0.00  0.00    +0.000 A 
ATOM     25  C   UNL     1       1.074  11.637  18.809  0.00  0.00    +0.000 A 
ATOM     26  C   UNL     1       0.728  10.531  19.819  0.00  0.00    +0.000 A 
ENDBRANCH  14  17
ENDBRANCH   1  13
BRANCH   1  27
ATOM     27  C   UNL     1       4.767   6.551  18.363  0.00  0.00    +0.000 C 
BRANCH  27  28
ATOM     28  C   UNL     1       5.563   6.337  17.075  0.00  0.00    +0.000 A 
ATOM     29  C   UNL     1       5.026   6.578  15.818  0.00  0.00    +0.000 A 
ATOM     30  C   UNL     1       5.313   5.766  14.734  0.00  0.00    +0.000 A 
ATOM     31  C   UNL     1       6.536   5.144  14.741  0.00  0.00    +0.000 A 
ATOM     32  C   UNL     1       7.308   5.148  15.912  0.00  0.00    +0.000 A 
ATOM     33  C   UNL     1       6.787   5.696  17.093  0.00  0.00    +0.000 A 
BRANCH  31  34
ATOM     34  N   UNL     1       7.073   4.661  13.472  0.00  0.00    +0.000 N 
ATOM     35  O   UNL     1       6.582   3.637  12.972  0.00  0.00    +0.000 OA
ATOM     36  O   UNL     1       7.943   5.358  12.932  0.00  0.00    +0.000 OA
ENDBRANCH  31  34
ENDBRANCH  27  28
ENDBRANCH   1  27
TORSDOF 10
ENDMDL
MODEL 6
REMARK VINA RESULT:      -7.8      1.424      1.725
REMARK  Name = 
REMARK  12 active torsions:
REMARK  status: ('A' for Active; 'I' for Inactive)
REMARK    1  A    between atoms: C_1  and  C_2
REMARK    2  A    between atoms: C_2  and  O_3
REMARK    3  A    between atoms: O_3  and  C_4
REMARK    4  A    between atoms: C_4  and  C_6
REMARK    5  A    between atoms: C_6  and  C_7
REMARK    6  A    between atoms: C_6  and  N_8
REMARK    7  A    between atoms: C_9  and  C_11
REMARK    8  A    between atoms: C_11  and  C_12
REMARK    9  A    between atoms: C_11  and  N_22
REMARK   10  A    between atoms: C_12  and  C_13
REMARK   11  A    between atoms: C_16  and  N_17
REMARK   12  A    between atoms: C_23  and  C_25
REMARK                            x       y       z     vdW  Elec       q    Type
REMARK                         _______ _______ _______ _____ _____    ______ ____
ROOT
ATOM      1  C   UNL     1       2.753   6.541  18.616  0.00  0.00    +0.000 C 
ENDROOT
BRANCH   1   3
ATOM      2  N   UNL     1       1.623   4.827  20.024  0.00  0.00    +0.000 N 
ATOM      3  C   UNL     1       1.949   5.223  18.747  0.00  0.00    +0.000 C 
ATOM      4  O   UNL     1       1.647   4.536  17.771  0.00  0.00    +0.000 OA
ATOM      5  H   UNL     1       2.321   5.104  20.722  0.00  0.00    +0.000 HD
BRANCH   2   6
ATOM      6  C   UNL     1       0.910   3.575  20.213  0.00  0.00    +0.000 C 
ATOM      7  C   UNL     1       0.588   2.881  18.897  0.00  0.00    +0.000 C 
BRANCH   6   8
ATOM      8  C   UNL     1       1.701   2.567  21.079  0.00  0.00    +0.000 C 
ATOM      9  O   UNL     1       1.532   2.524  22.292  0.00  0.00    +0.000 OA
BRANCH   8  10
ATOM     10  O   UNL     1       2.602   1.760  20.438  0.00  0.00    +0.000 OA
BRANCH  10  12
ATOM     11  C   UNL     1       4.513   2.683  19.160  0.00  0.00    +0.000 C 
ATOM     12  C   UNL     1       3.985   2.208  20.514  0.00  0.00    +0.000 C 
ENDBRANCH  10  12
ENDBRANCH   8  10
ENDBRANCH   6   8
ENDBRANCH   2   6
ENDBRANCH   1   3
BRANCH   1  13
ATOM     13  N   UNL     1       2.092   7.380  19.612  0.00  0.00    +0.000 N 
ATOM     14  C   UNL     1       1.693   8.667  19.318  0.00  0.00    +0.000 C 
ATOM     15  O   UNL     1       1.853   9.206  18.225  0.00  0.00    +0.000 OA
ATOM     16  H   UNL     1       1.669   6.922  20.409  0.00  0.00    +0.000 HD
BRANCH  14  17
ATOM     17  C   UNL     1       0.968   9.371  20.402  0.00  0.00    +0.000 A 
ATOM     18  C   UNL     1       1.069   8.757  21.694  0.00  0.00    +0.000 A 
ATOM     19  C   UNL     1       0.302   9.266  22.724  0.00  0.00    +0.000 A 
ATOM     20  C   UNL     1      -0.506  10.371  22.453  0.00  0.00    +0.000 A 
ATOM     21  C   UNL     1      -0.640  10.943  21.158  0.00  0.00    +0.000 A 
ATOM     22  C   UNL     1      -1.603  11.897  20.889  0.00  0.00    +0.000 A 
ATOM     23  C   UNL     1      -1.811  12.378  19.576  0.00  0.00    +0.000 A 
ATOM     24  C   UNL     1      -0.814  12.597  18.642  0.00  0.00    +0.000 A 
ATOM     25  C   UNL     1       0.007  11.497  18.879  0.00  0.00    +0.000 A 
ATOM     26  C   UNL     1       0.155  10.573  20.098  0.00  0.00    +0.000 A 
ENDBRANCH  14  17
ENDBRANCH   1  13
BRANCH   1  27
ATOM     27  C   UNL     1       4.282   6.321  18.906  0.00  0.00    +0.000 C 
BRANCH  27  28
ATOM     28  C   UNL     1       5.227   6.171  17.712  0.00  0.00    +0.000 A 
ATOM     29  C   UNL     1       4.917   6.659  16.451  0.00  0.00    +0.000 A 
ATOM     30  C   UNL     1       5.256   5.970  15.299  0.00  0.00    +0.000 A 
ATOM     31  C   UNL     1       6.376   5.179  15.364  0.00  0.00    +0.000 A 
ATOM     32  C   UNL     1       6.959   4.909  16.611  0.00  0.00    +0.000 A 
ATOM     33  C   UNL     1       6.343   5.360  17.786  0.00  0.00    +0.000 A 
BRANCH  31  34
ATOM     34  N   UNL     1       7.030   4.801  14.115  0.00  0.00    +0.000 N 
ATOM     35  O   UNL     1       6.519   3.903  13.427  0.00  0.00    +0.000 OA
ATOM     36  O   UNL     1       8.022   5.463  13.781  0.00  0.00    +0.000 OA
ENDBRANCH  31  34
ENDBRANCH  27  28
ENDBRANCH   1  27
TORSDOF 10
ENDMDL
MODEL 7
REMARK VINA RESULT:      -7.8      1.586      2.050
REMARK  Name = 
REMARK  12 active torsions:
REMARK  status: ('A' for Active; 'I' for Inactive)
REMARK    1  A    between atoms: C_1  and  C_2
REMARK    2  A    between atoms: C_2  and  O_3
REMARK    3  A    between atoms: O_3  and  C_4
REMARK    4  A    between atoms: C_4  and  C_6
REMARK    5  A    between atoms: C_6  and  C_7
REMARK    6  A    between atoms: C_6  and  N_8
REMARK    7  A    between atoms: C_9  and  C_11
REMARK    8  A    between atoms: C_11  and  C_12
REMARK    9  A    between atoms: C_11  and  N_22
REMARK   10  A    between atoms: C_12  and  C_13
REMARK   11  A    between atoms: C_16  and  N_17
REMARK   12  A    between atoms: C_23  and  C_25
REMARK                            x       y       z     vdW  Elec       q    Type
REMARK                         _______ _______ _______ _____ _____    ______ ____
ROOT
ATOM      1  C   UNL     1       2.812   6.760  18.845  0.00  0.00    +0.000 C 
ENDROOT
BRANCH   1   3
ATOM      2  N   UNL     1       1.945   4.464  19.260  0.00  0.00    +0.000 N 
ATOM      3  C   UNL     1       2.096   5.736  19.761  0.00  0.00    +0.000 C 
ATOM      4  O   UNL     1       1.645   6.042  20.866  0.00  0.00    +0.000 OA
ATOM      5  H   UNL     1       1.837   4.443  18.241  0.00  0.00    +0.000 HD
BRANCH   2   6
ATOM      6  C   UNL     1       1.240   3.472  20.054  0.00  0.00    +0.000 C 
ATOM      7  C   UNL     1       0.597   2.388  19.200  0.00  0.00    +0.000 C 
BRANCH   6   8
ATOM      8  C   UNL     1       2.162   2.763  21.072  0.00  0.00    +0.000 C 
ATOM      9  O   UNL     1       1.685   2.135  22.011  0.00  0.00    +0.000 OA
BRANCH   8  10
ATOM     10  O   UNL     1       3.514   2.892  20.892  0.00  0.00    +0.000 OA
BRANCH  10  12
ATOM     11  C   UNL     1       3.980   1.746  18.746  0.00  0.00    +0.000 C 
ATOM     12  C   UNL     1       4.157   1.747  20.265  0.00  0.00    +0.000 C 
ENDBRANCH  10  12
ENDBRANCH   8  10
ENDBRANCH   6   8
ENDBRANCH   2   6
ENDBRANCH   1   3
BRANCH   1  13
ATOM     13  N   UNL     1       2.260   8.019  19.336  0.00  0.00    +0.000 N 
ATOM     14  C   UNL     1       1.900   9.032  18.473  0.00  0.00    +0.000 C 
ATOM     15  O   UNL     1       2.007   8.967  17.250  0.00  0.00    +0.000 OA
ATOM     16  H   UNL     1       1.874   8.032  20.271  0.00  0.00    +0.000 HD
BRANCH  14  17
ATOM     17  C   UNL     1       1.284  10.221  19.108  0.00  0.00    +0.000 A 
ATOM     18  C   UNL     1       1.562  11.467  18.454  0.00  0.00    +0.000 A 
ATOM     19  C   UNL     1       1.151  12.635  19.065  0.00  0.00    +0.000 A 
ATOM     20  C   UNL     1       0.462  12.533  20.274  0.00  0.00    +0.000 A 
ATOM     21  C   UNL     1       0.235  11.299  20.943  0.00  0.00    +0.000 A 
ATOM     22  C   UNL     1      -0.265  11.260  22.231  0.00  0.00    +0.000 A 
ATOM     23  C   UNL     1      -0.379  10.039  22.935  0.00  0.00    +0.000 A 
ATOM     24  C   UNL     1      -0.734   8.826  22.373  0.00  0.00    +0.000 A 
ATOM     25  C   UNL     1      -0.047   8.892  21.163  0.00  0.00    +0.000 A 
ATOM     26  C   UNL     1       0.514  10.081  20.367  0.00  0.00    +0.000 A 
ENDBRANCH  14  17
ENDBRANCH   1  13
BRANCH   1  27
ATOM     27  C   UNL     1       4.375   6.671  18.983  0.00  0.00    +0.000 C 
BRANCH  27  28
ATOM     28  C   UNL     1       5.203   6.514  17.707  0.00  0.00    +0.000 A 
ATOM     29  C   UNL     1       4.637   6.563  16.441  0.00  0.00    +0.000 A 
ATOM     30  C   UNL     1       5.073   5.741  15.415  0.00  0.00    +0.000 A 
ATOM     31  C   UNL     1       6.389   5.354  15.456  0.00  0.00    +0.000 A 
ATOM     32  C   UNL     1       7.141   5.583  16.618  0.00  0.00    +0.000 A 
ATOM     33  C   UNL     1       6.523   6.110  17.760  0.00  0.00    +0.000 A 
BRANCH  31  34
ATOM     34  N   UNL     1       7.012   4.888  14.220  0.00  0.00    +0.000 N 
ATOM     35  O   UNL     1       8.008   5.493  13.794  0.00  0.00    +0.000 OA
ATOM     36  O   UNL     1       6.545   3.859  13.713  0.00  0.00    +0.000 OA
ENDBRANCH  31  34
ENDBRANCH  27  28
ENDBRANCH   1  27
TORSDOF 10
ENDMDL
MODEL 8
REMARK VINA RESULT:      -7.7      0.966      1.021
REMARK  Name = 
REMARK  12 active torsions:
REMARK  status: ('A' for Active; 'I' for Inactive)
REMARK    1  A    between atoms: C_1  and  C_2
REMARK    2  A    between atoms: C_2  and  O_3
REMARK    3  A    between atoms: O_3  and  C_4
REMARK    4  A    between atoms: C_4  and  C_6
REMARK    5  A    between atoms: C_6  and  C_7
REMARK    6  A    between atoms: C_6  and  N_8
REMARK    7  A    between atoms: C_9  and  C_11
REMARK    8  A    between atoms: C_11  and  C_12
REMARK    9  A    between atoms: C_11  and  N_22
REMARK   10  A    between atoms: C_12  and  C_13
REMARK   11  A    between atoms: C_16  and  N_17
REMARK   12  A    between atoms: C_23  and  C_25
REMARK                            x       y       z     vdW  Elec       q    Type
REMARK                         _______ _______ _______ _____ _____    ______ ____
ROOT
ATOM      1  C   UNL     1       2.722   6.634  18.430  0.00  0.00    +0.000 C 
ENDROOT
BRANCH   1   3
ATOM      2  N   UNL     1       2.890   5.033  20.328  0.00  0.00    +0.000 N 
ATOM      3  C   UNL     1       2.197   5.394  19.195  0.00  0.00    +0.000 C 
ATOM      4  O   UNL     1       1.238   4.731  18.799  0.00  0.00    +0.000 OA
ATOM      5  H   UNL     1       3.890   5.250  20.276  0.00  0.00    +0.000 HD
BRANCH   2   6
ATOM      6  C   UNL     1       2.473   3.850  21.063  0.00  0.00    +0.000 C 
ATOM      7  C   UNL     1       0.975   3.599  20.965  0.00  0.00    +0.000 C 
BRANCH   6   8
ATOM      8  C   UNL     1       3.184   2.568  20.574  0.00  0.00    +0.000 C 
ATOM      9  O   UNL     1       4.157   2.127  21.177  0.00  0.00    +0.000 OA
BRANCH   8  10
ATOM     10  O   UNL     1       2.699   1.975  19.438  0.00  0.00    +0.000 OA
BRANCH  10  12
ATOM     11  C   UNL     1       4.004   2.887  17.540  0.00  0.00    +0.000 C 
ATOM     12  C   UNL     1       3.705   1.678  18.428  0.00  0.00    +0.000 C 
ENDBRANCH  10  12
ENDBRANCH   8  10
ENDBRANCH   6   8
ENDBRANCH   2   6
ENDBRANCH   1   3
BRANCH   1  13
ATOM     13  N   UNL     1       1.888   7.692  18.993  0.00  0.00    +0.000 N 
ATOM     14  C   UNL     1       1.692   8.884  18.328  0.00  0.00    +0.000 C 
ATOM     15  O   UNL     1       2.186   9.154  17.235  0.00  0.00    +0.000 OA
ATOM     16  H   UNL     1       1.228   7.438  19.717  0.00  0.00    +0.000 HD
BRANCH  14  17
ATOM     17  C   UNL     1       0.761   9.833  18.983  0.00  0.00    +0.000 A 
ATOM     18  C   UNL     1       1.225  10.370  20.230  0.00  0.00    +0.000 A 
ATOM     19  C   UNL     1       0.357  11.142  20.975  0.00  0.00    +0.000 A 
ATOM     20  C   UNL     1      -0.916  11.381  20.457  0.00  0.00    +0.000 A 
ATOM     21  C   UNL     1      -1.387  10.804  19.245  0.00  0.00    +0.000 A 
ATOM     22  C   UNL     1      -2.715  10.896  18.873  0.00  0.00    +0.000 A 
ATOM     23  C   UNL     1      -3.204  10.223  17.730  0.00  0.00    +0.000 A 
ATOM     24  C   UNL     1      -2.508  10.058  16.546  0.00  0.00    +0.000 A 
ATOM     25  C   UNL     1      -1.228   9.803  17.033  0.00  0.00    +0.000 A 
ATOM     26  C   UNL     1      -0.567  10.109  18.387  0.00  0.00    +0.000 A 
ENDBRANCH  14  17
ENDBRANCH   1  13
BRANCH   1  27
ATOM     27  C   UNL     1       4.259   6.860  18.672  0.00  0.00    +0.000 C 
BRANCH  27  28
ATOM     28  C   UNL     1       5.218   6.583  17.514  0.00  0.00    +0.000 A 
ATOM     29  C   UNL     1       4.897   6.867  16.195  0.00  0.00    +0.000 A 
ATOM     30  C   UNL     1       5.277   6.035  15.156  0.00  0.00    +0.000 A 
ATOM     31  C   UNL     1       6.431   5.316  15.337  0.00  0.00    +0.000 A 
ATOM     32  C   UNL     1       7.016   5.257  16.610  0.00  0.00    +0.000 A 
ATOM     33  C   UNL     1       6.371   5.844  17.707  0.00  0.00    +0.000 A 
BRANCH  31  34
ATOM     34  N   UNL     1       7.111   4.791  14.156  0.00  0.00    +0.000 N 
ATOM     35  O   UNL     1       6.615   3.816  13.571  0.00  0.00    +0.000 OA
ATOM     36  O   UNL     1       8.110   5.410  13.766  0.00  0.00    +0.000 OA
ENDBRANCH  31  34
ENDBRANCH  27  28
ENDBRANCH   1  27
TORSDOF 10
ENDMDL
MODEL 9
REMARK VINA RESULT:      -7.6      1.566      2.022
REMARK  Name = 
REMARK  12 active torsions:
REMARK  status: ('A' for Active; 'I' for Inactive)
REMARK    1  A    between atoms: C_1  and  C_2
REMARK    2  A    between atoms: C_2  and  O_3
REMARK    3  A    between atoms: O_3  and  C_4
REMARK    4  A    between atoms: C_4  and  C_6
REMARK    5  A    between atoms: C_6  and  C_7
REMARK    6  A    between atoms: C_6  and  N_8
REMARK    7  A    between atoms: C_9  and  C_11
REMARK    8  A    between atoms: C_11  and  C_12
REMARK    9  A    between atoms: C_11  and  N_22
REMARK   10  A    between atoms: C_12  and  C_13
REMARK   11  A    between atoms: C_16  and  N_17
REMARK   12  A    between atoms: C_23  and  C_25
REMARK                            x       y       z     vdW  Elec       q    Type
REMARK                         _______ _______ _______ _____ _____    ______ ____
ROOT
ATOM      1  C   UNL     1       2.899   6.331  19.100  0.00  0.00    +0.000 C 
ENDROOT
BRANCH   1   3
ATOM      2  N   UNL     1       2.940   3.984  19.929  0.00  0.00    +0.000 N 
ATOM      3  C   UNL     1       2.160   5.020  19.470  0.00  0.00    +0.000 C 
ATOM      4  O   UNL     1       0.944   4.886  19.328  0.00  0.00    +0.000 OA
ATOM      5  H   UNL     1       3.880   3.975  19.520  0.00  0.00    +0.000 HD
BRANCH   2   6
ATOM      6  C   UNL     1       2.309   2.714  20.249  0.00  0.00    +0.000 C 
ATOM      7  C   UNL     1       1.419   2.797  21.481  0.00  0.00    +0.000 C 
BRANCH   6   8
ATOM      8  C   UNL     1       1.436   2.178  19.091  0.00  0.00    +0.000 C 
ATOM      9  O   UNL     1       0.242   1.963  19.261  0.00  0.00    +0.000 OA
BRANCH   8  10
ATOM     10  O   UNL     1       2.060   1.933  17.896  0.00  0.00    +0.000 OA
BRANCH  10  12
ATOM     11  C   UNL     1       4.305   2.660  17.142  0.00  0.00    +0.000 C 
ATOM     12  C   UNL     1       3.491   1.685  17.995  0.00  0.00    +0.000 C 
ENDBRANCH  10  12
ENDBRANCH   8  10
ENDBRANCH   6   8
ENDBRANCH   2   6
ENDBRANCH   1   3
BRANCH   1  13
ATOM     13  N   UNL     1       2.268   7.283  20.009  0.00  0.00    +0.000 N 
ATOM     14  C   UNL     1       1.656   8.427  19.541  0.00  0.00    +0.000 C 
ATOM     15  O   UNL     1       1.589   8.736  18.353  0.00  0.00    +0.000 OA
ATOM     16  H   UNL     1       2.026   6.960  20.937  0.00  0.00    +0.000 HD
BRANCH  14  17
ATOM     17  C   UNL     1       0.993   9.260  20.571  0.00  0.00    +0.000 A 
ATOM     18  C   UNL     1       1.126   8.779  21.916  0.00  0.00    +0.000 A 
ATOM     19  C   UNL     1       0.414   9.413  22.914  0.00  0.00    +0.000 A 
ATOM     20  C   UNL     1      -0.374  10.509  22.560  0.00  0.00    +0.000 A 
ATOM     21  C   UNL     1      -0.543  10.949  21.218  0.00  0.00    +0.000 A 
ATOM     22  C   UNL     1      -1.489  11.901  20.886  0.00  0.00    +0.000 A 
ATOM     23  C   UNL     1      -1.734  12.250  19.539  0.00  0.00    +0.000 A 
ATOM     24  C   UNL     1      -0.769  12.342  18.552  0.00  0.00    +0.000 A 
ATOM     25  C   UNL     1       0.031  11.247  18.872  0.00  0.00    +0.000 A 
ATOM     26  C   UNL     1       0.201  10.448  20.174  0.00  0.00    +0.000 A 
ENDBRANCH  14  17
ENDBRANCH   1  13
BRANCH   1  27
ATOM     27  C   UNL     1       4.451   6.202  19.314  0.00  0.00    +0.000 C 
BRANCH  27  28
ATOM     28  C   UNL     1       5.345   6.134  18.075  0.00  0.00    +0.000 A 
ATOM     29  C   UNL     1       4.940   6.607  16.836  0.00  0.00    +0.000 A 
ATOM     30  C   UNL     1       5.274   5.954  15.661  0.00  0.00    +0.000 A 
ATOM     31  C   UNL     1       6.451   5.249  15.664  0.00  0.00    +0.000 A 
ATOM     32  C   UNL     1       7.112   5.014  16.878  0.00  0.00    +0.000 A 
ATOM     33  C   UNL     1       6.521   5.408  18.086  0.00  0.00    +0.000 A 
BRANCH  31  34
ATOM     34  N   UNL     1       7.070   4.932  14.380  0.00  0.00    +0.000 N 
ATOM     35  O   UNL     1       8.058   5.589  14.020  0.00  0.00    +0.000 OA
ATOM     36  O   UNL     1       6.608   3.963  13.762  0.00  0.00    +0.000 OA
ENDBRANCH  31  34
ENDBRANCH  27  28
ENDBRANCH   1  27
TORSDOF 10
ENDMDL
