MODEL 1
REMARK VINA RESULT:      -7.6      0.000      0.000
REMARK  Name = 
REMARK  2 active torsions:
REMARK  status: ('A' for Active; 'I' for Inactive)
REMARK    1  A    between atoms: C_1  and  N_2
REMARK    2  A    between atoms: N_14  and  C_15
REMARK                            x       y       z     vdW  Elec       q    Type
REMARK                         _______ _______ _______ _____ _____    ______ ____
ROOT
ATOM      1  C   UNL     1       2.319   9.557  17.808  0.00  0.00    +0.000 C 
ATOM      2  N   UNL     1       1.878   8.781  18.972  0.00  0.00    +0.000 N 
ATOM      3  C   UNL     1       1.045   9.223  19.960  0.00  0.00    +0.000 A 
ATOM      4  C   UNL     1       0.418  10.473  20.095  0.00  0.00    +0.000 A 
ATOM      5  C   UNL     1      -0.389  10.693  21.231  0.00  0.00    +0.000 A 
ATOM      6  C   UNL     1      -0.556   9.683  22.202  0.00  0.00    +0.000 A 
ATOM      7  C   UNL     1       0.070   8.439  22.047  0.00  0.00    +0.000 A 
ATOM      8  C   UNL     1       0.853   8.248  20.916  0.00  0.00    +0.000 A 
ATOM      9  C   UNL     1       1.573   7.169  20.506  0.00  0.00    +0.000 A 
ATOM     10  N   UNL     1       1.694   5.968  21.115  0.00  0.00    +0.000 NA
ATOM     11  C   UNL     1       2.482   5.033  20.529  0.00  0.00    +0.000 A 
ATOM     12  N   UNL     1       3.144   5.319  19.375  0.00  0.00    +0.000 NA
ATOM     13  C   UNL     1       3.056   6.525  18.733  0.00  0.00    +0.000 A 
ATOM     14  N   UNL     1       3.812   6.744  17.535  0.00  0.00    +0.000 N 
ATOM     15  C   UNL     1       2.205   7.496  19.323  0.00  0.00    +0.000 A 
ATOM     16  H   UNL     1       3.535   7.512  16.916  0.00  0.00    +0.000 HD
ENDROOT
BRANCH  14  17
ATOM     17  C   UNL     1       4.985   6.007  17.141  0.00  0.00    +0.000 A 
ATOM     18  C   UNL     1       6.153   5.911  17.939  0.00  0.00    +0.000 A 
ATOM     19  C   UNL     1       7.280   5.227  17.484  0.00  0.00    +0.000 A 
ATOM     20  C   UNL     1       7.278   4.629  16.229  0.00  0.00    +0.000 A 
ATOM     21  C   UNL     1       6.143   4.710  15.420  0.00  0.00    +0.000 A 
ATOM     22 BR   UNL     1       6.160   3.903  13.690  0.00  0.00    +0.000 Br
ATOM     23  C   UNL     1       5.005   5.393  15.872  0.00  0.00    +0.000 A 
ENDBRANCH  14  17
TORSDOF 1
ENDMDL
MODEL 2
REMARK VINA RESULT:      -7.1      2.613      4.437
REMARK  Name = 
REMARK  2 active torsions:
REMARK  status: ('A' for Active; 'I' for Inactive)
REMARK    1  A    between atoms: C_1  and  N_2
REMARK    2  A    between atoms: N_14  and  C_15
REMARK                            x       y       z     vdW  Elec       q    Type
REMARK                         _______ _______ _______ _____ _____    ______ ____
ROOT
ATOM      1  C   UNL     1       0.295   9.195  23.040  0.00  0.00    +0.000 C 
ATOM      2  N   UNL     1       0.274   9.967  21.794  0.00  0.00    +0.000 N 
ATOM      3  C   UNL     1      -0.303  11.193  21.621  0.00  0.00    +0.000 A 
ATOM      4  C   UNL     1      -0.981  11.992  22.557  0.00  0.00    +0.000 A 
ATOM      5  C   UNL     1      -1.510  13.224  22.121  0.00  0.00    +0.000 A 
ATOM      6  C   UNL     1      -1.362  13.637  20.780  0.00  0.00    +0.000 A 
ATOM      7  C   UNL     1      -0.676  12.832  19.861  0.00  0.00    +0.000 A 
ATOM      8  C   UNL     1      -0.159  11.626  20.320  0.00  0.00    +0.000 A 
ATOM      9  C   UNL     1       0.536  10.653  19.671  0.00  0.00    +0.000 A 
ATOM     10  N   UNL     1       0.922  10.629  18.376  0.00  0.00    +0.000 NA
ATOM     11  C   UNL     1       1.602   9.541  17.934  0.00  0.00    +0.000 A 
ATOM     12  N   UNL     1       1.858   8.504  18.777  0.00  0.00    +0.000 NA
ATOM     13  C   UNL     1       1.476   8.487  20.091  0.00  0.00    +0.000 A 
ATOM     14  N   UNL     1       1.768   7.337  20.896  0.00  0.00    +0.000 N 
ATOM     15  C   UNL     1       0.795   9.637  20.568  0.00  0.00    +0.000 A 
ATOM     16  H   UNL     1       1.743   7.436  21.915  0.00  0.00    +0.000 HD
ENDROOT
BRANCH  14  17
ATOM     17  C   UNL     1       2.041   6.014  20.395  0.00  0.00    +0.000 A 
ATOM     18  C   UNL     1       1.160   4.917  20.564  0.00  0.00    +0.000 A 
ATOM     19  C   UNL     1       1.500   3.645  20.104  0.00  0.00    +0.000 A 
ATOM     20  C   UNL     1       2.721   3.430  19.474  0.00  0.00    +0.000 A 
ATOM     21  C   UNL     1       3.610   4.492  19.297  0.00  0.00    +0.000 A 
ATOM     22 BR   UNL     1       5.292   4.181  18.449  0.00  0.00    +0.000 Br
ATOM     23  C   UNL     1       3.273   5.774  19.754  0.00  0.00    +0.000 A 
ENDBRANCH  14  17
TORSDOF 1
ENDMDL
MODEL 3
REMARK VINA RESULT:      -7.1      5.060      9.340
REMARK  Name = 
REMARK  2 active torsions:
REMARK  status: ('A' for Active; 'I' for Inactive)
REMARK    1  A    between atoms: C_1  and  N_2
REMARK    2  A    between atoms: N_14  and  C_15
REMARK                            x       y       z     vdW  Elec       q    Type
REMARK                         _______ _______ _______ _____ _____    ______ ____
ROOT
ATOM      1  C   UNL     1      -0.292  11.882  18.712  0.00  0.00    +0.000 C 
ATOM      2  N   UNL     1       0.184  10.787  19.564  0.00  0.00    +0.000 N 
ATOM      3  C   UNL     1       0.958   9.737  19.159  0.00  0.00    +0.000 A 
ATOM      4  C   UNL     1       1.480   9.462  17.884  0.00  0.00    +0.000 A 
ATOM      5  C   UNL     1       2.243   8.288  17.718  0.00  0.00    +0.000 A 
ATOM      6  C   UNL     1       2.470   7.415  18.803  0.00  0.00    +0.000 A 
ATOM      7  C   UNL     1       1.949   7.709  20.071  0.00  0.00    +0.000 A 
ATOM      8  C   UNL     1       1.207   8.876  20.208  0.00  0.00    +0.000 A 
ATOM      9  C   UNL     1       0.584   9.411  21.293  0.00  0.00    +0.000 A 
ATOM     10  N   UNL     1       0.546   8.926  22.554  0.00  0.00    +0.000 NA
ATOM     11  C   UNL     1      -0.153   9.623  23.484  0.00  0.00    +0.000 A 
ATOM     12  N   UNL     1      -0.811  10.761  23.136  0.00  0.00    +0.000 NA
ATOM     13  C   UNL     1      -0.805  11.279  21.869  0.00  0.00    +0.000 A 
ATOM     14  N   UNL     1      -1.551  12.472  21.591  0.00  0.00    +0.000 N 
ATOM     15  C   UNL     1      -0.047  10.573  20.899  0.00  0.00    +0.000 A 
ATOM     16  H   UNL     1      -1.323  13.004  20.746  0.00  0.00    +0.000 HD
ENDROOT
BRANCH  14  17
ATOM     17  C   UNL     1      -2.653  12.970  22.373  0.00  0.00    +0.000 A 
ATOM     18  C   UNL     1      -2.491  13.673  23.593  0.00  0.00    +0.000 A 
ATOM     19  C   UNL     1      -3.596  14.086  24.337  0.00  0.00    +0.000 A 
ATOM     20  C   UNL     1      -4.884  13.807  23.894  0.00  0.00    +0.000 A 
ATOM     21  C   UNL     1      -5.074  13.112  22.698  0.00  0.00    +0.000 A 
ATOM     22 BR   UNL     1      -6.846  12.715  22.110  0.00  0.00    +0.000 Br
ATOM     23  C   UNL     1      -3.967  12.697  21.943  0.00  0.00    +0.000 A 
ENDBRANCH  14  17
TORSDOF 1
ENDMDL
MODEL 4
REMARK VINA RESULT:      -7.1      3.009      4.921
REMARK  Name = 
REMARK  2 active torsions:
REMARK  status: ('A' for Active; 'I' for Inactive)
REMARK    1  A    between atoms: C_1  and  N_2
REMARK    2  A    between atoms: N_14  and  C_15
REMARK                            x       y       z     vdW  Elec       q    Type
REMARK                         _______ _______ _______ _____ _____    ______ ____
ROOT
ATOM      1  C   UNL     1       0.169   9.418  23.271  0.00  0.00    +0.000 C 
ATOM      2  N   UNL     1      -0.217  10.210  22.099  0.00  0.00    +0.000 N 
ATOM      3  C   UNL     1      -1.062  11.284  22.102  0.00  0.00    +0.000 A 
ATOM      4  C   UNL     1      -1.734  11.878  23.184  0.00  0.00    +0.000 A 
ATOM      5  C   UNL     1      -2.576  12.978  22.920  0.00  0.00    +0.000 A 
ATOM      6  C   UNL     1      -2.740  13.461  21.605  0.00  0.00    +0.000 A 
ATOM      7  C   UNL     1      -2.057  12.861  20.538  0.00  0.00    +0.000 A 
ATOM      8  C   UNL     1      -1.228  11.784  20.828  0.00  0.00    +0.000 A 
ATOM      9  C   UNL     1      -0.456  11.013  20.015  0.00  0.00    +0.000 A 
ATOM     10  N   UNL     1      -0.290  11.121  18.678  0.00  0.00    +0.000 NA
ATOM     11  C   UNL     1       0.525  10.228  18.063  0.00  0.00    +0.000 A 
ATOM     12  N   UNL     1       1.130   9.244  18.782  0.00  0.00    +0.000 NA
ATOM     13  C   UNL     1       0.979   9.095  20.135  0.00  0.00    +0.000 A 
ATOM     14  N   UNL     1       1.635   8.010  20.803  0.00  0.00    +0.000 N 
ATOM     15  C   UNL     1       0.155  10.048  20.788  0.00  0.00    +0.000 A 
ATOM     16  H   UNL     1       1.756   8.064  21.819  0.00  0.00    +0.000 HD
ENDROOT
BRANCH  14  17
ATOM     17  C   UNL     1       2.099   6.800  20.174  0.00  0.00    +0.000 A 
ATOM     18  C   UNL     1       2.882   6.782  18.992  0.00  0.00    +0.000 A 
ATOM     19  C   UNL     1       3.258   5.578  18.398  0.00  0.00    +0.000 A 
ATOM     20  C   UNL     1       2.863   4.367  18.955  0.00  0.00    +0.000 A 
ATOM     21  C   UNL     1       2.089   4.354  20.116  0.00  0.00    +0.000 A 
ATOM     22 BR   UNL     1       1.535   2.685  20.860  0.00  0.00    +0.000 Br
ATOM     23  C   UNL     1       1.709   5.560  20.722  0.00  0.00    +0.000 A 
ENDBRANCH  14  17
TORSDOF 1
ENDMDL
MODEL 5
REMARK VINA RESULT:      -7.0      5.211      9.431
REMARK  Name = 
REMARK  2 active torsions:
REMARK  status: ('A' for Active; 'I' for Inactive)
REMARK    1  A    between atoms: C_1  and  N_2
REMARK    2  A    between atoms: N_14  and  C_15
REMARK                            x       y       z     vdW  Elec       q    Type
REMARK                         _______ _______ _______ _____ _____    ______ ____
ROOT
ATOM      1  C   UNL     1       0.031  11.975  18.792  0.00  0.00    +0.000 C 
ATOM      2  N   UNL     1       0.432  10.817  19.600  0.00  0.00    +0.000 N 
ATOM      3  C   UNL     1       1.131   9.733  19.151  0.00  0.00    +0.000 A 
ATOM      4  C   UNL     1       1.629   9.471  17.864  0.00  0.00    +0.000 A 
ATOM      5  C   UNL     1       2.309   8.254  17.649  0.00  0.00    +0.000 A 
ATOM      6  C   UNL     1       2.477   7.327  18.699  0.00  0.00    +0.000 A 
ATOM      7  C   UNL     1       1.980   7.607  19.979  0.00  0.00    +0.000 A 
ATOM      8  C   UNL     1       1.321   8.817  20.165  0.00  0.00    +0.000 A 
ATOM      9  C   UNL     1       0.739   9.351  21.273  0.00  0.00    +0.000 A 
ATOM     10  N   UNL     1       0.671   8.821  22.514  0.00  0.00    +0.000 NA
ATOM     11  C   UNL     1       0.024   9.528  23.474  0.00  0.00    +0.000 A 
ATOM     12  N   UNL     1      -0.554  10.722  23.173  0.00  0.00    +0.000 NA
ATOM     13  C   UNL     1      -0.515  11.287  21.926  0.00  0.00    +0.000 A 
ATOM     14  N   UNL     1      -1.177  12.538  21.698  0.00  0.00    +0.000 N 
ATOM     15  C   UNL     1       0.190  10.569  20.927  0.00  0.00    +0.000 A 
ATOM     16  H   UNL     1      -0.914  13.086  20.873  0.00  0.00    +0.000 HD
ENDROOT
BRANCH  14  17
ATOM     17  C   UNL     1      -2.240  13.081  22.505  0.00  0.00    +0.000 A 
ATOM     18  C   UNL     1      -3.594  12.678  22.387  0.00  0.00    +0.000 A 
ATOM     19  C   UNL     1      -4.591  13.276  23.158  0.00  0.00    +0.000 A 
ATOM     20  C   UNL     1      -4.271  14.288  24.056  0.00  0.00    +0.000 A 
ATOM     21  C   UNL     1      -2.946  14.708  24.190  0.00  0.00    +0.000 A 
ATOM     22 BR   UNL     1      -2.522  16.113  25.411  0.00  0.00    +0.000 Br
ATOM     23  C   UNL     1      -1.938  14.109  23.421  0.00  0.00    +0.000 A 
ENDBRANCH  14  17
TORSDOF 1
ENDMDL
MODEL 6
REMARK VINA RESULT:      -7.0      3.116      4.535
REMARK  Name = 
REMARK  2 active torsions:
REMARK  status: ('A' for Active; 'I' for Inactive)
REMARK    1  A    between atoms: C_1  and  N_2
REMARK    2  A    between atoms: N_14  and  C_15
REMARK                            x       y       z     vdW  Elec       q    Type
REMARK                         _______ _______ _______ _____ _____    ______ ____
ROOT
ATOM      1  C   UNL     1       0.616   9.043  22.432  0.00  0.00    +0.000 C 
ATOM      2  N   UNL     1       0.880   9.600  21.101  0.00  0.00    +0.000 N 
ATOM      3  C   UNL     1       0.610  10.878  20.700  0.00  0.00    +0.000 A 
ATOM      4  C   UNL     1       0.049  11.936  21.435  0.00  0.00    +0.000 A 
ATOM      5  C   UNL     1      -0.148  13.168  20.779  0.00  0.00    +0.000 A 
ATOM      6  C   UNL     1       0.206  13.329  19.423  0.00  0.00    +0.000 A 
ATOM      7  C   UNL     1       0.773  12.265  18.707  0.00  0.00    +0.000 A 
ATOM      8  C   UNL     1       0.962  11.064  19.380  0.00  0.00    +0.000 A 
ATOM      9  C   UNL     1       1.475   9.878  18.953  0.00  0.00    +0.000 A 
ATOM     10  N   UNL     1       1.958   9.573  17.729  0.00  0.00    +0.000 NA
ATOM     11  C   UNL     1       2.412   8.312  17.518  0.00  0.00    +0.000 A 
ATOM     12  N   UNL     1       2.353   7.388  18.515  0.00  0.00    +0.000 NA
ATOM     13  C   UNL     1       1.862   7.655  19.765  0.00  0.00    +0.000 A 
ATOM     14  N   UNL     1       1.816   6.608  20.744  0.00  0.00    +0.000 N 
ATOM     15  C   UNL     1       1.419   8.982  20.001  0.00  0.00    +0.000 A 
ATOM     16  H   UNL     1       1.725   6.866  21.731  0.00  0.00    +0.000 HD
ENDROOT
BRANCH  14  17
ATOM     17  C   UNL     1       1.828   5.196  20.458  0.00  0.00    +0.000 A 
ATOM     18  C   UNL     1       0.653   4.430  20.253  0.00  0.00    +0.000 A 
ATOM     19  C   UNL     1       0.721   3.055  20.032  0.00  0.00    +0.000 A 
ATOM     20  C   UNL     1       1.952   2.407  20.015  0.00  0.00    +0.000 A 
ATOM     21  C   UNL     1       3.125   3.136  20.218  0.00  0.00    +0.000 A 
ATOM     22 BR   UNL     1       4.808   2.233  20.214  0.00  0.00    +0.000 Br
ATOM     23  C   UNL     1       3.065   4.520  20.437  0.00  0.00    +0.000 A 
ENDBRANCH  14  17
TORSDOF 1
ENDMDL
MODEL 7
REMARK VINA RESULT:      -6.9      3.074      4.912
REMARK  Name = 
REMARK  2 active torsions:
REMARK  status: ('A' for Active; 'I' for Inactive)
REMARK    1  A    between atoms: C_1  and  N_2
REMARK    2  A    between atoms: N_14  and  C_15
REMARK                            x       y       z     vdW  Elec       q    Type
REMARK                         _______ _______ _______ _____ _____    ______ ____
ROOT
ATOM      1  C   UNL     1       4.131   1.782  17.829  0.00  0.00    +0.000 C 
ATOM      2  N   UNL     1       3.717   3.142  18.187  0.00  0.00    +0.000 N 
ATOM      3  C   UNL     1       2.790   3.473  19.135  0.00  0.00    +0.000 A 
ATOM      4  C   UNL     1       2.045   2.630  19.976  0.00  0.00    +0.000 A 
ATOM      5  C   UNL     1       1.126   3.223  20.867  0.00  0.00    +0.000 A 
ATOM      6  C   UNL     1       0.962   4.624  20.906  0.00  0.00    +0.000 A 
ATOM      7  C   UNL     1       1.720   5.451  20.066  0.00  0.00    +0.000 A 
ATOM      8  C   UNL     1       2.622   4.840  19.203  0.00  0.00    +0.000 A 
ATOM      9  C   UNL     1       3.474   5.373  18.286  0.00  0.00    +0.000 A 
ATOM     10  N   UNL     1       3.669   6.677  17.990  0.00  0.00    +0.000 NA
ATOM     11  C   UNL     1       4.568   6.984  17.021  0.00  0.00    +0.000 A 
ATOM     12  N   UNL     1       5.227   5.994  16.361  0.00  0.00    +0.000 NA
ATOM     13  C   UNL     1       5.050   4.662  16.624  0.00  0.00    +0.000 A 
ATOM     14  N   UNL     1       5.771   3.689  15.856  0.00  0.00    +0.000 N 
ATOM     15  C   UNL     1       4.137   4.337  17.660  0.00  0.00    +0.000 A 
ATOM     16  H   UNL     1       5.859   2.740  16.230  0.00  0.00    +0.000 HD
ENDROOT
BRANCH  14  17
ATOM     17  C   UNL     1       6.345   3.911  14.554  0.00  0.00    +0.000 A 
ATOM     18  C   UNL     1       7.147   5.036  14.234  0.00  0.00    +0.000 A 
ATOM     19  C   UNL     1       7.633   5.227  12.941  0.00  0.00    +0.000 A 
ATOM     20  C   UNL     1       7.332   4.314  11.936  0.00  0.00    +0.000 A 
ATOM     21  C   UNL     1       6.541   3.200  12.221  0.00  0.00    +0.000 A 
ATOM     22 BR   UNL     1       6.116   1.965  10.829  0.00  0.00    +0.000 Br
ATOM     23  C   UNL     1       6.052   2.999  13.520  0.00  0.00    +0.000 A 
ENDBRANCH  14  17
TORSDOF 1
ENDMDL
MODEL 8
REMARK VINA RESULT:      -6.8      2.869      4.223
REMARK  Name = 
REMARK  2 active torsions:
REMARK  status: ('A' for Active; 'I' for Inactive)
REMARK    1  A    between atoms: C_1  and  N_2
REMARK    2  A    between atoms: N_14  and  C_15
REMARK                            x       y       z     vdW  Elec       q    Type
REMARK                         _______ _______ _______ _____ _____    ______ ____
ROOT
ATOM      1  C   UNL     1      -0.030   8.925  22.271  0.00  0.00    +0.000 C 
ATOM      2  N   UNL     1       0.343   9.527  20.987  0.00  0.00    +0.000 N 
ATOM      3  C   UNL     1      -0.050  10.754  20.534  0.00  0.00    +0.000 A 
ATOM      4  C   UNL     1      -0.865  11.710  21.163  0.00  0.00    +0.000 A 
ATOM      5  C   UNL     1      -1.144  12.906  20.469  0.00  0.00    +0.000 A 
ATOM      6  C   UNL     1      -0.619  13.130  19.179  0.00  0.00    +0.000 A 
ATOM      7  C   UNL     1       0.199  12.169  18.569  0.00  0.00    +0.000 A 
ATOM      8  C   UNL     1       0.462  11.003  19.278  0.00  0.00    +0.000 A 
ATOM      9  C   UNL     1       1.203   9.911  18.948  0.00  0.00    +0.000 A 
ATOM     10  N   UNL     1       1.903   9.692  17.812  0.00  0.00    +0.000 NA
ATOM     11  C   UNL     1       2.565   8.515  17.689  0.00  0.00    +0.000 A 
ATOM     12  N   UNL     1       2.497   7.583  18.678  0.00  0.00    +0.000 NA
ATOM     13  C   UNL     1       1.791   7.762  19.837  0.00  0.00    +0.000 A 
ATOM     14  N   UNL     1       1.756   6.712  20.812  0.00  0.00    +0.000 N 
ATOM     15  C   UNL     1       1.125   9.006  19.987  0.00  0.00    +0.000 A 
ATOM     16  H   UNL     1       1.481   6.944  21.771  0.00  0.00    +0.000 HD
ENDROOT
BRANCH  14  17
ATOM     17  C   UNL     1       2.020   5.320  20.550  0.00  0.00    +0.000 A 
ATOM     18  C   UNL     1       2.170   4.347  21.570  0.00  0.00    +0.000 A 
ATOM     19  C   UNL     1       2.477   3.022  21.259  0.00  0.00    +0.000 A 
ATOM     20  C   UNL     1       2.649   2.633  19.935  0.00  0.00    +0.000 A 
ATOM     21  C   UNL     1       2.510   3.571  18.910  0.00  0.00    +0.000 A 
ATOM     22 BR   UNL     1       2.769   3.031  17.097  0.00  0.00    +0.000 Br
ATOM     23  C   UNL     1       2.198   4.904  19.215  0.00  0.00    +0.000 A 
ENDBRANCH  14  17
TORSDOF 1
ENDMDL
MODEL 9
REMARK VINA RESULT:      -6.8      2.647      4.180
REMARK  Name = 
REMARK  2 active torsions:
REMARK  status: ('A' for Active; 'I' for Inactive)
REMARK    1  A    between atoms: C_1  and  N_2
REMARK    2  A    between atoms: N_14  and  C_15
REMARK                            x       y       z     vdW  Elec       q    Type
REMARK                         _______ _______ _______ _____ _____    ______ ____
ROOT
ATOM      1  C   UNL     1       0.367   8.734  22.614  0.00  0.00    +0.000 C 
ATOM      2  N   UNL     1       0.327   9.546  21.393  0.00  0.00    +0.000 N 
ATOM      3  C   UNL     1      -0.382  10.702  21.224  0.00  0.00    +0.000 A 
ATOM      4  C   UNL     1      -1.203  11.379  22.141  0.00  0.00    +0.000 A 
ATOM      5  C   UNL     1      -1.848  12.557  21.712  0.00  0.00    +0.000 A 
ATOM      6  C   UNL     1      -1.674  13.035  20.396  0.00  0.00    +0.000 A 
ATOM      7  C   UNL     1      -0.845  12.352  19.497  0.00  0.00    +0.000 A 
ATOM      8  C   UNL     1      -0.216  11.198  19.949  0.00  0.00    +0.000 A 
ATOM      9  C   UNL     1       0.626  10.338  19.314  0.00  0.00    +0.000 A 
ATOM     10  N   UNL     1       1.086  10.409  18.045  0.00  0.00    +0.000 NA
ATOM     11  C   UNL     1       1.914   9.426  17.611  0.00  0.00    +0.000 A 
ATOM     12  N   UNL     1       2.243   8.394  18.436  0.00  0.00    +0.000 NA
ATOM     13  C   UNL     1       1.791   8.282  19.723  0.00  0.00    +0.000 A 
ATOM     14  N   UNL     1       2.171   7.144  20.508  0.00  0.00    +0.000 N 
ATOM     15  C   UNL     1       0.952   9.326  20.192  0.00  0.00    +0.000 A 
ATOM     16  H   UNL     1       2.076   7.200  21.526  0.00  0.00    +0.000 HD
ENDROOT
BRANCH  14  17
ATOM     17  C   UNL     1       2.628   5.883  19.983  0.00  0.00    +0.000 A 
ATOM     18  C   UNL     1       3.964   5.643  19.576  0.00  0.00    +0.000 A 
ATOM     19  C   UNL     1       4.339   4.417  19.026  0.00  0.00    +0.000 A 
ATOM     20  C   UNL     1       3.399   3.406  18.861  0.00  0.00    +0.000 A 
ATOM     21  C   UNL     1       2.075   3.615  19.249  0.00  0.00    +0.000 A 
ATOM     22 BR   UNL     1       0.788   2.227  18.997  0.00  0.00    +0.000 Br
ATOM     23  C   UNL     1       1.691   4.844  19.806  0.00  0.00    +0.000 A 
ENDBRANCH  14  17
TORSDOF 1
ENDMDL
