MODEL 1
REMARK VINA RESULT:      -8.5      0.000      0.000
REMARK  Name = 
REMARK  8 active torsions:
REMARK  status: ('A' for Active; 'I' for Inactive)
REMARK    1  A    between atoms: C_1  and  C_2
REMARK    2  A    between atoms: C_2  and  C_3
REMARK    3  A    between atoms: C_3  and  O_4
REMARK    4  A    between atoms: O_4  and  C_5
REMARK    5  A    between atoms: C_8  and  N_9
REMARK    6  A    between atoms: C_13  and  C_14
REMARK    7  A    between atoms: C_18  and  C_19
REMARK    8  A    between atoms: N_21  and  C_22
REMARK                            x       y       z     vdW  Elec       q    Type
REMARK                         _______ _______ _______ _____ _____    ______ ____
ROOT
ATOM      1  C   UNL     1       6.871   4.975  15.047  0.00  0.00    +0.000 A 
ATOM      2  C   UNL     1       7.538   4.828  13.817  0.00  0.00    +0.000 A 
ATOM      3  C   UNL     1       6.948   4.159  12.744  0.00  0.00    +0.000 A 
ATOM      4  C   UNL     1       5.672   3.623  12.888  0.00  0.00    +0.000 A 
ATOM      5  C   UNL     1       4.987   3.745  14.103  0.00  0.00    +0.000 A 
ATOM      6  C   UNL     1       5.580   4.412  15.199  0.00  0.00    +0.000 A 
ENDROOT
BRANCH   6   7
ATOM      7  C   UNL     1       4.781   4.431  16.474  0.00  0.00    +0.000 A 
ATOM      8  N   UNL     1       4.226   5.542  16.887  0.00  0.00    +0.000 NA
ATOM      9  C   UNL     1       3.488   5.406  18.019  0.00  0.00    +0.000 A 
ATOM     10  C   UNL     1       3.271   4.263  18.746  0.00  0.00    +0.000 A 
ATOM     11  C   UNL     1       2.401   4.627  19.791  0.00  0.00    +0.000 A 
ATOM     12  C   UNL     1       1.810   3.771  20.846  0.00  0.00    +0.000 C 
ATOM     13  N   UNL     1       2.103   5.936  19.740  0.00  0.00    +0.000 NA
ATOM     14  N   UNL     1       2.775   6.386  18.654  0.00  0.00    +0.000 N 
ATOM     15  C   UNL     1       2.664   7.768  18.258  0.00  0.00    +0.000 C 
ATOM     16  C   UNL     1       3.899   3.051  18.308  0.00  0.00    +0.000 A 
ATOM     17  O   UNL     1       3.788   1.964  18.866  0.00  0.00    +0.000 OA
ATOM     18  N   UNL     1       4.646   3.227  17.159  0.00  0.00    +0.000 N 
ATOM     19  H   UNL     1       5.097   2.395  16.803  0.00  0.00    +0.000 HD
ENDBRANCH   6   7
BRANCH   4  20
ATOM     20  N   UNL     1       5.053   2.921  11.757  0.00  0.00    +0.000 N 
ATOM     21  O   UNL     1       5.552   1.842  11.409  0.00  0.00    +0.000 OA
ATOM     22  O   UNL     1       4.072   3.447  11.219  0.00  0.00    +0.000 OA
ENDBRANCH   4  20
BRANCH   1  23
ATOM     23  O   UNL     1       7.434   5.643  16.115  0.00  0.00    +0.000 OA
BRANCH  23  24
ATOM     24  C   UNL     1       7.720   4.850  17.276  0.00  0.00    +0.000 C 
BRANCH  24  26
ATOM     25  C   UNL     1       7.847   7.160  18.218  0.00  0.00    +0.000 C 
ATOM     26  C   UNL     1       7.627   5.689  18.545  0.00  0.00    +0.000 C 
ENDBRANCH  24  26
ENDBRANCH  23  24
ENDBRANCH   1  23
TORSDOF 5
ENDMDL
MODEL 2
REMARK VINA RESULT:      -8.5      0.891      1.217
REMARK  Name = 
REMARK  8 active torsions:
REMARK  status: ('A' for Active; 'I' for Inactive)
REMARK    1  A    between atoms: C_1  and  C_2
REMARK    2  A    between atoms: C_2  and  C_3
REMARK    3  A    between atoms: C_3  and  O_4
REMARK    4  A    between atoms: O_4  and  C_5
REMARK    5  A    between atoms: C_8  and  N_9
REMARK    6  A    between atoms: C_13  and  C_14
REMARK    7  A    between atoms: C_18  and  C_19
REMARK    8  A    between atoms: N_21  and  C_22
REMARK                            x       y       z     vdW  Elec       q    Type
REMARK                         _______ _______ _______ _____ _____    ______ ____
ROOT
ATOM      1  C   UNL     1       6.860   5.054  15.848  0.00  0.00    +0.000 A 
ATOM      2  C   UNL     1       7.641   5.104  14.678  0.00  0.00    +0.000 A 
ATOM      3  C   UNL     1       7.209   4.516  13.489  0.00  0.00    +0.000 A 
ATOM      4  C   UNL     1       5.980   3.866  13.452  0.00  0.00    +0.000 A 
ATOM      5  C   UNL     1       5.186   3.791  14.602  0.00  0.00    +0.000 A 
ATOM      6  C   UNL     1       5.618   4.374  15.815  0.00  0.00    +0.000 A 
ENDROOT
BRANCH   6   7
ATOM      7  C   UNL     1       4.714   4.182  17.002  0.00  0.00    +0.000 A 
ATOM      8  N   UNL     1       4.122   5.211  17.554  0.00  0.00    +0.000 NA
ATOM      9  C   UNL     1       3.292   4.890  18.579  0.00  0.00    +0.000 A 
ATOM     10  C   UNL     1       3.019   3.641  19.076  0.00  0.00    +0.000 A 
ATOM     11  C   UNL     1       2.062   3.829  20.092  0.00  0.00    +0.000 A 
ATOM     12  C   UNL     1       1.387   2.811  20.930  0.00  0.00    +0.000 C 
ATOM     13  N   UNL     1       1.765   5.131  20.243  0.00  0.00    +0.000 NA
ATOM     14  N   UNL     1       2.525   5.754  19.311  0.00  0.00    +0.000 N 
ATOM     15  C   UNL     1       2.443   7.185  19.152  0.00  0.00    +0.000 C 
ATOM     16  C   UNL     1       3.685   2.516  18.490  0.00  0.00    +0.000 A 
ATOM     17  O   UNL     1       3.531   1.351  18.840  0.00  0.00    +0.000 OA
ATOM     18  N   UNL     1       4.526   2.880  17.456  0.00  0.00    +0.000 N 
ATOM     19  H   UNL     1       5.008   2.116  17.000  0.00  0.00    +0.000 HD
ENDBRANCH   6   7
BRANCH   4  20
ATOM     20  N   UNL     1       5.528   3.250  12.199  0.00  0.00    +0.000 N 
ATOM     21  O   UNL     1       4.414   3.579  11.767  0.00  0.00    +0.000 OA
ATOM     22  O   UNL     1       6.284   2.441  11.648  0.00  0.00    +0.000 OA
ENDBRANCH   4  20
BRANCH   1  23
ATOM     23  O   UNL     1       7.266   5.640  17.030  0.00  0.00    +0.000 OA
BRANCH  23  24
ATOM     24  C   UNL     1       7.123   7.065  17.109  0.00  0.00    +0.000 C 
BRANCH  24  26
ATOM     25  C   UNL     1       8.223   9.143  17.952  0.00  0.00    +0.000 C 
ATOM     26  C   UNL     1       8.049   7.647  18.171  0.00  0.00    +0.000 C 
ENDBRANCH  24  26
ENDBRANCH  23  24
ENDBRANCH   1  23
TORSDOF 5
ENDMDL
MODEL 3
REMARK VINA RESULT:      -8.4      1.471      2.174
REMARK  Name = 
REMARK  8 active torsions:
REMARK  status: ('A' for Active; 'I' for Inactive)
REMARK    1  A    between atoms: C_1  and  C_2
REMARK    2  A    between atoms: C_2  and  C_3
REMARK    3  A    between atoms: C_3  and  O_4
REMARK    4  A    between atoms: O_4  and  C_5
REMARK    5  A    between atoms: C_8  and  N_9
REMARK    6  A    between atoms: C_13  and  C_14
REMARK    7  A    between atoms: C_18  and  C_19
REMARK    8  A    between atoms: N_21  and  C_22
REMARK                            x       y       z     vdW  Elec       q    Type
REMARK                         _______ _______ _______ _____ _____    ______ ____
ROOT
ATOM      1  C   UNL     1       6.858   5.104  14.934  0.00  0.00    +0.000 A 
ATOM      2  C   UNL     1       7.597   4.825  13.769  0.00  0.00    +0.000 A 
ATOM      3  C   UNL     1       7.051   4.085  12.719  0.00  0.00    +0.000 A 
ATOM      4  C   UNL     1       5.748   3.609  12.822  0.00  0.00    +0.000 A 
ATOM      5  C   UNL     1       4.991   3.861  13.972  0.00  0.00    +0.000 A 
ATOM      6  C   UNL     1       5.538   4.603  15.044  0.00  0.00    +0.000 A 
ENDROOT
BRANCH   6   7
ATOM      7  C   UNL     1       4.659   4.763  16.255  0.00  0.00    +0.000 A 
ATOM      8  N   UNL     1       4.233   3.710  16.905  0.00  0.00    +0.000 NA
ATOM      9  C   UNL     1       3.498   3.999  18.008  0.00  0.00    +0.000 A 
ATOM     10  C   UNL     1       3.169   5.238  18.496  0.00  0.00    +0.000 A 
ATOM     11  C   UNL     1       2.447   5.009  19.683  0.00  0.00    +0.000 A 
ATOM     12  C   UNL     1       1.889   5.999  20.635  0.00  0.00    +0.000 C 
ATOM     13  N   UNL     1       2.308   3.695  19.920  0.00  0.00    +0.000 NA
ATOM     14  N   UNL     1       2.956   3.102  18.889  0.00  0.00    +0.000 N 
ATOM     15  C   UNL     1       3.047   1.664  18.824  0.00  0.00    +0.000 C 
ATOM     16  C   UNL     1       3.613   6.393  17.772  0.00  0.00    +0.000 A 
ATOM     17  O   UNL     1       3.388   7.553  18.098  0.00  0.00    +0.000 OA
ATOM     18  N   UNL     1       4.352   6.062  16.652  0.00  0.00    +0.000 N 
ATOM     19  H   UNL     1       4.700   6.845  16.116  0.00  0.00    +0.000 HD
ENDBRANCH   6   7
BRANCH   4  20
ATOM     20  N   UNL     1       5.176   2.831  11.716  0.00  0.00    +0.000 N 
ATOM     21  O   UNL     1       5.758   1.788  11.387  0.00  0.00    +0.000 OA
ATOM     22  O   UNL     1       4.148   3.260  11.180  0.00  0.00    +0.000 OA
ENDBRANCH   4  20
BRANCH   1  23
ATOM     23  O   UNL     1       7.377   5.846  15.976  0.00  0.00    +0.000 OA
BRANCH  23  24
ATOM     24  C   UNL     1       7.622   5.132  17.196  0.00  0.00    +0.000 C 
BRANCH  24  26
ATOM     25  C   UNL     1       7.761   7.514  17.935  0.00  0.00    +0.000 C 
ATOM     26  C   UNL     1       7.583   6.074  18.394  0.00  0.00    +0.000 C 
ENDBRANCH  24  26
ENDBRANCH  23  24
ENDBRANCH   1  23
TORSDOF 5
ENDMDL
MODEL 4
REMARK VINA RESULT:      -8.0      3.930      6.656
REMARK  Name = 
REMARK  8 active torsions:
REMARK  status: ('A' for Active; 'I' for Inactive)
REMARK    1  A    between atoms: C_1  and  C_2
REMARK    2  A    between atoms: C_2  and  C_3
REMARK    3  A    between atoms: C_3  and  O_4
REMARK    4  A    between atoms: O_4  and  C_5
REMARK    5  A    between atoms: C_8  and  N_9
REMARK    6  A    between atoms: C_13  and  C_14
REMARK    7  A    between atoms: C_18  and  C_19
REMARK    8  A    between atoms: N_21  and  C_22
REMARK                            x       y       z     vdW  Elec       q    Type
REMARK                         _______ _______ _______ _____ _____    ______ ____
ROOT
ATOM      1  C   UNL     1       3.885   5.757  18.717  0.00  0.00    +0.000 A 
ATOM      2  C   UNL     1       4.429   4.462  18.816  0.00  0.00    +0.000 A 
ATOM      3  C   UNL     1       3.891   3.510  19.682  0.00  0.00    +0.000 A 
ATOM      4  C   UNL     1       2.793   3.842  20.469  0.00  0.00    +0.000 A 
ATOM      5  C   UNL     1       2.236   5.124  20.401  0.00  0.00    +0.000 A 
ATOM      6  C   UNL     1       2.779   6.099  19.533  0.00  0.00    +0.000 A 
ENDROOT
BRANCH   6   7
ATOM      7  C   UNL     1       2.140   7.461  19.584  0.00  0.00    +0.000 A 
ATOM      8  N   UNL     1       1.550   7.872  20.677  0.00  0.00    +0.000 NA
ATOM      9  C   UNL     1       1.068   9.139  20.605  0.00  0.00    +0.000 A 
ATOM     10  C   UNL     1       1.136  10.002  19.540  0.00  0.00    +0.000 A 
ATOM     11  C   UNL     1       0.545  11.203  19.977  0.00  0.00    +0.000 A 
ATOM     12  C   UNL     1       0.391  12.481  19.242  0.00  0.00    +0.000 C 
ATOM     13  N   UNL     1       0.107  11.096  21.242  0.00  0.00    +0.000 NA
ATOM     14  N   UNL     1       0.438   9.833  21.601  0.00  0.00    +0.000 N 
ATOM     15  C   UNL     1       0.149   9.362  22.933  0.00  0.00    +0.000 C 
ATOM     16  C   UNL     1       1.759   9.544  18.333  0.00  0.00    +0.000 A 
ATOM     17  O   UNL     1       1.884  10.213  17.313  0.00  0.00    +0.000 OA
ATOM     18  N   UNL     1       2.232   8.250  18.441  0.00  0.00    +0.000 N 
ATOM     19  H   UNL     1       2.694   7.888  17.617  0.00  0.00    +0.000 HD
ENDBRANCH   6   7
BRANCH   4  20
ATOM     20  N   UNL     1       2.228   2.838  21.379  0.00  0.00    +0.000 N 
ATOM     21  O   UNL     1       3.019   2.177  22.067  0.00  0.00    +0.000 OA
ATOM     22  O   UNL     1       0.999   2.711  21.407  0.00  0.00    +0.000 OA
ENDBRANCH   4  20
BRANCH   1  23
ATOM     23  O   UNL     1       4.396   6.707  17.857  0.00  0.00    +0.000 OA
BRANCH  23  24
ATOM     24  C   UNL     1       5.502   6.291  17.043  0.00  0.00    +0.000 C 
BRANCH  24  26
ATOM     25  C   UNL     1       7.621   6.350  18.365  0.00  0.00    +0.000 C 
ATOM     26  C   UNL     1       6.751   7.102  17.367  0.00  0.00    +0.000 C 
ENDBRANCH  24  26
ENDBRANCH  23  24
ENDBRANCH   1  23
TORSDOF 5
ENDMDL
MODEL 5
REMARK VINA RESULT:      -7.9      3.774      6.586
REMARK  Name = 
REMARK  8 active torsions:
REMARK  status: ('A' for Active; 'I' for Inactive)
REMARK    1  A    between atoms: C_1  and  C_2
REMARK    2  A    between atoms: C_2  and  C_3
REMARK    3  A    between atoms: C_3  and  O_4
REMARK    4  A    between atoms: O_4  and  C_5
REMARK    5  A    between atoms: C_8  and  N_9
REMARK    6  A    between atoms: C_13  and  C_14
REMARK    7  A    between atoms: C_18  and  C_19
REMARK    8  A    between atoms: N_21  and  C_22
REMARK                            x       y       z     vdW  Elec       q    Type
REMARK                         _______ _______ _______ _____ _____    ______ ____
ROOT
ATOM      1  C   UNL     1       2.341   5.564  19.244  0.00  0.00    +0.000 A 
ATOM      2  C   UNL     1       3.101   4.638  18.504  0.00  0.00    +0.000 A 
ATOM      3  C   UNL     1       4.068   5.056  17.588  0.00  0.00    +0.000 A 
ATOM      4  C   UNL     1       4.290   6.416  17.399  0.00  0.00    +0.000 A 
ATOM      5  C   UNL     1       3.543   7.361  18.113  0.00  0.00    +0.000 A 
ATOM      6  C   UNL     1       2.555   6.948  19.036  0.00  0.00    +0.000 A 
ENDROOT
BRANCH   6   7
ATOM      7  C   UNL     1       1.771   8.046  19.702  0.00  0.00    +0.000 A 
ATOM      8  N   UNL     1       0.958   8.794  19.002  0.00  0.00    +0.000 NA
ATOM      9  C   UNL     1       0.272   9.707  19.736  0.00  0.00    +0.000 A 
ATOM     10  C   UNL     1       0.341   9.916  21.091  0.00  0.00    +0.000 A 
ATOM     11  C   UNL     1      -0.596  10.927  21.376  0.00  0.00    +0.000 A 
ATOM     12  C   UNL     1      -0.961  11.510  22.688  0.00  0.00    +0.000 C 
ATOM     13  N   UNL     1      -1.207  11.350  20.257  0.00  0.00    +0.000 NA
ATOM     14  N   UNL     1      -0.663  10.593  19.275  0.00  0.00    +0.000 N 
ATOM     15  C   UNL     1      -1.110  10.746  17.913  0.00  0.00    +0.000 C 
ATOM     16  C   UNL     1       1.250   9.114  21.856  0.00  0.00    +0.000 A 
ATOM     17  O   UNL     1       1.409   9.200  23.069  0.00  0.00    +0.000 OA
ATOM     18  N   UNL     1       1.935   8.202  21.076  0.00  0.00    +0.000 N 
ATOM     19  H   UNL     1       2.579   7.602  21.575  0.00  0.00    +0.000 HD
ENDBRANCH   6   7
BRANCH   4  20
ATOM     20  N   UNL     1       5.309   6.853  16.436  0.00  0.00    +0.000 N 
ATOM     21  O   UNL     1       5.043   6.746  15.231  0.00  0.00    +0.000 OA
ATOM     22  O   UNL     1       6.370   7.301  16.884  0.00  0.00    +0.000 OA
ENDBRANCH   4  20
BRANCH   1  23
ATOM     23  O   UNL     1       1.390   5.168  20.162  0.00  0.00    +0.000 OA
BRANCH  23  24
ATOM     24  C   UNL     1       1.094   3.765  20.199  0.00  0.00    +0.000 C 
BRANCH  24  26
ATOM     25  C   UNL     1       2.740   2.409  21.499  0.00  0.00    +0.000 C 
ATOM     26  C   UNL     1       1.425   3.175  21.564  0.00  0.00    +0.000 C 
ENDBRANCH  24  26
ENDBRANCH  23  24
ENDBRANCH   1  23
TORSDOF 5
ENDMDL
MODEL 6
REMARK VINA RESULT:      -7.6      3.112      5.529
REMARK  Name = 
REMARK  8 active torsions:
REMARK  status: ('A' for Active; 'I' for Inactive)
REMARK    1  A    between atoms: C_1  and  C_2
REMARK    2  A    between atoms: C_2  and  C_3
REMARK    3  A    between atoms: C_3  and  O_4
REMARK    4  A    between atoms: O_4  and  C_5
REMARK    5  A    between atoms: C_8  and  N_9
REMARK    6  A    between atoms: C_13  and  C_14
REMARK    7  A    between atoms: C_18  and  C_19
REMARK    8  A    between atoms: N_21  and  C_22
REMARK                            x       y       z     vdW  Elec       q    Type
REMARK                         _______ _______ _______ _____ _____    ______ ____
ROOT
ATOM      1  C   UNL     1       2.993   4.671  17.676  0.00  0.00    +0.000 A 
ATOM      2  C   UNL     1       3.783   3.756  16.956  0.00  0.00    +0.000 A 
ATOM      3  C   UNL     1       5.109   4.040  16.626  0.00  0.00    +0.000 A 
ATOM      4  C   UNL     1       5.667   5.254  17.016  0.00  0.00    +0.000 A 
ATOM      5  C   UNL     1       4.903   6.188  17.724  0.00  0.00    +0.000 A 
ATOM      6  C   UNL     1       3.557   5.914  18.055  0.00  0.00    +0.000 A 
ENDROOT
BRANCH   6   7
ATOM      7  C   UNL     1       2.812   7.012  18.765  0.00  0.00    +0.000 A 
ATOM      8  N   UNL     1       2.768   8.216  18.253  0.00  0.00    +0.000 NA
ATOM      9  C   UNL     1       2.016   9.094  18.965  0.00  0.00    +0.000 A 
ATOM     10  C   UNL     1       1.321   8.856  20.124  0.00  0.00    +0.000 A 
ATOM     11  C   UNL     1       0.662  10.060  20.435  0.00  0.00    +0.000 A 
ATOM     12  C   UNL     1      -0.259  10.350  21.560  0.00  0.00    +0.000 C 
ATOM     13  N   UNL     1       0.945  11.015  19.534  0.00  0.00    +0.000 NA
ATOM     14  N   UNL     1       1.769  10.403  18.651  0.00  0.00    +0.000 N 
ATOM     15  C   UNL     1       2.260  11.123  17.502  0.00  0.00    +0.000 C 
ATOM     16  C   UNL     1       1.388   7.545  20.699  0.00  0.00    +0.000 A 
ATOM     17  O   UNL     1       0.817   7.201  21.728  0.00  0.00    +0.000 OA
ATOM     18  N   UNL     1       2.166   6.680  19.953  0.00  0.00    +0.000 N 
ATOM     19  H   UNL     1       2.232   5.737  20.312  0.00  0.00    +0.000 HD
ENDBRANCH   6   7
BRANCH   4  20
ATOM     20  N   UNL     1       7.063   5.549  16.669  0.00  0.00    +0.000 N 
ATOM     21  O   UNL     1       7.403   6.740  16.620  0.00  0.00    +0.000 OA
ATOM     22  O   UNL     1       7.816   4.594  16.447  0.00  0.00    +0.000 OA
ENDBRANCH   4  20
BRANCH   1  23
ATOM     23  O   UNL     1       1.684   4.402  18.022  0.00  0.00    +0.000 OA
BRANCH  23  24
ATOM     24  C   UNL     1       1.467   3.209  18.788  0.00  0.00    +0.000 C 
BRANCH  24  26
ATOM     25  C   UNL     1       1.562   3.024  21.277  0.00  0.00    +0.000 C 
ATOM     26  C   UNL     1       0.745   3.523  20.092  0.00  0.00    +0.000 C 
ENDBRANCH  24  26
ENDBRANCH  23  24
ENDBRANCH   1  23
TORSDOF 5
ENDMDL
MODEL 7
REMARK VINA RESULT:      -7.6      3.279      5.941
REMARK  Name = 
REMARK  8 active torsions:
REMARK  status: ('A' for Active; 'I' for Inactive)
REMARK    1  A    between atoms: C_1  and  C_2
REMARK    2  A    between atoms: C_2  and  C_3
REMARK    3  A    between atoms: C_3  and  O_4
REMARK    4  A    between atoms: O_4  and  C_5
REMARK    5  A    between atoms: C_8  and  N_9
REMARK    6  A    between atoms: C_13  and  C_14
REMARK    7  A    between atoms: C_18  and  C_19
REMARK    8  A    between atoms: N_21  and  C_22
REMARK                            x       y       z     vdW  Elec       q    Type
REMARK                         _______ _______ _______ _____ _____    ______ ____
ROOT
ATOM      1  C   UNL     1       2.885   4.906  17.833  0.00  0.00    +0.000 A 
ATOM      2  C   UNL     1       3.701   3.863  17.358  0.00  0.00    +0.000 A 
ATOM      3  C   UNL     1       5.049   4.069  17.061  0.00  0.00    +0.000 A 
ATOM      4  C   UNL     1       5.603   5.333  17.238  0.00  0.00    +0.000 A 
ATOM      5  C   UNL     1       4.815   6.393  17.700  0.00  0.00    +0.000 A 
ATOM      6  C   UNL     1       3.447   6.197  17.994  0.00  0.00    +0.000 A 
ENDROOT
BRANCH   6   7
ATOM      7  C   UNL     1       2.680   7.417  18.425  0.00  0.00    +0.000 A 
ATOM      8  N   UNL     1       1.970   7.396  19.525  0.00  0.00    +0.000 NA
ATOM      9  C   UNL     1       1.376   8.578  19.825  0.00  0.00    +0.000 A 
ATOM     10  C   UNL     1       1.444   9.754  19.120  0.00  0.00    +0.000 A 
ATOM     11  C   UNL     1       0.709  10.696  19.865  0.00  0.00    +0.000 A 
ATOM     12  C   UNL     1       0.492  12.135  19.584  0.00  0.00    +0.000 C 
ATOM     13  N   UNL     1       0.186  10.139  20.970  0.00  0.00    +0.000 NA
ATOM     14  N   UNL     1       0.606   8.853  20.923  0.00  0.00    +0.000 N 
ATOM     15  C   UNL     1       0.260   7.941  21.985  0.00  0.00    +0.000 C 
ATOM     16  C   UNL     1       2.200   9.773  17.903  0.00  0.00    +0.000 A 
ATOM     17  O   UNL     1       2.340  10.754  17.181  0.00  0.00    +0.000 OA
ATOM     18  N   UNL     1       2.785   8.552  17.625  0.00  0.00    +0.000 N 
ATOM     19  H   UNL     1       3.342   8.520  16.781  0.00  0.00    +0.000 HD
ENDBRANCH   6   7
BRANCH   4  20
ATOM     20  N   UNL     1       7.022   5.546  16.927  0.00  0.00    +0.000 N 
ATOM     21  O   UNL     1       7.767   4.557  16.935  0.00  0.00    +0.000 OA
ATOM     22  O   UNL     1       7.389   6.700  16.674  0.00  0.00    +0.000 OA
ENDBRANCH   4  20
BRANCH   1  23
ATOM     23  O   UNL     1       1.553   4.718  18.143  0.00  0.00    +0.000 OA
BRANCH  23  24
ATOM     24  C   UNL     1       1.255   3.597  18.987  0.00  0.00    +0.000 C 
BRANCH  24  26
ATOM     25  C   UNL     1       1.633   2.983  21.379  0.00  0.00    +0.000 C 
ATOM     26  C   UNL     1       1.075   4.039  20.434  0.00  0.00    +0.000 C 
ENDBRANCH  24  26
ENDBRANCH  23  24
ENDBRANCH   1  23
TORSDOF 5
ENDMDL
MODEL 8
REMARK VINA RESULT:      -7.5      0.903      1.006
REMARK  Name = 
REMARK  8 active torsions:
REMARK  status: ('A' for Active; 'I' for Inactive)
REMARK    1  A    between atoms: C_1  and  C_2
REMARK    2  A    between atoms: C_2  and  C_3
REMARK    3  A    between atoms: C_3  and  O_4
REMARK    4  A    between atoms: O_4  and  C_5
REMARK    5  A    between atoms: C_8  and  N_9
REMARK    6  A    between atoms: C_13  and  C_14
REMARK    7  A    between atoms: C_18  and  C_19
REMARK    8  A    between atoms: N_21  and  C_22
REMARK                            x       y       z     vdW  Elec       q    Type
REMARK                         _______ _______ _______ _____ _____    ______ ____
ROOT
ATOM      1  C   UNL     1       6.435   5.588  15.467  0.00  0.00    +0.000 A 
ATOM      2  C   UNL     1       7.248   5.682  14.322  0.00  0.00    +0.000 A 
ATOM      3  C   UNL     1       7.084   4.818  13.239  0.00  0.00    +0.000 A 
ATOM      4  C   UNL     1       6.097   3.838  13.287  0.00  0.00    +0.000 A 
ATOM      5  C   UNL     1       5.280   3.713  14.417  0.00  0.00    +0.000 A 
ATOM      6  C   UNL     1       5.443   4.578  15.522  0.00  0.00    +0.000 A 
ENDROOT
BRANCH   6   7
ATOM      7  C   UNL     1       4.552   4.316  16.706  0.00  0.00    +0.000 A 
ATOM      8  N   UNL     1       3.968   5.310  17.325  0.00  0.00    +0.000 NA
ATOM      9  C   UNL     1       3.149   4.929  18.338  0.00  0.00    +0.000 A 
ATOM     10  C   UNL     1       2.879   3.653  18.763  0.00  0.00    +0.000 A 
ATOM     11  C   UNL     1       1.934   3.781  19.799  0.00  0.00    +0.000 A 
ATOM     12  C   UNL     1       1.266   2.714  20.582  0.00  0.00    +0.000 C 
ATOM     13  N   UNL     1       1.641   5.071  20.031  0.00  0.00    +0.000 NA
ATOM     14  N   UNL     1       2.391   5.748  19.130  0.00  0.00    +0.000 N 
ATOM     15  C   UNL     1       2.310   7.186  19.058  0.00  0.00    +0.000 C 
ATOM     16  C   UNL     1       3.536   2.564  18.103  0.00  0.00    +0.000 A 
ATOM     17  O   UNL     1       3.385   1.380  18.384  0.00  0.00    +0.000 OA
ATOM     18  N   UNL     1       4.367   2.988  17.083  0.00  0.00    +0.000 N 
ATOM     19  H   UNL     1       4.843   2.253  16.577  0.00  0.00    +0.000 HD
ENDBRANCH   6   7
BRANCH   4  20
ATOM     20  N   UNL     1       5.926   2.931  12.146  0.00  0.00    +0.000 N 
ATOM     21  O   UNL     1       6.941   2.386  11.689  0.00  0.00    +0.000 OA
ATOM     22  O   UNL     1       4.782   2.763  11.709  0.00  0.00    +0.000 OA
ENDBRANCH   4  20
BRANCH   1  23
ATOM     23  O   UNL     1       6.574   6.442  16.542  0.00  0.00    +0.000 OA
BRANCH  23  24
ATOM     24  C   UNL     1       7.779   6.300  17.309  0.00  0.00    +0.000 C 
BRANCH  24  26
ATOM     25  C   UNL     1       6.788   5.458  19.441  0.00  0.00    +0.000 C 
ATOM     26  C   UNL     1       7.682   5.112  18.258  0.00  0.00    +0.000 C 
ENDBRANCH  24  26
ENDBRANCH  23  24
ENDBRANCH   1  23
TORSDOF 5
ENDMDL
MODEL 9
REMARK VINA RESULT:      -7.4      3.506      7.375
REMARK  Name = 
REMARK  8 active torsions:
REMARK  status: ('A' for Active; 'I' for Inactive)
REMARK    1  A    between atoms: C_1  and  C_2
REMARK    2  A    between atoms: C_2  and  C_3
REMARK    3  A    between atoms: C_3  and  O_4
REMARK    4  A    between atoms: O_4  and  C_5
REMARK    5  A    between atoms: C_8  and  N_9
REMARK    6  A    between atoms: C_13  and  C_14
REMARK    7  A    between atoms: C_18  and  C_19
REMARK    8  A    between atoms: N_21  and  C_22
REMARK                            x       y       z     vdW  Elec       q    Type
REMARK                         _______ _______ _______ _____ _____    ______ ____
ROOT
ATOM      1  C   UNL     1       1.841   6.683  20.420  0.00  0.00    +0.000 A 
ATOM      2  C   UNL     1       0.962   7.434  21.223  0.00  0.00    +0.000 A 
ATOM      3  C   UNL     1       0.600   8.739  20.884  0.00  0.00    +0.000 A 
ATOM      4  C   UNL     1       1.117   9.314  19.727  0.00  0.00    +0.000 A 
ATOM      5  C   UNL     1       2.001   8.596  18.914  0.00  0.00    +0.000 A 
ATOM      6  C   UNL     1       2.381   7.278  19.253  0.00  0.00    +0.000 A 
ENDROOT
BRANCH   6   7
ATOM      7  C   UNL     1       3.383   6.621  18.342  0.00  0.00    +0.000 A 
ATOM      8  N   UNL     1       4.547   7.180  18.130  0.00  0.00    +0.000 NA
ATOM      9  C   UNL     1       5.374   6.455  17.334  0.00  0.00    +0.000 A 
ATOM     10  C   UNL     1       5.123   5.238  16.752  0.00  0.00    +0.000 A 
ATOM     11  C   UNL     1       6.305   4.881  16.075  0.00  0.00    +0.000 A 
ATOM     12  C   UNL     1       6.599   3.646  15.312  0.00  0.00    +0.000 C 
ATOM     13  N   UNL     1       7.243   5.834  16.203  0.00  0.00    +0.000 NA
ATOM     14  N   UNL     1       6.653   6.778  16.973  0.00  0.00    +0.000 N 
ATOM     15  C   UNL     1       7.387   7.959  17.357  0.00  0.00    +0.000 C 
ATOM     16  C   UNL     1       3.839   4.636  16.963  0.00  0.00    +0.000 A 
ATOM     17  O   UNL     1       3.488   3.556  16.501  0.00  0.00    +0.000 OA
ATOM     18  N   UNL     1       3.022   5.404  17.771  0.00  0.00    +0.000 N 
ATOM     19  H   UNL     1       2.109   5.012  17.960  0.00  0.00    +0.000 HD
ENDBRANCH   6   7
BRANCH   4  20
ATOM     20  N   UNL     1       0.733  10.686  19.372  0.00  0.00    +0.000 N 
ATOM     21  O   UNL     1      -0.419  11.050  19.648  0.00  0.00    +0.000 OA
ATOM     22  O   UNL     1       1.581  11.397  18.821  0.00  0.00    +0.000 OA
ENDBRANCH   4  20
BRANCH   1  23
ATOM     23  O   UNL     1       2.201   5.388  20.733  0.00  0.00    +0.000 OA
BRANCH  23  24
ATOM     24  C   UNL     1       1.164   4.402  20.624  0.00  0.00    +0.000 C 
BRANCH  24  26
ATOM     25  C   UNL     1       0.974   2.583  18.924  0.00  0.00    +0.000 C 
ATOM     26  C   UNL     1       1.729   3.068  20.153  0.00  0.00    +0.000 C 
ENDBRANCH  24  26
ENDBRANCH  23  24
ENDBRANCH   1  23
TORSDOF 5
ENDMDL
