MODEL 1
REMARK VINA RESULT:      -7.4      0.000      0.000
REMARK  Name = 
REMARK  4 active torsions:
REMARK  status: ('A' for Active; 'I' for Inactive)
REMARK    1  A    between atoms: C_1  and  O_2
REMARK    2  A    between atoms: O_2  and  C_3
REMARK    3  A    between atoms: C_5  and  O_6
REMARK    4  A    between atoms: C_20  and  C_21
REMARK                            x       y       z     vdW  Elec       q    Type
REMARK                         _______ _______ _______ _____ _____    ______ ____
ROOT
ATOM      1  C   UNL     1       5.906   4.240  18.857  0.00  0.00    +0.000 A 
ATOM      2  C   UNL     1       4.893   3.341  19.194  0.00  0.00    +0.000 A 
ATOM      3  C   UNL     1       3.582   3.828  19.666  0.00  0.00    +0.000 A 
ATOM      4  C   UNL     1       3.290   5.205  19.884  0.00  0.00    +0.000 A 
ATOM      5  C   UNL     1       4.190   5.880  19.023  0.00  0.00    +0.000 A 
ATOM      6  C   UNL     1       5.574   5.577  18.887  0.00  0.00    +0.000 A 
ATOM      7  C   UNL     1       3.662   5.920  17.490  0.00  0.00    +0.000 C 
ATOM      8  C   UNL     1       3.589   7.376  17.107  0.00  0.00    +0.000 C 
ATOM      9  C   UNL     1       2.559   7.871  18.067  0.00  0.00    +0.000 C 
ATOM     10  C   UNL     1       2.287   9.325  18.167  0.00  0.00    +0.000 C 
ATOM     11  C   UNL     1       0.783   9.355  18.069  0.00  0.00    +0.000 C 
ATOM     12  C   UNL     1       0.131  10.618  18.542  0.00  0.00    +0.000 C 
ATOM     13  O   UNL     1       0.682  11.704  18.558  0.00  0.00    +0.000 OA
ATOM     14  C   UNL     1      -1.134  10.340  19.233  0.00  0.00    +0.000 C 
ATOM     15  C   UNL     1      -0.805  10.281  20.546  0.00  0.00    +0.000 C 
ATOM     16  C   UNL     1      -0.562   8.981  21.357  0.00  0.00    +0.000 C 
ATOM     17  C   UNL     1       1.019   8.631  21.504  0.00  0.00    +0.000 C 
ATOM     18  C   UNL     1       1.464   9.345  22.817  0.00  0.00    +0.000 C 
ATOM     19  O   UNL     1       1.931   7.299  21.085  0.00  0.00    +0.000 OA
ATOM     20  C   UNL     1       1.854   5.993  20.471  0.00  0.00    +0.000 C 
ATOM     21  O   UNL     1       0.759   5.462  20.321  0.00  0.00    +0.000 OA
ENDROOT
BRANCH   1  23
ATOM     22  C   UNL     1       7.147   4.678  16.839  0.00  0.00    +0.000 C 
ATOM     23  O   UNL     1       7.009   4.002  18.091  0.00  0.00    +0.000 OA
ENDBRANCH   1  23
BRANCH   3  24
ATOM     24  O   UNL     1       2.572   2.900  19.518  0.00  0.00    +0.000 OA
ATOM     25  H   UNL     1       2.637   2.286  20.282  0.00  0.00    +0.000 HD
ENDBRANCH   3  24
TORSDOF 2
ENDMDL
MODEL 2
REMARK VINA RESULT:      -7.2      2.060      3.781
REMARK  Name = 
REMARK  4 active torsions:
REMARK  status: ('A' for Active; 'I' for Inactive)
REMARK    1  A    between atoms: C_1  and  O_2
REMARK    2  A    between atoms: O_2  and  C_3
REMARK    3  A    between atoms: C_5  and  O_6
REMARK    4  A    between atoms: C_20  and  C_21
REMARK                            x       y       z     vdW  Elec       q    Type
REMARK                         _______ _______ _______ _____ _____    ______ ____
ROOT
ATOM      1  C   UNL     1       2.876   3.175  17.488  0.00  0.00    +0.000 A 
ATOM      2  C   UNL     1       3.928   3.928  16.962  0.00  0.00    +0.000 A 
ATOM      3  C   UNL     1       3.923   5.400  17.062  0.00  0.00    +0.000 A 
ATOM      4  C   UNL     1       2.840   6.144  17.612  0.00  0.00    +0.000 A 
ATOM      5  C   UNL     1       2.216   5.228  18.494  0.00  0.00    +0.000 A 
ATOM      6  C   UNL     1       1.914   3.873  18.185  0.00  0.00    +0.000 A 
ATOM      7  C   UNL     1       2.984   5.125  19.918  0.00  0.00    +0.000 C 
ATOM      8  C   UNL     1       1.966   5.474  20.974  0.00  0.00    +0.000 C 
ATOM      9  C   UNL     1       1.650   6.887  20.608  0.00  0.00    +0.000 C 
ATOM     10  C   UNL     1       0.539   7.591  21.292  0.00  0.00    +0.000 C 
ATOM     11  C   UNL     1       1.205   8.883  21.690  0.00  0.00    +0.000 C 
ATOM     12  C   UNL     1       0.276  10.006  22.039  0.00  0.00    +0.000 C 
ATOM     13  O   UNL     1      -0.859   9.849  22.449  0.00  0.00    +0.000 OA
ATOM     14  C   UNL     1       0.797  11.296  21.568  0.00  0.00    +0.000 C 
ATOM     15  C   UNL     1       0.212  11.484  20.361  0.00  0.00    +0.000 C 
ATOM     16  C   UNL     1       0.870  11.194  18.986  0.00  0.00    +0.000 C 
ATOM     17  C   UNL     1       0.415   9.758  18.374  0.00  0.00    +0.000 C 
ATOM     18  C   UNL     1      -0.854  10.073  17.523  0.00  0.00    +0.000 C 
ATOM     19  O   UNL     1       1.267   8.407  17.893  0.00  0.00    +0.000 OA
ATOM     20  C   UNL     1       2.600   7.858  17.788  0.00  0.00    +0.000 C 
ATOM     21  O   UNL     1       3.567   8.607  17.872  0.00  0.00    +0.000 OA
ENDROOT
BRANCH   1  23
ATOM     22  C   UNL     1       3.771   1.370  18.808  0.00  0.00    +0.000 C 
ATOM     23  O   UNL     1       2.877   1.849  17.801  0.00  0.00    +0.000 OA
ENDBRANCH   1  23
BRANCH   3  24
ATOM     24  O   UNL     1       5.178   5.958  16.933  0.00  0.00    +0.000 OA
ATOM     25  H   UNL     1       5.556   5.614  16.094  0.00  0.00    +0.000 HD
ENDBRANCH   3  24
TORSDOF 2
ENDMDL
MODEL 3
REMARK VINA RESULT:      -6.4      1.677      7.047
REMARK  Name = 
REMARK  4 active torsions:
REMARK  status: ('A' for Active; 'I' for Inactive)
REMARK    1  A    between atoms: C_1  and  O_2
REMARK    2  A    between atoms: O_2  and  C_3
REMARK    3  A    between atoms: C_5  and  O_6
REMARK    4  A    between atoms: C_20  and  C_21
REMARK                            x       y       z     vdW  Elec       q    Type
REMARK                         _______ _______ _______ _____ _____    ______ ____
ROOT
ATOM      1  C   UNL     1      -1.641  11.295  19.427  0.00  0.00    +0.000 A 
ATOM      2  C   UNL     1      -1.163  11.446  20.731  0.00  0.00    +0.000 A 
ATOM      3  C   UNL     1      -0.252  10.446  21.318  0.00  0.00    +0.000 A 
ATOM      4  C   UNL     1       0.130   9.246  20.652  0.00  0.00    +0.000 A 
ATOM      5  C   UNL     1      -0.014   9.564  19.279  0.00  0.00    +0.000 A 
ATOM      6  C   UNL     1      -1.132  10.235  18.709  0.00  0.00    +0.000 A 
ATOM      7  C   UNL     1       1.255  10.393  18.703  0.00  0.00    +0.000 C 
ATOM      8  C   UNL     1       1.798   9.587  17.551  0.00  0.00    +0.000 C 
ATOM      9  C   UNL     1       2.217   8.336  18.251  0.00  0.00    +0.000 C 
ATOM     10  C   UNL     1       2.661   7.165  17.459  0.00  0.00    +0.000 C 
ATOM     11  C   UNL     1       3.952   6.809  18.151  0.00  0.00    +0.000 C 
ATOM     12  C   UNL     1       4.469   5.429  17.880  0.00  0.00    +0.000 C 
ATOM     13  O   UNL     1       4.214   4.791  16.875  0.00  0.00    +0.000 OA
ATOM     14  C   UNL     1       5.080   4.842  19.079  0.00  0.00    +0.000 C 
ATOM     15  C   UNL     1       4.088   4.117  19.652  0.00  0.00    +0.000 C 
ATOM     16  C   UNL     1       3.205   4.579  20.840  0.00  0.00    +0.000 C 
ATOM     17  C   UNL     1       1.763   5.152  20.352  0.00  0.00    +0.000 C 
ATOM     18  C   UNL     1       0.823   3.907  20.344  0.00  0.00    +0.000 C 
ATOM     19  O   UNL     1       0.991   6.614  20.567  0.00  0.00    +0.000 OA
ATOM     20  C   UNL     1       1.139   7.923  21.161  0.00  0.00    +0.000 C 
ATOM     21  O   UNL     1       2.017   8.108  21.997  0.00  0.00    +0.000 OA
ENDROOT
BRANCH   1  23
ATOM     22  C   UNL     1      -3.339  11.947  17.848  0.00  0.00    +0.000 C 
ATOM     23  O   UNL     1      -2.175  12.254  18.620  0.00  0.00    +0.000 OA
ENDBRANCH   1  23
BRANCH   3  24
ATOM     24  O   UNL     1       0.480  10.935  22.381  0.00  0.00    +0.000 OA
ATOM     25  H   UNL     1      -0.032  11.683  22.758  0.00  0.00    +0.000 HD
ENDBRANCH   3  24
TORSDOF 2
ENDMDL
MODEL 4
REMARK VINA RESULT:      -6.2      2.043      7.228
REMARK  Name = 
REMARK  4 active torsions:
REMARK  status: ('A' for Active; 'I' for Inactive)
REMARK    1  A    between atoms: C_1  and  O_2
REMARK    2  A    between atoms: O_2  and  C_3
REMARK    3  A    between atoms: C_5  and  O_6
REMARK    4  A    between atoms: C_20  and  C_21
REMARK                            x       y       z     vdW  Elec       q    Type
REMARK                         _______ _______ _______ _____ _____    ______ ____
ROOT
ATOM      1  C   UNL     1       0.529  10.270  21.837  0.00  0.00    +0.000 A 
ATOM      2  C   UNL     1       0.004  10.634  20.596  0.00  0.00    +0.000 A 
ATOM      3  C   UNL     1       0.531  10.041  19.353  0.00  0.00    +0.000 A 
ATOM      4  C   UNL     1       1.637   9.143  19.321  0.00  0.00    +0.000 A 
ATOM      5  C   UNL     1       1.630   8.555  20.609  0.00  0.00    +0.000 A 
ATOM      6  C   UNL     1       1.473   9.266  21.831  0.00  0.00    +0.000 A 
ATOM      7  C   UNL     1       0.546   7.355  20.731  0.00  0.00    +0.000 C 
ATOM      8  C   UNL     1       1.319   6.128  21.143  0.00  0.00    +0.000 C 
ATOM      9  C   UNL     1       2.220   5.951  19.966  0.00  0.00    +0.000 C 
ATOM     10  C   UNL     1       3.301   4.938  20.015  0.00  0.00    +0.000 C 
ATOM     11  C   UNL     1       3.088   4.211  18.712  0.00  0.00    +0.000 C 
ATOM     12  C   UNL     1       4.248   3.391  18.234  0.00  0.00    +0.000 C 
ATOM     13  O   UNL     1       5.099   2.923  18.968  0.00  0.00    +0.000 OA
ATOM     14  C   UNL     1       4.383   3.456  16.773  0.00  0.00    +0.000 C 
ATOM     15  C   UNL     1       5.280   4.447  16.554  0.00  0.00    +0.000 C 
ATOM     16  C   UNL     1       4.931   5.908  16.166  0.00  0.00    +0.000 C 
ATOM     17  C   UNL     1       4.957   6.910  17.446  0.00  0.00    +0.000 C 
ATOM     18  C   UNL     1       6.422   7.443  17.505  0.00  0.00    +0.000 C 
ATOM     19  O   UNL     1       3.814   7.921  18.120  0.00  0.00    +0.000 OA
ATOM     20  C   UNL     1       2.446   8.369  17.990  0.00  0.00    +0.000 C 
ATOM     21  O   UNL     1       1.841   8.154  16.945  0.00  0.00    +0.000 OA
ENDROOT
BRANCH   1  23
ATOM     22  C   UNL     1      -1.321  11.067  23.159  0.00  0.00    +0.000 C 
ATOM     23  O   UNL     1      -0.045  10.428  23.063  0.00  0.00    +0.000 OA
ENDBRANCH   1  23
BRANCH   3  24
ATOM     24  O   UNL     1      -0.348  10.126  18.293  0.00  0.00    +0.000 OA
ATOM     25  H   UNL     1      -1.021  10.799  18.536  0.00  0.00    +0.000 HD
ENDBRANCH   3  24
TORSDOF 2
ENDMDL
MODEL 5
REMARK VINA RESULT:      -6.0      3.562      7.053
REMARK  Name = 
REMARK  4 active torsions:
REMARK  status: ('A' for Active; 'I' for Inactive)
REMARK    1  A    between atoms: C_1  and  O_2
REMARK    2  A    between atoms: O_2  and  C_3
REMARK    3  A    between atoms: C_5  and  O_6
REMARK    4  A    between atoms: C_20  and  C_21
REMARK                            x       y       z     vdW  Elec       q    Type
REMARK                         _______ _______ _______ _____ _____    ______ ____
ROOT
ATOM      1  C   UNL     1       1.693   8.926  18.671  0.00  0.00    +0.000 A 
ATOM      2  C   UNL     1       2.008  10.143  18.063  0.00  0.00    +0.000 A 
ATOM      3  C   UNL     1       1.162  11.332  18.279  0.00  0.00    +0.000 A 
ATOM      4  C   UNL     1      -0.047  11.308  19.033  0.00  0.00    +0.000 A 
ATOM      5  C   UNL     1       0.132  10.218  19.919  0.00  0.00    +0.000 A 
ATOM      6  C   UNL     1       0.631   8.938  19.550  0.00  0.00    +0.000 A 
ATOM      7  C   UNL     1       1.032  10.614  21.208  0.00  0.00    +0.000 C 
ATOM      8  C   UNL     1       0.186  10.318  22.421  0.00  0.00    +0.000 C 
ATOM      9  C   UNL     1      -0.948  11.267  22.215  0.00  0.00    +0.000 C 
ATOM     10  C   UNL     1      -2.134  11.197  23.102  0.00  0.00    +0.000 C 
ATOM     11  C   UNL     1      -2.293  12.642  23.502  0.00  0.00    +0.000 C 
ATOM     12  C   UNL     1      -3.631  13.011  24.066  0.00  0.00    +0.000 C 
ATOM     13  O   UNL     1      -4.378  12.224  24.618  0.00  0.00    +0.000 OA
ATOM     14  C   UNL     1      -4.044  14.351  23.630  0.00  0.00    +0.000 C 
ATOM     15  C   UNL     1      -4.812  14.136  22.535  0.00  0.00    +0.000 C 
ATOM     16  C   UNL     1      -4.339  14.261  21.063  0.00  0.00    +0.000 C 
ATOM     17  C   UNL     1      -3.963  12.820  20.410  0.00  0.00    +0.000 C 
ATOM     18  C   UNL     1      -5.293  12.312  19.773  0.00  0.00    +0.000 C 
ATOM     19  O   UNL     1      -2.574  12.219  19.709  0.00  0.00    +0.000 OA
ATOM     20  C   UNL     1      -1.209  12.556  19.374  0.00  0.00    +0.000 C 
ATOM     21  O   UNL     1      -0.862  13.732  19.380  0.00  0.00    +0.000 OA
ENDROOT
BRANCH   1  23
ATOM     22  C   UNL     1       2.234   6.955  19.946  0.00  0.00    +0.000 C 
ATOM     23  O   UNL     1       2.517   7.859  18.876  0.00  0.00    +0.000 OA
ENDBRANCH   1  23
BRANCH   3  24
ATOM     24  O   UNL     1       1.816  12.519  18.018  0.00  0.00    +0.000 OA
ATOM     25  H   UNL     1       2.025  12.523  17.058  0.00  0.00    +0.000 HD
ENDBRANCH   3  24
TORSDOF 2
ENDMDL
MODEL 6
REMARK VINA RESULT:      -6.0      4.729      8.365
REMARK  Name = 
REMARK  4 active torsions:
REMARK  status: ('A' for Active; 'I' for Inactive)
REMARK    1  A    between atoms: C_1  and  O_2
REMARK    2  A    between atoms: O_2  and  C_3
REMARK    3  A    between atoms: C_5  and  O_6
REMARK    4  A    between atoms: C_20  and  C_21
REMARK                            x       y       z     vdW  Elec       q    Type
REMARK                         _______ _______ _______ _____ _____    ______ ____
ROOT
ATOM      1  C   UNL     1      -0.820  10.013  18.118  0.00  0.00    +0.000 A 
ATOM      2  C   UNL     1      -1.974  10.516  17.515  0.00  0.00    +0.000 A 
ATOM      3  C   UNL     1      -2.873  11.423  18.254  0.00  0.00    +0.000 A 
ATOM      4  C   UNL     1      -2.681  11.776  19.621  0.00  0.00    +0.000 A 
ATOM      5  C   UNL     1      -1.288  11.611  19.817  0.00  0.00    +0.000 A 
ATOM      6  C   UNL     1      -0.527  10.494  19.376  0.00  0.00    +0.000 A 
ATOM      7  C   UNL     1      -0.437  12.882  19.278  0.00  0.00    +0.000 C 
ATOM      8  C   UNL     1       0.352  13.393  20.457  0.00  0.00    +0.000 C 
ATOM      9  C   UNL     1      -0.748  13.806  21.377  0.00  0.00    +0.000 C 
ATOM     10  C   UNL     1      -0.428  14.219  22.765  0.00  0.00    +0.000 C 
ATOM     11  C   UNL     1      -1.187  15.517  22.872  0.00  0.00    +0.000 C 
ATOM     12  C   UNL     1      -1.427  16.009  24.267  0.00  0.00    +0.000 C 
ATOM     13  O   UNL     1      -0.723  15.728  25.219  0.00  0.00    +0.000 OA
ATOM     14  C   UNL     1      -2.751  16.633  24.393  0.00  0.00    +0.000 C 
ATOM     15  C   UNL     1      -3.558  15.641  24.842  0.00  0.00    +0.000 C 
ATOM     16  C   UNL     1      -4.509  14.786  23.964  0.00  0.00    +0.000 C 
ATOM     17  C   UNL     1      -3.864  13.344  23.578  0.00  0.00    +0.000 C 
ATOM     18  C   UNL     1      -4.316  12.387  24.723  0.00  0.00    +0.000 C 
ATOM     19  O   UNL     1      -3.543  12.597  22.122  0.00  0.00    +0.000 OA
ATOM     20  C   UNL     1      -3.623  12.774  20.690  0.00  0.00    +0.000 C 
ATOM     21  O   UNL     1      -4.325  13.669  20.233  0.00  0.00    +0.000 OA
ENDROOT
BRANCH   1  23
ATOM     22  C   UNL     1       1.485   9.324  18.249  0.00  0.00    +0.000 C 
ATOM     23  O   UNL     1       0.274   9.478  17.505  0.00  0.00    +0.000 OA
ENDBRANCH   1  23
BRANCH   3  24
ATOM     24  O   UNL     1      -3.679  12.181  17.429  0.00  0.00    +0.000 OA
ATOM     25  H   UNL     1      -4.443  11.616  17.181  0.00  0.00    +0.000 HD
ENDBRANCH   3  24
TORSDOF 2
ENDMDL
MODEL 7
REMARK VINA RESULT:      -5.9      5.286      9.026
REMARK  Name = 
REMARK  4 active torsions:
REMARK  status: ('A' for Active; 'I' for Inactive)
REMARK    1  A    between atoms: C_1  and  O_2
REMARK    2  A    between atoms: O_2  and  C_3
REMARK    3  A    between atoms: C_5  and  O_6
REMARK    4  A    between atoms: C_20  and  C_21
REMARK                            x       y       z     vdW  Elec       q    Type
REMARK                         _______ _______ _______ _____ _____    ______ ____
ROOT
ATOM      1  C   UNL     1      -1.161   9.783  17.510  0.00  0.00    +0.000 A 
ATOM      2  C   UNL     1      -1.909  10.219  16.414  0.00  0.00    +0.000 A 
ATOM      3  C   UNL     1      -3.172  10.954  16.611  0.00  0.00    +0.000 A 
ATOM      4  C   UNL     1      -3.748  11.194  17.892  0.00  0.00    +0.000 A 
ATOM      5  C   UNL     1      -2.639  11.157  18.771  0.00  0.00    +0.000 A 
ATOM      6  C   UNL     1      -1.614  10.170  18.753  0.00  0.00    +0.000 A 
ATOM      7  C   UNL     1      -1.816  12.554  18.782  0.00  0.00    +0.000 C 
ATOM      8  C   UNL     1      -1.810  13.030  20.213  0.00  0.00    +0.000 C 
ATOM      9  C   UNL     1      -3.270  13.237  20.448  0.00  0.00    +0.000 C 
ATOM     10  C   UNL     1      -3.755  13.548  21.814  0.00  0.00    +0.000 C 
ATOM     11  C   UNL     1      -4.635  14.745  21.553  0.00  0.00    +0.000 C 
ATOM     12  C   UNL     1      -5.612  15.075  22.639  0.00  0.00    +0.000 C 
ATOM     13  O   UNL     1      -5.456  14.779  23.810  0.00  0.00    +0.000 OA
ATOM     14  C   UNL     1      -6.889  15.544  22.085  0.00  0.00    +0.000 C 
ATOM     15  C   UNL     1      -7.667  14.437  22.027  0.00  0.00    +0.000 C 
ATOM     16  C   UNL     1      -7.916  13.574  20.762  0.00  0.00    +0.000 C 
ATOM     17  C   UNL     1      -6.973  12.250  20.722  0.00  0.00    +0.000 C 
ATOM     18  C   UNL     1      -7.806  11.147  21.444  0.00  0.00    +0.000 C 
ATOM     19  O   UNL     1      -5.861  11.681  19.617  0.00  0.00    +0.000 OA
ATOM     20  C   UNL     1      -5.228  11.983  18.353  0.00  0.00    +0.000 C 
ATOM     21  O   UNL     1      -5.718  12.840  17.625  0.00  0.00    +0.000 OA
ENDROOT
BRANCH   1  23
ATOM     22  C   UNL     1       1.010   9.971  18.538  0.00  0.00    +0.000 C 
ATOM     23  O   UNL     1       0.154   9.424  17.532  0.00  0.00    +0.000 OA
ENDBRANCH   1  23
BRANCH   3  24
ATOM     24  O   UNL     1      -3.545  11.699  15.511  0.00  0.00    +0.000 OA
ATOM     25  H   UNL     1      -2.717  12.010  15.085  0.00  0.00    +0.000 HD
ENDBRANCH   3  24
TORSDOF 2
ENDMDL
MODEL 8
REMARK VINA RESULT:      -5.8      8.667     10.936
REMARK  Name = 
REMARK  4 active torsions:
REMARK  status: ('A' for Active; 'I' for Inactive)
REMARK    1  A    between atoms: C_1  and  O_2
REMARK    2  A    between atoms: O_2  and  C_3
REMARK    3  A    between atoms: C_5  and  O_6
REMARK    4  A    between atoms: C_20  and  C_21
REMARK                            x       y       z     vdW  Elec       q    Type
REMARK                         _______ _______ _______ _____ _____    ______ ____
ROOT
ATOM      1  C   UNL     1       6.980  13.217  26.037  0.00  0.00    +0.000 A 
ATOM      2  C   UNL     1       5.838  13.713  25.403  0.00  0.00    +0.000 A 
ATOM      3  C   UNL     1       5.898  14.181  24.006  0.00  0.00    +0.000 A 
ATOM      4  C   UNL     1       7.104  14.238  23.249  0.00  0.00    +0.000 A 
ATOM      5  C   UNL     1       7.927  13.257  23.854  0.00  0.00    +0.000 A 
ATOM      6  C   UNL     1       8.108  13.095  25.256  0.00  0.00    +0.000 A 
ATOM      7  C   UNL     1       7.574  11.758  23.345  0.00  0.00    +0.000 C 
ATOM      8  C   UNL     1       8.848  11.198  22.765  0.00  0.00    +0.000 C 
ATOM      9  C   UNL     1       9.078  12.137  21.627  0.00  0.00    +0.000 C 
ATOM     10  C   UNL     1      10.346  12.065  20.863  0.00  0.00    +0.000 C 
ATOM     11  C   UNL     1       9.837  12.036  19.444  0.00  0.00    +0.000 C 
ATOM     12  C   UNL     1      10.847  12.378  18.390  0.00  0.00    +0.000 C 
ATOM     13  O   UNL     1      12.048  12.231  18.524  0.00  0.00    +0.000 OA
ATOM     14  C   UNL     1      10.242  13.158  17.303  0.00  0.00    +0.000 C 
ATOM     15  C   UNL     1      10.478  14.450  17.633  0.00  0.00    +0.000 C 
ATOM     16  C   UNL     1       9.466  15.406  18.317  0.00  0.00    +0.000 C 
ATOM     17  C   UNL     1       9.711  15.521  19.920  0.00  0.00    +0.000 C 
ATOM     18  C   UNL     1      10.705  16.710  20.087  0.00  0.00    +0.000 C 
ATOM     19  O   UNL     1       8.735  15.229  21.242  0.00  0.00    +0.000 OA
ATOM     20  C   UNL     1       7.414  14.789  21.628  0.00  0.00    +0.000 C 
ATOM     21  O   UNL     1       6.521  14.759  20.789  0.00  0.00    +0.000 OA
ENDROOT
BRANCH   1  23
ATOM     22  C   UNL     1       6.357  11.179  27.162  0.00  0.00    +0.000 C 
ATOM     23  O   UNL     1       7.040  12.435  27.152  0.00  0.00    +0.000 OA
ENDBRANCH   1  23
BRANCH   3  24
ATOM     24  O   UNL     1       4.666  14.200  23.386  0.00  0.00    +0.000 OA
ATOM     25  H   UNL     1       3.993  14.301  24.094  0.00  0.00    +0.000 HD
ENDBRANCH   3  24
TORSDOF 2
ENDMDL
MODEL 9
REMARK VINA RESULT:      -5.8      6.517      8.289
REMARK  Name = 
REMARK  4 active torsions:
REMARK  status: ('A' for Active; 'I' for Inactive)
REMARK    1  A    between atoms: C_1  and  O_2
REMARK    2  A    between atoms: O_2  and  C_3
REMARK    3  A    between atoms: C_5  and  O_6
REMARK    4  A    between atoms: C_20  and  C_21
REMARK                            x       y       z     vdW  Elec       q    Type
REMARK                         _______ _______ _______ _____ _____    ______ ____
ROOT
ATOM      1  C   UNL     1       1.593  13.153  19.070  0.00  0.00    +0.000 A 
ATOM      2  C   UNL     1       1.619  12.652  20.373  0.00  0.00    +0.000 A 
ATOM      3  C   UNL     1       0.367  12.451  21.126  0.00  0.00    +0.000 A 
ATOM      4  C   UNL     1      -0.916  12.819  20.627  0.00  0.00    +0.000 A 
ATOM      5  C   UNL     1      -0.752  12.781  19.220  0.00  0.00    +0.000 A 
ATOM      6  C   UNL     1       0.347  13.338  18.510  0.00  0.00    +0.000 A 
ATOM      7  C   UNL     1      -0.856  11.274  18.630  0.00  0.00    +0.000 C 
ATOM      8  C   UNL     1      -1.969  11.295  17.613  0.00  0.00    +0.000 C 
ATOM      9  C   UNL     1      -3.137  11.640  18.477  0.00  0.00    +0.000 C 
ATOM     10  C   UNL     1      -4.447  11.942  17.854  0.00  0.00    +0.000 C 
ATOM     11  C   UNL     1      -5.371  11.063  18.659  0.00  0.00    +0.000 C 
ATOM     12  C   UNL     1      -6.825  11.414  18.581  0.00  0.00    +0.000 C 
ATOM     13  O   UNL     1      -7.336  11.998  17.642  0.00  0.00    +0.000 OA
ATOM     14  C   UNL     1      -7.492  11.219  19.874  0.00  0.00    +0.000 C 
ATOM     15  C   UNL     1      -7.458  12.437  20.466  0.00  0.00    +0.000 C 
ATOM     16  C   UNL     1      -6.432  12.891  21.538  0.00  0.00    +0.000 C 
ATOM     17  C   UNL     1      -5.222  13.770  20.902  0.00  0.00    +0.000 C 
ATOM     18  C   UNL     1      -5.718  15.246  20.980  0.00  0.00    +0.000 C 
ATOM     19  O   UNL     1      -3.564  13.585  20.899  0.00  0.00    +0.000 OA
ATOM     20  C   UNL     1      -2.497  12.719  21.346  0.00  0.00    +0.000 C 
ATOM     21  O   UNL     1      -2.727  11.876  22.205  0.00  0.00    +0.000 OA
ENDROOT
BRANCH   1  23
ATOM     22  C   UNL     1       3.587  14.076  18.082  0.00  0.00    +0.000 C 
ATOM     23  O   UNL     1       2.573  13.069  18.126  0.00  0.00    +0.000 OA
ENDBRANCH   1  23
BRANCH   3  24
ATOM     24  O   UNL     1       0.496  11.555  22.167  0.00  0.00    +0.000 OA
ATOM     25  H   UNL     1      -0.034  10.763  21.928  0.00  0.00    +0.000 HD
ENDBRANCH   3  24
TORSDOF 2
ENDMDL
