MODEL 1
REMARK VINA RESULT:      -7.8      0.000      0.000
REMARK  Name = 
REMARK  8 active torsions:
REMARK  status: ('A' for Active; 'I' for Inactive)
REMARK    1  A    between atoms: C_1  and  C_2
REMARK    2  A    between atoms: C_4  and  C_5
REMARK    3  A    between atoms: C_11  and  C_12
REMARK    4  A    between atoms: N_14  and  C_15
REMARK    5  A    between atoms: C_15  and  C_16
REMARK    6  A    between atoms: C_16  and  N_17
REMARK    7  A    between atoms: N_17  and  C_18
REMARK    8  A    between atoms: N_17  and  C_19
REMARK                            x       y       z     vdW  Elec       q    Type
REMARK                         _______ _______ _______ _____ _____    ______ ____
ROOT
ATOM      1  C   UNL     1       6.538   4.617  14.464  0.00  0.00    +0.000 A 
ATOM      2  N   UNL     1       7.544   5.502  14.393  0.00  0.00    +0.000 NA
ATOM      3  O   UNL     1       7.729   5.956  15.691  0.00  0.00    +0.000 OA
ATOM      4  C   UNL     1       6.852   5.332  16.518  0.00  0.00    +0.000 A 
ATOM      5  C   UNL     1       6.759   5.509  17.897  0.00  0.00    +0.000 A 
ATOM      6  C   UNL     1       5.796   4.737  18.568  0.00  0.00    +0.000 A 
ATOM      7  C   UNL     1       4.962   3.852  17.868  0.00  0.00    +0.000 A 
ATOM      8  C   UNL     1       5.071   3.725  16.468  0.00  0.00    +0.000 A 
ATOM      9  C   UNL     1       6.053   4.470  15.788  0.00  0.00    +0.000 A 
ENDROOT
BRANCH   1  13
ATOM     10  C   UNL     1       3.594   2.938  10.878  0.00  0.00    +0.000 C 
ATOM     11  C   UNL     1       4.714   3.214  11.798  0.00  0.00    +0.000 A 
ATOM     12  N   UNL     1       4.732   3.951  12.890  0.00  0.00    +0.000 NA
ATOM     13  C   UNL     1       6.047   3.900  13.293  0.00  0.00    +0.000 A 
ATOM     14  C   UNL     1       6.766   3.108  12.432  0.00  0.00    +0.000 A 
ATOM     15  O   UNL     1       5.921   2.658  11.465  0.00  0.00    +0.000 OA
ENDBRANCH   1  13
BRANCH   7  16
ATOM     16  C   UNL     1       3.934   3.015  18.548  0.00  0.00    +0.000 C 
ATOM     17  O   UNL     1       4.281   2.185  19.386  0.00  0.00    +0.000 OA
ATOM     18  N   UNL     1       2.614   3.242  18.231  0.00  0.00    +0.000 N 
ATOM     19  H   UNL     1       2.337   3.925  17.537  0.00  0.00    +0.000 HD
BRANCH  18  20
ATOM     20  C   UNL     1       1.558   2.501  18.899  0.00  0.00    +0.000 C 
BRANCH  20  21
ATOM     21  C   UNL     1       0.644   3.394  19.758  0.00  0.00    +0.000 C 
BRANCH  21  22
ATOM     22  N   UNL     1       1.114   3.582  21.150  0.00  0.00    +0.000 NA
ATOM     23  C   UNL     1       1.763   2.372  21.668  0.00  0.00    +0.000 C 
ATOM     24  C   UNL     1       2.059   4.702  21.211  0.00  0.00    +0.000 C 
ENDBRANCH  21  22
ENDBRANCH  20  21
ENDBRANCH  18  20
ENDBRANCH   7  16
TORSDOF 5
ENDMDL
MODEL 2
REMARK VINA RESULT:      -7.8      0.970      1.111
REMARK  Name = 
REMARK  8 active torsions:
REMARK  status: ('A' for Active; 'I' for Inactive)
REMARK    1  A    between atoms: C_1  and  C_2
REMARK    2  A    between atoms: C_4  and  C_5
REMARK    3  A    between atoms: C_11  and  C_12
REMARK    4  A    between atoms: N_14  and  C_15
REMARK    5  A    between atoms: C_15  and  C_16
REMARK    6  A    between atoms: C_16  and  N_17
REMARK    7  A    between atoms: N_17  and  C_18
REMARK    8  A    between atoms: N_17  and  C_19
REMARK                            x       y       z     vdW  Elec       q    Type
REMARK                         _______ _______ _______ _____ _____    ______ ____
ROOT
ATOM      1  C   UNL     1       6.576   4.565  14.271  0.00  0.00    +0.000 A 
ATOM      2  N   UNL     1       7.527   5.488  14.068  0.00  0.00    +0.000 NA
ATOM      3  O   UNL     1       7.772   6.048  15.312  0.00  0.00    +0.000 OA
ATOM      4  C   UNL     1       6.984   5.449  16.242  0.00  0.00    +0.000 A 
ATOM      5  C   UNL     1       6.972   5.726  17.607  0.00  0.00    +0.000 A 
ATOM      6  C   UNL     1       6.095   4.964  18.397  0.00  0.00    +0.000 A 
ATOM      7  C   UNL     1       5.265   3.990  17.822  0.00  0.00    +0.000 A 
ATOM      8  C   UNL     1       5.289   3.762  16.431  0.00  0.00    +0.000 A 
ATOM      9  C   UNL     1       6.185   4.497  15.633  0.00  0.00    +0.000 A 
ENDROOT
BRANCH   1  13
ATOM     10  C   UNL     1       6.150   1.090  10.794  0.00  0.00    +0.000 C 
ATOM     11  C   UNL     1       5.952   2.230  11.709  0.00  0.00    +0.000 A 
ATOM     12  N   UNL     1       6.789   2.752  12.583  0.00  0.00    +0.000 NA
ATOM     13  C   UNL     1       6.048   3.738  13.193  0.00  0.00    +0.000 A 
ATOM     14  C   UNL     1       4.792   3.785  12.638  0.00  0.00    +0.000 A 
ATOM     15  O   UNL     1       4.717   2.821  11.680  0.00  0.00    +0.000 OA
ENDBRANCH   1  13
BRANCH   7  16
ATOM     16  C   UNL     1       4.327   3.160  18.630  0.00  0.00    +0.000 C 
ATOM     17  O   UNL     1       4.661   2.782  19.752  0.00  0.00    +0.000 OA
ATOM     18  N   UNL     1       3.091   2.886  18.092  0.00  0.00    +0.000 N 
ATOM     19  H   UNL     1       2.825   3.199  17.166  0.00  0.00    +0.000 HD
BRANCH  18  20
ATOM     20  C   UNL     1       2.108   2.132  18.850  0.00  0.00    +0.000 C 
BRANCH  20  21
ATOM     21  C   UNL     1       0.872   2.965  19.235  0.00  0.00    +0.000 C 
BRANCH  21  22
ATOM     22  N   UNL     1       0.922   3.528  20.604  0.00  0.00    +0.000 NA
ATOM     23  C   UNL     1       1.644   2.643  21.524  0.00  0.00    +0.000 C 
ATOM     24  C   UNL     1       1.577   4.841  20.580  0.00  0.00    +0.000 C 
ENDBRANCH  21  22
ENDBRANCH  20  21
ENDBRANCH  18  20
ENDBRANCH   7  16
TORSDOF 5
ENDMDL
MODEL 3
REMARK VINA RESULT:      -7.5      4.559      6.032
REMARK  Name = 
REMARK  8 active torsions:
REMARK  status: ('A' for Active; 'I' for Inactive)
REMARK    1  A    between atoms: C_1  and  C_2
REMARK    2  A    between atoms: C_4  and  C_5
REMARK    3  A    between atoms: C_11  and  C_12
REMARK    4  A    between atoms: N_14  and  C_15
REMARK    5  A    between atoms: C_15  and  C_16
REMARK    6  A    between atoms: C_16  and  N_17
REMARK    7  A    between atoms: N_17  and  C_18
REMARK    8  A    between atoms: N_17  and  C_19
REMARK                            x       y       z     vdW  Elec       q    Type
REMARK                         _______ _______ _______ _____ _____    ______ ____
ROOT
ATOM      1  C   UNL     1       4.913   4.258  18.319  0.00  0.00    +0.000 A 
ATOM      2  N   UNL     1       4.900   3.201  19.144  0.00  0.00    +0.000 NA
ATOM      3  O   UNL     1       3.938   3.491  20.100  0.00  0.00    +0.000 OA
ATOM      4  C   UNL     1       3.379   4.698  19.830  0.00  0.00    +0.000 A 
ATOM      5  C   UNL     1       2.357   5.308  20.554  0.00  0.00    +0.000 A 
ATOM      6  C   UNL     1       1.904   6.551  20.081  0.00  0.00    +0.000 A 
ATOM      7  C   UNL     1       2.477   7.145  18.946  0.00  0.00    +0.000 A 
ATOM      8  C   UNL     1       3.530   6.506  18.260  0.00  0.00    +0.000 A 
ATOM      9  C   UNL     1       3.972   5.246  18.706  0.00  0.00    +0.000 A 
ENDROOT
BRANCH   1  13
ATOM     10  C   UNL     1       6.583   4.210  13.676  0.00  0.00    +0.000 C 
ATOM     11  C   UNL     1       6.435   4.277  15.142  0.00  0.00    +0.000 A 
ATOM     12  N   UNL     1       5.364   4.065  15.882  0.00  0.00    +0.000 NA
ATOM     13  C   UNL     1       5.795   4.332  17.161  0.00  0.00    +0.000 A 
ATOM     14  C   UNL     1       7.126   4.672  17.140  0.00  0.00    +0.000 A 
ATOM     15  O   UNL     1       7.551   4.639  15.847  0.00  0.00    +0.000 OA
ENDBRANCH   1  13
BRANCH   7  16
ATOM     16  C   UNL     1       2.020   8.459  18.414  0.00  0.00    +0.000 C 
ATOM     17  O   UNL     1       2.361   8.811  17.286  0.00  0.00    +0.000 OA
ATOM     18  N   UNL     1       1.186   9.215  19.206  0.00  0.00    +0.000 N 
ATOM     19  H   UNL     1       0.913   8.919  20.135  0.00  0.00    +0.000 HD
BRANCH  18  20
ATOM     20  C   UNL     1       0.657  10.479  18.724  0.00  0.00    +0.000 C 
BRANCH  20  21
ATOM     21  C   UNL     1      -0.821  10.394  18.303  0.00  0.00    +0.000 C 
BRANCH  21  22
ATOM     22  N   UNL     1      -1.685  11.435  18.906  0.00  0.00    +0.000 NA
ATOM     23  C   UNL     1      -1.012  12.738  18.944  0.00  0.00    +0.000 C 
ATOM     24  C   UNL     1      -2.930  11.555  18.139  0.00  0.00    +0.000 C 
ENDBRANCH  21  22
ENDBRANCH  20  21
ENDBRANCH  18  20
ENDBRANCH   7  16
TORSDOF 5
ENDMDL
MODEL 4
REMARK VINA RESULT:      -7.4      4.166      5.999
REMARK  Name = 
REMARK  8 active torsions:
REMARK  status: ('A' for Active; 'I' for Inactive)
REMARK    1  A    between atoms: C_1  and  C_2
REMARK    2  A    between atoms: C_4  and  C_5
REMARK    3  A    between atoms: C_11  and  C_12
REMARK    4  A    between atoms: N_14  and  C_15
REMARK    5  A    between atoms: C_15  and  C_16
REMARK    6  A    between atoms: C_16  and  N_17
REMARK    7  A    between atoms: N_17  and  C_18
REMARK    8  A    between atoms: N_17  and  C_19
REMARK                            x       y       z     vdW  Elec       q    Type
REMARK                         _______ _______ _______ _____ _____    ______ ____
ROOT
ATOM      1  C   UNL     1       4.807   4.109  18.604  0.00  0.00    +0.000 A 
ATOM      2  N   UNL     1       4.722   2.948  19.269  0.00  0.00    +0.000 NA
ATOM      3  O   UNL     1       3.697   3.121  20.187  0.00  0.00    +0.000 OA
ATOM      4  C   UNL     1       3.175   4.367  20.053  0.00  0.00    +0.000 A 
ATOM      5  C   UNL     1       2.111   4.893  20.784  0.00  0.00    +0.000 A 
ATOM      6  C   UNL     1       1.710   6.199  20.461  0.00  0.00    +0.000 A 
ATOM      7  C   UNL     1       2.370   6.934  19.464  0.00  0.00    +0.000 A 
ATOM      8  C   UNL     1       3.461   6.373  18.769  0.00  0.00    +0.000 A 
ATOM      9  C   UNL     1       3.854   5.054  19.062  0.00  0.00    +0.000 A 
ENDROOT
BRANCH   1  13
ATOM     10  C   UNL     1       6.798   4.717  14.131  0.00  0.00    +0.000 C 
ATOM     11  C   UNL     1       6.549   4.559  15.576  0.00  0.00    +0.000 A 
ATOM     12  N   UNL     1       5.422   4.282  16.202  0.00  0.00    +0.000 NA
ATOM     13  C   UNL     1       5.771   4.325  17.532  0.00  0.00    +0.000 A 
ATOM     14  C   UNL     1       7.111   4.605  17.652  0.00  0.00    +0.000 A 
ATOM     15  O   UNL     1       7.625   4.757  16.400  0.00  0.00    +0.000 OA
ENDBRANCH   1  13
BRANCH   7  16
ATOM     16  C   UNL     1       1.968   8.320  19.093  0.00  0.00    +0.000 C 
ATOM     17  O   UNL     1       2.391   8.817  18.050  0.00  0.00    +0.000 OA
ATOM     18  N   UNL     1       1.093   8.976  19.927  0.00  0.00    +0.000 N 
ATOM     19  H   UNL     1       0.753   8.561  20.786  0.00  0.00    +0.000 HD
BRANCH  18  20
ATOM     20  C   UNL     1       0.616  10.308  19.594  0.00  0.00    +0.000 C 
BRANCH  20  21
ATOM     21  C   UNL     1      -0.496  10.804  20.536  0.00  0.00    +0.000 C 
BRANCH  21  22
ATOM     22  N   UNL     1      -0.002  11.357  21.819  0.00  0.00    +0.000 NA
ATOM     23  C   UNL     1      -0.179  12.812  21.881  0.00  0.00    +0.000 C 
ATOM     24  C   UNL     1      -0.718  10.734  22.938  0.00  0.00    +0.000 C 
ENDBRANCH  21  22
ENDBRANCH  20  21
ENDBRANCH  18  20
ENDBRANCH   7  16
TORSDOF 5
ENDMDL
MODEL 5
REMARK VINA RESULT:      -7.3      4.170      6.020
REMARK  Name = 
REMARK  8 active torsions:
REMARK  status: ('A' for Active; 'I' for Inactive)
REMARK    1  A    between atoms: C_1  and  C_2
REMARK    2  A    between atoms: C_4  and  C_5
REMARK    3  A    between atoms: C_11  and  C_12
REMARK    4  A    between atoms: N_14  and  C_15
REMARK    5  A    between atoms: C_15  and  C_16
REMARK    6  A    between atoms: C_16  and  N_17
REMARK    7  A    between atoms: N_17  and  C_18
REMARK    8  A    between atoms: N_17  and  C_19
REMARK                            x       y       z     vdW  Elec       q    Type
REMARK                         _______ _______ _______ _____ _____    ______ ____
ROOT
ATOM      1  C   UNL     1       4.827   3.833  18.763  0.00  0.00    +0.000 A 
ATOM      2  N   UNL     1       4.762   2.592  19.267  0.00  0.00    +0.000 NA
ATOM      3  O   UNL     1       3.719   2.619  20.181  0.00  0.00    +0.000 OA
ATOM      4  C   UNL     1       3.166   3.859  20.201  0.00  0.00    +0.000 A 
ATOM      5  C   UNL     1       2.078   4.258  20.974  0.00  0.00    +0.000 A 
ATOM      6  C   UNL     1       1.647   5.586  20.818  0.00  0.00    +0.000 A 
ATOM      7  C   UNL     1       2.304   6.461  19.940  0.00  0.00    +0.000 A 
ATOM      8  C   UNL     1       3.420   6.023  19.198  0.00  0.00    +0.000 A 
ATOM      9  C   UNL     1       3.843   4.686  19.322  0.00  0.00    +0.000 A 
ENDROOT
BRANCH   1  13
ATOM     10  C   UNL     1       6.940   4.800  14.410  0.00  0.00    +0.000 C 
ATOM     11  C   UNL     1       6.640   4.588  15.839  0.00  0.00    +0.000 A 
ATOM     12  N   UNL     1       5.539   4.128  16.399  0.00  0.00    +0.000 NA
ATOM     13  C   UNL     1       5.802   4.211  17.747  0.00  0.00    +0.000 A 
ATOM     14  C   UNL     1       7.072   4.698  17.942  0.00  0.00    +0.000 A 
ATOM     15  O   UNL     1       7.623   4.944  16.722  0.00  0.00    +0.000 OA
ENDBRANCH   1  13
BRANCH   7  16
ATOM     16  C   UNL     1       1.872   7.874  19.746  0.00  0.00    +0.000 C 
ATOM     17  O   UNL     1       1.555   8.552  20.722  0.00  0.00    +0.000 OA
ATOM     18  N   UNL     1       1.889   8.377  18.466  0.00  0.00    +0.000 N 
ATOM     19  H   UNL     1       2.148   7.811  17.668  0.00  0.00    +0.000 HD
BRANCH  18  20
ATOM     20  C   UNL     1       1.535   9.764  18.214  0.00  0.00    +0.000 C 
BRANCH  20  21
ATOM     21  C   UNL     1       0.018   9.986  18.085  0.00  0.00    +0.000 C 
BRANCH  21  22
ATOM     22  N   UNL     1      -0.462  11.259  18.671  0.00  0.00    +0.000 NA
ATOM     23  C   UNL     1      -1.628  11.779  17.949  0.00  0.00    +0.000 C 
ATOM     24  C   UNL     1      -0.815  11.056  20.080  0.00  0.00    +0.000 C 
ENDBRANCH  21  22
ENDBRANCH  20  21
ENDBRANCH  18  20
ENDBRANCH   7  16
TORSDOF 5
ENDMDL
MODEL 6
REMARK VINA RESULT:      -7.3      4.787      6.250
REMARK  Name = 
REMARK  8 active torsions:
REMARK  status: ('A' for Active; 'I' for Inactive)
REMARK    1  A    between atoms: C_1  and  C_2
REMARK    2  A    between atoms: C_4  and  C_5
REMARK    3  A    between atoms: C_11  and  C_12
REMARK    4  A    between atoms: N_14  and  C_15
REMARK    5  A    between atoms: C_15  and  C_16
REMARK    6  A    between atoms: C_16  and  N_17
REMARK    7  A    between atoms: N_17  and  C_18
REMARK    8  A    between atoms: N_17  and  C_19
REMARK                            x       y       z     vdW  Elec       q    Type
REMARK                         _______ _______ _______ _____ _____    ______ ____
ROOT
ATOM      1  C   UNL     1       4.903   4.290  18.292  0.00  0.00    +0.000 A 
ATOM      2  N   UNL     1       4.895   3.240  19.126  0.00  0.00    +0.000 NA
ATOM      3  O   UNL     1       3.941   3.540  20.087  0.00  0.00    +0.000 OA
ATOM      4  C   UNL     1       3.382   4.746  19.811  0.00  0.00    +0.000 A 
ATOM      5  C   UNL     1       2.367   5.364  20.538  0.00  0.00    +0.000 A 
ATOM      6  C   UNL     1       1.913   6.603  20.057  0.00  0.00    +0.000 A 
ATOM      7  C   UNL     1       2.477   7.187  18.913  0.00  0.00    +0.000 A 
ATOM      8  C   UNL     1       3.524   6.539  18.224  0.00  0.00    +0.000 A 
ATOM      9  C   UNL     1       3.967   5.282  18.678  0.00  0.00    +0.000 A 
ENDROOT
BRANCH   1  13
ATOM     10  C   UNL     1       6.546   4.144  13.642  0.00  0.00    +0.000 C 
ATOM     11  C   UNL     1       6.405   4.252  15.106  0.00  0.00    +0.000 A 
ATOM     12  N   UNL     1       5.345   4.034  15.859  0.00  0.00    +0.000 NA
ATOM     13  C   UNL     1       5.776   4.352  17.126  0.00  0.00    +0.000 A 
ATOM     14  C   UNL     1       7.097   4.728  17.086  0.00  0.00    +0.000 A 
ATOM     15  O   UNL     1       7.515   4.667  15.792  0.00  0.00    +0.000 OA
ENDBRANCH   1  13
BRANCH   7  16
ATOM     16  C   UNL     1       2.018   8.497  18.373  0.00  0.00    +0.000 C 
ATOM     17  O   UNL     1       2.370   8.849  17.248  0.00  0.00    +0.000 OA
ATOM     18  N   UNL     1       1.170   9.248  19.154  0.00  0.00    +0.000 N 
ATOM     19  H   UNL     1       0.889   8.953  20.081  0.00  0.00    +0.000 HD
BRANCH  18  20
ATOM     20  C   UNL     1       0.639  10.509  18.664  0.00  0.00    +0.000 C 
BRANCH  20  21
ATOM     21  C   UNL     1       1.398  11.734  19.203  0.00  0.00    +0.000 C 
BRANCH  21  22
ATOM     22  N   UNL     1       1.189  12.972  18.418  0.00  0.00    +0.000 NA
ATOM     23  C   UNL     1      -0.200  13.437  18.505  0.00  0.00    +0.000 C 
ATOM     24  C   UNL     1       2.085  14.028  18.903  0.00  0.00    +0.000 C 
ENDBRANCH  21  22
ENDBRANCH  20  21
ENDBRANCH  18  20
ENDBRANCH   7  16
TORSDOF 5
ENDMDL
MODEL 7
REMARK VINA RESULT:      -7.3      3.455      5.701
REMARK  Name = 
REMARK  8 active torsions:
REMARK  status: ('A' for Active; 'I' for Inactive)
REMARK    1  A    between atoms: C_1  and  C_2
REMARK    2  A    between atoms: C_4  and  C_5
REMARK    3  A    between atoms: C_11  and  C_12
REMARK    4  A    between atoms: N_14  and  C_15
REMARK    5  A    between atoms: C_15  and  C_16
REMARK    6  A    between atoms: C_16  and  N_17
REMARK    7  A    between atoms: N_17  and  C_18
REMARK    8  A    between atoms: N_17  and  C_19
REMARK                            x       y       z     vdW  Elec       q    Type
REMARK                         _______ _______ _______ _____ _____    ______ ____
ROOT
ATOM      1  C   UNL     1       6.144   5.331  17.278  0.00  0.00    +0.000 A 
ATOM      2  N   UNL     1       6.453   4.519  16.257  0.00  0.00    +0.000 NA
ATOM      3  O   UNL     1       5.357   3.683  16.104  0.00  0.00    +0.000 OA
ATOM      4  C   UNL     1       4.406   4.011  17.017  0.00  0.00    +0.000 A 
ATOM      5  C   UNL     1       3.156   3.410  17.150  0.00  0.00    +0.000 A 
ATOM      6  C   UNL     1       2.311   3.927  18.146  0.00  0.00    +0.000 A 
ATOM      7  C   UNL     1       2.728   4.982  18.972  0.00  0.00    +0.000 A 
ATOM      8  C   UNL     1       4.014   5.541  18.822  0.00  0.00    +0.000 A 
ATOM      9  C   UNL     1       4.858   5.053  17.807  0.00  0.00    +0.000 A 
ENDROOT
BRANCH   1  13
ATOM     10  C   UNL     1       8.432   9.670  17.807  0.00  0.00    +0.000 C 
ATOM     11  C   UNL     1       7.991   8.266  17.897  0.00  0.00    +0.000 A 
ATOM     12  N   UNL     1       7.089   7.628  17.177  0.00  0.00    +0.000 NA
ATOM     13  C   UNL     1       7.048   6.376  17.745  0.00  0.00    +0.000 A 
ATOM     14  C   UNL     1       7.951   6.303  18.776  0.00  0.00    +0.000 A 
ATOM     15  O   UNL     1       8.567   7.513  18.885  0.00  0.00    +0.000 OA
ENDBRANCH   1  13
BRANCH   7  16
ATOM     16  C   UNL     1       1.857   5.557  20.035  0.00  0.00    +0.000 C 
ATOM     17  O   UNL     1       1.125   4.817  20.689  0.00  0.00    +0.000 OA
ATOM     18  N   UNL     1       1.945   6.910  20.270  0.00  0.00    +0.000 N 
ATOM     19  H   UNL     1       2.548   7.514  19.724  0.00  0.00    +0.000 HD
BRANCH  18  20
ATOM     20  C   UNL     1       1.166   7.526  21.331  0.00  0.00    +0.000 C 
BRANCH  20  21
ATOM     21  C   UNL     1       1.240   9.064  21.319  0.00  0.00    +0.000 C 
BRANCH  21  22
ATOM     22  N   UNL     1       0.062   9.723  20.710  0.00  0.00    +0.000 NA
ATOM     23  C   UNL     1      -0.338  10.916  21.465  0.00  0.00    +0.000 C 
ATOM     24  C   UNL     1       0.365  10.106  19.326  0.00  0.00    +0.000 C 
ENDBRANCH  21  22
ENDBRANCH  20  21
ENDBRANCH  18  20
ENDBRANCH   7  16
TORSDOF 5
ENDMDL
MODEL 8
REMARK VINA RESULT:      -7.1      1.309      1.327
REMARK  Name = 
REMARK  8 active torsions:
REMARK  status: ('A' for Active; 'I' for Inactive)
REMARK    1  A    between atoms: C_1  and  C_2
REMARK    2  A    between atoms: C_4  and  C_5
REMARK    3  A    between atoms: C_11  and  C_12
REMARK    4  A    between atoms: N_14  and  C_15
REMARK    5  A    between atoms: C_15  and  C_16
REMARK    6  A    between atoms: C_16  and  N_17
REMARK    7  A    between atoms: N_17  and  C_18
REMARK    8  A    between atoms: N_17  and  C_19
REMARK                            x       y       z     vdW  Elec       q    Type
REMARK                         _______ _______ _______ _____ _____    ______ ____
ROOT
ATOM      1  C   UNL     1       6.488   4.508  13.814  0.00  0.00    +0.000 A 
ATOM      2  N   UNL     1       7.735   4.985  13.692  0.00  0.00    +0.000 NA
ATOM      3  O   UNL     1       7.987   5.667  14.873  0.00  0.00    +0.000 OA
ATOM      4  C   UNL     1       6.905   5.578  15.688  0.00  0.00    +0.000 A 
ATOM      5  C   UNL     1       6.798   6.115  16.969  0.00  0.00    +0.000 A 
ATOM      6  C   UNL     1       5.594   5.878  17.652  0.00  0.00    +0.000 A 
ATOM      7  C   UNL     1       4.552   5.153  17.054  0.00  0.00    +0.000 A 
ATOM      8  C   UNL     1       4.693   4.653  15.743  0.00  0.00    +0.000 A 
ATOM      9  C   UNL     1       5.906   4.857  15.059  0.00  0.00    +0.000 A 
ENDROOT
BRANCH   1  13
ATOM     10  C   UNL     1       3.272   2.905  10.433  0.00  0.00    +0.000 C 
ATOM     11  C   UNL     1       4.413   3.081  11.351  0.00  0.00    +0.000 A 
ATOM     12  N   UNL     1       4.596   3.994  12.285  0.00  0.00    +0.000 NA
ATOM     13  C   UNL     1       5.852   3.712  12.771  0.00  0.00    +0.000 A 
ATOM     14  C   UNL     1       6.367   2.617  12.120  0.00  0.00    +0.000 A 
ATOM     15  O   UNL     1       5.450   2.200  11.204  0.00  0.00    +0.000 OA
ENDBRANCH   1  13
BRANCH   7  16
ATOM     16  C   UNL     1       3.264   4.879  17.751  0.00  0.00    +0.000 C 
ATOM     17  O   UNL     1       2.697   5.785  18.360  0.00  0.00    +0.000 OA
ATOM     18  N   UNL     1       2.736   3.613  17.643  0.00  0.00    +0.000 N 
ATOM     19  H   UNL     1       3.211   2.872  17.143  0.00  0.00    +0.000 HD
BRANCH  18  20
ATOM     20  C   UNL     1       1.455   3.295  18.250  0.00  0.00    +0.000 C 
BRANCH  20  21
ATOM     21  C   UNL     1       1.574   2.318  19.433  0.00  0.00    +0.000 C 
BRANCH  21  22
ATOM     22  N   UNL     1       1.084   2.861  20.721  0.00  0.00    +0.000 NA
ATOM     23  C   UNL     1       1.973   2.500  21.831  0.00  0.00    +0.000 C 
ATOM     24  C   UNL     1       0.981   4.322  20.638  0.00  0.00    +0.000 C 
ENDBRANCH  21  22
ENDBRANCH  20  21
ENDBRANCH  18  20
ENDBRANCH   7  16
TORSDOF 5
ENDMDL
MODEL 9
REMARK VINA RESULT:      -7.1      1.561      1.699
REMARK  Name = 
REMARK  8 active torsions:
REMARK  status: ('A' for Active; 'I' for Inactive)
REMARK    1  A    between atoms: C_1  and  C_2
REMARK    2  A    between atoms: C_4  and  C_5
REMARK    3  A    between atoms: C_11  and  C_12
REMARK    4  A    between atoms: N_14  and  C_15
REMARK    5  A    between atoms: C_15  and  C_16
REMARK    6  A    between atoms: C_16  and  N_17
REMARK    7  A    between atoms: N_17  and  C_18
REMARK    8  A    between atoms: N_17  and  C_19
REMARK                            x       y       z     vdW  Elec       q    Type
REMARK                         _______ _______ _______ _____ _____    ______ ____
ROOT
ATOM      1  C   UNL     1       6.531   4.520  13.926  0.00  0.00    +0.000 A 
ATOM      2  N   UNL     1       7.732   5.106  13.810  0.00  0.00    +0.000 NA
ATOM      3  O   UNL     1       7.890   5.856  14.966  0.00  0.00    +0.000 OA
ATOM      4  C   UNL     1       6.800   5.700  15.760  0.00  0.00    +0.000 A 
ATOM      5  C   UNL     1       6.611   6.276  17.015  0.00  0.00    +0.000 A 
ATOM      6  C   UNL     1       5.416   5.956  17.681  0.00  0.00    +0.000 A 
ATOM      7  C   UNL     1       4.461   5.114  17.091  0.00  0.00    +0.000 A 
ATOM      8  C   UNL     1       4.681   4.576  15.807  0.00  0.00    +0.000 A 
ATOM      9  C   UNL     1       5.887   4.864  15.141  0.00  0.00    +0.000 A 
ENDROOT
BRANCH   1  13
ATOM     10  C   UNL     1       6.016   0.740  10.797  0.00  0.00    +0.000 C 
ATOM     11  C   UNL     1       5.861   1.983  11.576  0.00  0.00    +0.000 A 
ATOM     12  N   UNL     1       6.688   2.528  12.446  0.00  0.00    +0.000 NA
ATOM     13  C   UNL     1       5.998   3.627  12.904  0.00  0.00    +0.000 A 
ATOM     14  C   UNL     1       4.784   3.712  12.266  0.00  0.00    +0.000 A 
ATOM     15  O   UNL     1       4.683   2.660  11.408  0.00  0.00    +0.000 OA
ENDBRANCH   1  13
BRANCH   7  16
ATOM     16  C   UNL     1       3.187   4.750  17.771  0.00  0.00    +0.000 C 
ATOM     17  O   UNL     1       2.592   5.593  18.441  0.00  0.00    +0.000 OA
ATOM     18  N   UNL     1       2.701   3.477  17.580  0.00  0.00    +0.000 N 
ATOM     19  H   UNL     1       3.199   2.788  17.030  0.00  0.00    +0.000 HD
BRANCH  18  20
ATOM     20  C   UNL     1       1.435   3.075  18.167  0.00  0.00    +0.000 C 
BRANCH  20  21
ATOM     21  C   UNL     1       1.584   1.968  19.226  0.00  0.00    +0.000 C 
BRANCH  21  22
ATOM     22  N   UNL     1       1.689   2.468  20.616  0.00  0.00    +0.000 NA
ATOM     23  C   UNL     1       3.089   2.616  21.031  0.00  0.00    +0.000 C 
ATOM     24  C   UNL     1       1.010   3.764  20.733  0.00  0.00    +0.000 C 
ENDBRANCH  21  22
ENDBRANCH  20  21
ENDBRANCH  18  20
ENDBRANCH   7  16
TORSDOF 5
ENDMDL
