MODEL 1
REMARK VINA RESULT:      -7.1      0.000      0.000
REMARK  Name = 
REMARK  7 active torsions:
REMARK  status: ('A' for Active; 'I' for Inactive)
REMARK    1  A    between atoms: C_1  and  O_2
REMARK    2  A    between atoms: O_2  and  C_3
REMARK    3  A    between atoms: C_3  and  C_4
REMARK    4  A    between atoms: N_11  and  C_12
REMARK    5  A    between atoms: C_12  and  C_13
REMARK    6  A    between atoms: C_16  and  S_17
REMARK    7  A    between atoms: S_17  and  N_18
REMARK                            x       y       z     vdW  Elec       q    Type
REMARK                         _______ _______ _______ _____ _____    ______ ____
ROOT
ATOM      1  C   UNL     1       2.765   5.414  19.855  0.00  0.00    +0.000 C 
ENDROOT
BRANCH   1   9
ATOM      2  C   UNL     1       6.927   4.700  17.228  0.00  0.00    +0.000 C 
ATOM      3  C   UNL     1       6.969   4.675  15.693  0.00  0.00    +0.000 C 
ATOM      4  C   UNL     1       5.784   3.802  15.315  0.00  0.00    +0.000 C 
ATOM      5  C   UNL     1       4.750   4.124  16.380  0.00  0.00    +0.000 C 
ATOM      6  N   UNL     1       5.475   4.755  17.479  0.00  0.00    +0.000 N 
ATOM      7  C   UNL     1       4.904   5.078  18.693  0.00  0.00    +0.000 C 
ATOM      8  O   UNL     1       5.529   5.426  19.688  0.00  0.00    +0.000 OA
ATOM      9  N   UNL     1       3.532   4.986  18.710  0.00  0.00    +0.000 N 
ATOM     10  H   UNL     1       3.073   5.098  17.822  0.00  0.00    +0.000 HD
BRANCH   2  11
ATOM     11  C   UNL     1       7.806   5.854  17.740  0.00  0.00    +0.000 C 
BRANCH  11  13
ATOM     12  C   UNL     1       7.758   8.208  17.622  0.00  0.00    +0.000 C 
ATOM     13  O   UNL     1       7.721   6.994  16.886  0.00  0.00    +0.000 OA
ENDBRANCH  11  13
ENDBRANCH   2  11
ENDBRANCH   1   9
BRANCH   1  14
ATOM     14  C   UNL     1       2.221   6.806  19.639  0.00  0.00    +0.000 A 
ATOM     15  C   UNL     1       2.382   7.456  18.406  0.00  0.00    +0.000 A 
ATOM     16  C   UNL     1       1.912   8.760  18.228  0.00  0.00    +0.000 A 
ATOM     17  C   UNL     1       1.276   9.414  19.287  0.00  0.00    +0.000 A 
ATOM     18  C   UNL     1       1.131   8.790  20.527  0.00  0.00    +0.000 A 
ATOM     19  C   UNL     1       1.604   7.489  20.700  0.00  0.00    +0.000 A 
BRANCH  17  20
ATOM     20  S   UNL     1       0.716  11.076  19.077  0.00  0.00    +0.000 S 
ATOM     21  O   UNL     1      -0.539  11.076  18.369  0.00  0.00    +0.000 OA
ATOM     22  O   UNL     1       0.912  11.805  20.310  0.00  0.00    +0.000 OA
BRANCH  20  23
ATOM     23  N   UNL     1       1.853  11.688  18.000  0.00  0.00    +0.000 NA
ATOM     24  H   UNL     1       1.954  11.057  17.206  0.00  0.00    +0.000 HD
ATOM     25  H   UNL     1       1.607  12.645  17.741  0.00  0.00    +0.000 HD
ENDBRANCH  20  23
ENDBRANCH  17  20
ENDBRANCH   1  14
TORSDOF 6
ENDMDL
MODEL 2
REMARK VINA RESULT:      -7.1      0.730      1.303
REMARK  Name = 
REMARK  7 active torsions:
REMARK  status: ('A' for Active; 'I' for Inactive)
REMARK    1  A    between atoms: C_1  and  O_2
REMARK    2  A    between atoms: O_2  and  C_3
REMARK    3  A    between atoms: C_3  and  C_4
REMARK    4  A    between atoms: N_11  and  C_12
REMARK    5  A    between atoms: C_12  and  C_13
REMARK    6  A    between atoms: C_16  and  S_17
REMARK    7  A    between atoms: S_17  and  N_18
REMARK                            x       y       z     vdW  Elec       q    Type
REMARK                         _______ _______ _______ _____ _____    ______ ____
ROOT
ATOM      1  C   UNL     1       2.739   5.399  19.894  0.00  0.00    +0.000 C 
ENDROOT
BRANCH   1   9
ATOM      2  C   UNL     1       6.904   4.739  17.259  0.00  0.00    +0.000 C 
ATOM      3  C   UNL     1       6.946   4.728  15.724  0.00  0.00    +0.000 C 
ATOM      4  C   UNL     1       5.768   3.849  15.339  0.00  0.00    +0.000 C 
ATOM      5  C   UNL     1       4.731   4.155  16.407  0.00  0.00    +0.000 C 
ATOM      6  N   UNL     1       5.452   4.781  17.511  0.00  0.00    +0.000 N 
ATOM      7  C   UNL     1       4.880   5.089  18.729  0.00  0.00    +0.000 C 
ATOM      8  O   UNL     1       5.503   5.433  19.726  0.00  0.00    +0.000 OA
ATOM      9  N   UNL     1       3.509   4.986  18.745  0.00  0.00    +0.000 N 
ATOM     10  H   UNL     1       3.048   5.103  17.859  0.00  0.00    +0.000 HD
BRANCH   2  11
ATOM     11  C   UNL     1       7.776   5.895  17.781  0.00  0.00    +0.000 C 
BRANCH  11  13
ATOM     12  C   UNL     1       7.710   8.245  17.596  0.00  0.00    +0.000 C 
ATOM     13  O   UNL     1       7.748   7.011  16.892  0.00  0.00    +0.000 OA
ENDBRANCH  11  13
ENDBRANCH   2  11
ENDBRANCH   1   9
BRANCH   1  14
ATOM     14  C   UNL     1       2.233   6.810  19.716  0.00  0.00    +0.000 A 
ATOM     15  C   UNL     1       1.577   7.475  20.764  0.00  0.00    +0.000 A 
ATOM     16  C   UNL     1       1.075   8.766  20.577  0.00  0.00    +0.000 A 
ATOM     17  C   UNL     1       1.234   9.394  19.339  0.00  0.00    +0.000 A 
ATOM     18  C   UNL     1       1.862   8.737  18.280  0.00  0.00    +0.000 A 
ATOM     19  C   UNL     1       2.359   7.448  18.471  0.00  0.00    +0.000 A 
BRANCH  17  20
ATOM     20  S   UNL     1       0.567  11.011  19.089  0.00  0.00    +0.000 S 
ATOM     21  O   UNL     1      -0.237  11.383  20.225  0.00  0.00    +0.000 OA
ATOM     22  O   UNL     1       1.596  11.872  18.550  0.00  0.00    +0.000 OA
BRANCH  20  23
ATOM     23  N   UNL     1      -0.513  10.747  17.828  0.00  0.00    +0.000 NA
ATOM     24  H   UNL     1      -0.426  11.490  17.136  0.00  0.00    +0.000 HD
ATOM     25  H   UNL     1      -0.381   9.808  17.447  0.00  0.00    +0.000 HD
ENDBRANCH  20  23
ENDBRANCH  17  20
ENDBRANCH   1  14
TORSDOF 6
ENDMDL
MODEL 3
REMARK VINA RESULT:      -6.9      3.206      7.972
REMARK  Name = 
REMARK  7 active torsions:
REMARK  status: ('A' for Active; 'I' for Inactive)
REMARK    1  A    between atoms: C_1  and  O_2
REMARK    2  A    between atoms: O_2  and  C_3
REMARK    3  A    between atoms: C_3  and  C_4
REMARK    4  A    between atoms: N_11  and  C_12
REMARK    5  A    between atoms: C_12  and  C_13
REMARK    6  A    between atoms: C_16  and  S_17
REMARK    7  A    between atoms: S_17  and  N_18
REMARK                            x       y       z     vdW  Elec       q    Type
REMARK                         _______ _______ _______ _____ _____    ______ ____
ROOT
ATOM      1  C   UNL     1       2.254   6.474  19.874  0.00  0.00    +0.000 C 
ENDROOT
BRANCH   1   9
ATOM      2  C   UNL     1       0.453  10.945  21.097  0.00  0.00    +0.000 C 
ATOM      3  C   UNL     1      -0.284  11.863  20.111  0.00  0.00    +0.000 C 
ATOM      4  C   UNL     1       0.576  11.810  18.859  0.00  0.00    +0.000 C 
ATOM      5  C   UNL     1       1.104  10.385  18.849  0.00  0.00    +0.000 C 
ATOM      6  N   UNL     1       0.919   9.870  20.202  0.00  0.00    +0.000 N 
ATOM      7  C   UNL     1       1.395   8.648  20.632  0.00  0.00    +0.000 C 
ATOM      8  O   UNL     1       1.421   8.281  21.800  0.00  0.00    +0.000 OA
ATOM      9  N   UNL     1       1.848   7.835  19.619  0.00  0.00    +0.000 N 
ATOM     10  H   UNL     1       1.446   7.997  18.712  0.00  0.00    +0.000 HD
BRANCH   2  11
ATOM     11  C   UNL     1      -0.494  10.581  22.254  0.00  0.00    +0.000 C 
BRANCH  11  13
ATOM     12  C   UNL     1      -2.222  11.815  23.277  0.00  0.00    +0.000 C 
ATOM     13  O   UNL     1      -0.825  11.726  23.037  0.00  0.00    +0.000 OA
ENDBRANCH  11  13
ENDBRANCH   2  11
ENDBRANCH   1   9
BRANCH   1  14
ATOM     14  C   UNL     1       3.421   6.094  18.995  0.00  0.00    +0.000 A 
ATOM     15  C   UNL     1       3.676   6.788  17.802  0.00  0.00    +0.000 A 
ATOM     16  C   UNL     1       4.734   6.404  16.973  0.00  0.00    +0.000 A 
ATOM     17  C   UNL     1       5.540   5.323  17.341  0.00  0.00    +0.000 A 
ATOM     18  C   UNL     1       5.284   4.608  18.512  0.00  0.00    +0.000 A 
ATOM     19  C   UNL     1       4.226   4.995  19.334  0.00  0.00    +0.000 A 
BRANCH  17  20
ATOM     20  S   UNL     1       6.854   4.812  16.277  0.00  0.00    +0.000 S 
ATOM     21  O   UNL     1       6.424   3.688  15.485  0.00  0.00    +0.000 OA
ATOM     22  O   UNL     1       7.477   5.979  15.694  0.00  0.00    +0.000 OA
BRANCH  20  23
ATOM     23  N   UNL     1       7.969   4.201  17.376  0.00  0.00    +0.000 NA
ATOM     24  H   UNL     1       8.232   3.252  17.113  0.00  0.00    +0.000 HD
ATOM     25  H   UNL     1       8.760   4.841  17.463  0.00  0.00    +0.000 HD
ENDBRANCH  20  23
ENDBRANCH  17  20
ENDBRANCH   1  14
TORSDOF 6
ENDMDL
MODEL 4
REMARK VINA RESULT:      -6.8      3.160      7.954
REMARK  Name = 
REMARK  7 active torsions:
REMARK  status: ('A' for Active; 'I' for Inactive)
REMARK    1  A    between atoms: C_1  and  O_2
REMARK    2  A    between atoms: O_2  and  C_3
REMARK    3  A    between atoms: C_3  and  C_4
REMARK    4  A    between atoms: N_11  and  C_12
REMARK    5  A    between atoms: C_12  and  C_13
REMARK    6  A    between atoms: C_16  and  S_17
REMARK    7  A    between atoms: S_17  and  N_18
REMARK                            x       y       z     vdW  Elec       q    Type
REMARK                         _______ _______ _______ _____ _____    ______ ____
ROOT
ATOM      1  C   UNL     1       2.414   6.375  19.948  0.00  0.00    +0.000 C 
ENDROOT
BRANCH   1   9
ATOM      2  C   UNL     1       0.404  10.807  20.972  0.00  0.00    +0.000 C 
ATOM      3  C   UNL     1      -0.315  11.675  19.930  0.00  0.00    +0.000 C 
ATOM      4  C   UNL     1       0.606  11.624  18.722  0.00  0.00    +0.000 C 
ATOM      5  C   UNL     1       1.182  10.218  18.772  0.00  0.00    +0.000 C 
ATOM      6  N   UNL     1       0.949   9.728  20.127  0.00  0.00    +0.000 N 
ATOM      7  C   UNL     1       1.445   8.534  20.610  0.00  0.00    +0.000 C 
ATOM      8  O   UNL     1       1.427   8.195  21.787  0.00  0.00    +0.000 OA
ATOM      9  N   UNL     1       1.974   7.715  19.641  0.00  0.00    +0.000 N 
ATOM     10  H   UNL     1       1.611   7.841  18.711  0.00  0.00    +0.000 HD
BRANCH   2  11
ATOM     11  C   UNL     1      -0.584  10.437  22.092  0.00  0.00    +0.000 C 
BRANCH  11  13
ATOM     12  C   UNL     1      -1.844  12.102  23.186  0.00  0.00    +0.000 C 
ATOM     13  O   UNL     1      -0.598  11.423  23.122  0.00  0.00    +0.000 OA
ENDBRANCH  11  13
ENDBRANCH   2  11
ENDBRANCH   1   9
BRANCH   1  14
ATOM     14  C   UNL     1       3.480   5.929  18.977  0.00  0.00    +0.000 A 
ATOM     15  C   UNL     1       4.302   4.830  19.270  0.00  0.00    +0.000 A 
ATOM     16  C   UNL     1       5.315   4.449  18.385  0.00  0.00    +0.000 A 
ATOM     17  C   UNL     1       5.503   5.170  17.202  0.00  0.00    +0.000 A 
ATOM     18  C   UNL     1       4.710   6.281  16.909  0.00  0.00    +0.000 A 
ATOM     19  C   UNL     1       3.702   6.657  17.797  0.00  0.00    +0.000 A 
BRANCH  17  20
ATOM     20  S   UNL     1       6.806   4.715  16.100  0.00  0.00    +0.000 S 
ATOM     21  O   UNL     1       6.845   5.634  14.992  0.00  0.00    +0.000 OA
ATOM     22  O   UNL     1       7.983   4.375  16.869  0.00  0.00    +0.000 OA
BRANCH  20  23
ATOM     23  N   UNL     1       6.235   3.263  15.474  0.00  0.00    +0.000 NA
ATOM     24  H   UNL     1       5.474   3.442  14.821  0.00  0.00    +0.000 HD
ATOM     25  H   UNL     1       7.008   2.728  15.074  0.00  0.00    +0.000 HD
ENDBRANCH  20  23
ENDBRANCH  17  20
ENDBRANCH   1  14
TORSDOF 6
ENDMDL
MODEL 5
REMARK VINA RESULT:      -6.8      1.033      1.213
REMARK  Name = 
REMARK  7 active torsions:
REMARK  status: ('A' for Active; 'I' for Inactive)
REMARK    1  A    between atoms: C_1  and  O_2
REMARK    2  A    between atoms: O_2  and  C_3
REMARK    3  A    between atoms: C_3  and  C_4
REMARK    4  A    between atoms: N_11  and  C_12
REMARK    5  A    between atoms: C_12  and  C_13
REMARK    6  A    between atoms: C_16  and  S_17
REMARK    7  A    between atoms: S_17  and  N_18
REMARK                            x       y       z     vdW  Elec       q    Type
REMARK                         _______ _______ _______ _____ _____    ______ ____
ROOT
ATOM      1  C   UNL     1       2.632   4.696  19.456  0.00  0.00    +0.000 C 
ENDROOT
BRANCH   1   9
ATOM      2  C   UNL     1       6.969   4.839  17.027  0.00  0.00    +0.000 C 
ATOM      3  C   UNL     1       7.086   5.023  15.507  0.00  0.00    +0.000 C 
ATOM      4  C   UNL     1       6.040   4.073  14.948  0.00  0.00    +0.000 C 
ATOM      5  C   UNL     1       4.925   4.125  15.978  0.00  0.00    +0.000 C 
ATOM      6  N   UNL     1       5.512   4.686  17.191  0.00  0.00    +0.000 N 
ATOM      7  C   UNL     1       4.849   4.774  18.398  0.00  0.00    +0.000 C 
ATOM      8  O   UNL     1       5.378   5.060  19.466  0.00  0.00    +0.000 OA
ATOM      9  N   UNL     1       3.501   4.518  18.317  0.00  0.00    +0.000 N 
ATOM     10  H   UNL     1       3.072   4.691  17.424  0.00  0.00    +0.000 HD
BRANCH   2  11
ATOM     11  C   UNL     1       7.671   6.012  17.734  0.00  0.00    +0.000 C 
BRANCH  11  13
ATOM     12  C   UNL     1       7.871   8.359  17.655  0.00  0.00    +0.000 C 
ATOM     13  O   UNL     1       7.730   7.166  16.898  0.00  0.00    +0.000 OA
ENDBRANCH  11  13
ENDBRANCH   2  11
ENDBRANCH   1   9
BRANCH   1  14
ATOM     14  C   UNL     1       2.184   6.133  19.564  0.00  0.00    +0.000 A 
ATOM     15  C   UNL     1       2.320   7.010  18.476  0.00  0.00    +0.000 A 
ATOM     16  C   UNL     1       1.942   8.350  18.597  0.00  0.00    +0.000 A 
ATOM     17  C   UNL     1       1.422   8.812  19.810  0.00  0.00    +0.000 A 
ATOM     18  C   UNL     1       1.304   7.958  20.907  0.00  0.00    +0.000 A 
ATOM     19  C   UNL     1       1.686   6.623  20.782  0.00  0.00    +0.000 A 
BRANCH  17  20
ATOM     20  S   UNL     1       0.978  10.514  19.977  0.00  0.00    +0.000 S 
ATOM     21  O   UNL     1       1.174  10.932  21.341  0.00  0.00    +0.000 OA
ATOM     22  O   UNL     1       1.506  11.256  18.854  0.00  0.00    +0.000 OA
BRANCH  20  23
ATOM     23  N   UNL     1      -0.686  10.459  19.746  0.00  0.00    +0.000 NA
ATOM     24  H   UNL     1      -1.151  11.052  20.432  0.00  0.00    +0.000 HD
ATOM     25  H   UNL     1      -0.911  10.690  18.777  0.00  0.00    +0.000 HD
ENDBRANCH  20  23
ENDBRANCH  17  20
ENDBRANCH   1  14
TORSDOF 6
ENDMDL
MODEL 6
REMARK VINA RESULT:      -6.7      3.973      7.996
REMARK  Name = 
REMARK  7 active torsions:
REMARK  status: ('A' for Active; 'I' for Inactive)
REMARK    1  A    between atoms: C_1  and  O_2
REMARK    2  A    between atoms: O_2  and  C_3
REMARK    3  A    between atoms: C_3  and  C_4
REMARK    4  A    between atoms: N_11  and  C_12
REMARK    5  A    between atoms: C_12  and  C_13
REMARK    6  A    between atoms: C_16  and  S_17
REMARK    7  A    between atoms: S_17  and  N_18
REMARK                            x       y       z     vdW  Elec       q    Type
REMARK                         _______ _______ _______ _____ _____    ______ ____
ROOT
ATOM      1  C   UNL     1       2.408   8.787  18.036  0.00  0.00    +0.000 C 
ENDROOT
BRANCH   1   9
ATOM      2  C   UNL     1      -1.279  12.041  18.782  0.00  0.00    +0.000 C 
ATOM      3  C   UNL     1      -2.766  11.663  18.743  0.00  0.00    +0.000 C 
ATOM      4  C   UNL     1      -2.884  10.795  17.501  0.00  0.00    +0.000 C 
ATOM      5  C   UNL     1      -1.560  10.051  17.459  0.00  0.00    +0.000 C 
ATOM      6  N   UNL     1      -0.647  10.788  18.326  0.00  0.00    +0.000 N 
ATOM      7  C   UNL     1       0.697  10.501  18.452  0.00  0.00    +0.000 C 
ATOM      8  O   UNL     1       1.514  11.218  19.017  0.00  0.00    +0.000 OA
ATOM      9  N   UNL     1       1.070   9.307  17.882  0.00  0.00    +0.000 N 
ATOM     10  H   UNL     1       0.349   8.610  17.808  0.00  0.00    +0.000 HD
BRANCH   2  11
ATOM     11  C   UNL     1      -0.928  12.575  20.182  0.00  0.00    +0.000 C 
BRANCH  11  13
ATOM     12  C   UNL     1      -0.576  11.130  22.010  0.00  0.00    +0.000 C 
ATOM     13  O   UNL     1      -1.541  11.794  21.206  0.00  0.00    +0.000 OA
ENDBRANCH  11  13
ENDBRANCH   2  11
ENDBRANCH   1   9
BRANCH   1  14
ATOM     14  C   UNL     1       2.379   7.429  18.694  0.00  0.00    +0.000 A 
ATOM     15  C   UNL     1       2.693   6.272  17.965  0.00  0.00    +0.000 A 
ATOM     16  C   UNL     1       2.623   5.014  18.571  0.00  0.00    +0.000 A 
ATOM     17  C   UNL     1       2.241   4.916  19.912  0.00  0.00    +0.000 A 
ATOM     18  C   UNL     1       1.902   6.055  20.643  0.00  0.00    +0.000 A 
ATOM     19  C   UNL     1       1.971   7.308  20.032  0.00  0.00    +0.000 A 
BRANCH  17  20
ATOM     20  S   UNL     1       2.115   3.325  20.669  0.00  0.00    +0.000 S 
ATOM     21  O   UNL     1       2.895   2.372  19.922  0.00  0.00    +0.000 OA
ATOM     22  O   UNL     1       2.231   3.469  22.103  0.00  0.00    +0.000 OA
BRANCH  20  23
ATOM     23  N   UNL     1       0.506   2.932  20.379  0.00  0.00    +0.000 NA
ATOM     24  H   UNL     1      -0.102   3.520  20.947  0.00  0.00    +0.000 HD
ATOM     25  H   UNL     1       0.311   2.979  19.378  0.00  0.00    +0.000 HD
ENDBRANCH  20  23
ENDBRANCH  17  20
ENDBRANCH   1  14
TORSDOF 6
ENDMDL
MODEL 7
REMARK VINA RESULT:      -6.5      3.954      8.352
REMARK  Name = 
REMARK  7 active torsions:
REMARK  status: ('A' for Active; 'I' for Inactive)
REMARK    1  A    between atoms: C_1  and  O_2
REMARK    2  A    between atoms: O_2  and  C_3
REMARK    3  A    between atoms: C_3  and  C_4
REMARK    4  A    between atoms: N_11  and  C_12
REMARK    5  A    between atoms: C_12  and  C_13
REMARK    6  A    between atoms: C_16  and  S_17
REMARK    7  A    between atoms: S_17  and  N_18
REMARK                            x       y       z     vdW  Elec       q    Type
REMARK                         _______ _______ _______ _____ _____    ______ ____
ROOT
ATOM      1  C   UNL     1       2.170   9.064  18.124  0.00  0.00    +0.000 C 
ENDROOT
BRANCH   1   9
ATOM      2  C   UNL     1      -1.991  11.742  18.630  0.00  0.00    +0.000 C 
ATOM      3  C   UNL     1      -3.390  11.212  18.283  0.00  0.00    +0.000 C 
ATOM      4  C   UNL     1      -3.193  10.533  16.938  0.00  0.00    +0.000 C 
ATOM      5  C   UNL     1      -1.791   9.954  17.032  0.00  0.00    +0.000 C 
ATOM      6  N   UNL     1      -1.134  10.649  18.134  0.00  0.00    +0.000 N 
ATOM      7  C   UNL     1       0.200  10.497  18.454  0.00  0.00    +0.000 C 
ATOM      8  O   UNL     1       0.815  11.206  19.242  0.00  0.00    +0.000 OA
ATOM      9  N   UNL     1       0.815   9.450  17.808  0.00  0.00    +0.000 N 
ATOM     10  H   UNL     1       0.214   8.697  17.519  0.00  0.00    +0.000 HD
BRANCH   2  11
ATOM     11  C   UNL     1      -1.940  12.095  20.127  0.00  0.00    +0.000 C 
BRANCH  11  13
ATOM     12  C   UNL     1      -3.610  12.912  21.577  0.00  0.00    +0.000 C 
ATOM     13  O   UNL     1      -2.809  13.183  20.436  0.00  0.00    +0.000 OA
ENDBRANCH  11  13
ENDBRANCH   2  11
ENDBRANCH   1   9
BRANCH   1  14
ATOM     14  C   UNL     1       2.200   7.688  18.743  0.00  0.00    +0.000 A 
ATOM     15  C   UNL     1       2.513   6.560  17.968  0.00  0.00    +0.000 A 
ATOM     16  C   UNL     1       2.498   5.284  18.539  0.00  0.00    +0.000 A 
ATOM     17  C   UNL     1       2.171   5.138  19.890  0.00  0.00    +0.000 A 
ATOM     18  C   UNL     1       1.833   6.247  20.667  0.00  0.00    +0.000 A 
ATOM     19  C   UNL     1       1.848   7.517  20.091  0.00  0.00    +0.000 A 
BRANCH  17  20
ATOM     20  S   UNL     1       2.114   3.523  20.604  0.00  0.00    +0.000 S 
ATOM     21  O   UNL     1       2.916   2.620  19.819  0.00  0.00    +0.000 OA
ATOM     22  O   UNL     1       2.248   3.632  22.040  0.00  0.00    +0.000 OA
BRANCH  20  23
ATOM     23  N   UNL     1       0.516   3.081  20.327  0.00  0.00    +0.000 NA
ATOM     24  H   UNL     1       0.459   2.078  20.153  0.00  0.00    +0.000 HD
ATOM     25  H   UNL     1      -0.072   3.403  21.097  0.00  0.00    +0.000 HD
ENDBRANCH  20  23
ENDBRANCH  17  20
ENDBRANCH   1  14
TORSDOF 6
ENDMDL
MODEL 8
REMARK VINA RESULT:      -6.5      3.723      8.305
REMARK  Name = 
REMARK  7 active torsions:
REMARK  status: ('A' for Active; 'I' for Inactive)
REMARK    1  A    between atoms: C_1  and  O_2
REMARK    2  A    between atoms: O_2  and  C_3
REMARK    3  A    between atoms: C_3  and  C_4
REMARK    4  A    between atoms: N_11  and  C_12
REMARK    5  A    between atoms: C_12  and  C_13
REMARK    6  A    between atoms: C_16  and  S_17
REMARK    7  A    between atoms: S_17  and  N_18
REMARK                            x       y       z     vdW  Elec       q    Type
REMARK                         _______ _______ _______ _____ _____    ______ ____
ROOT
ATOM      1  C   UNL     1       2.394   8.273  18.224  0.00  0.00    +0.000 C 
ENDROOT
BRANCH   1   9
ATOM      2  C   UNL     1      -1.235  11.326  19.720  0.00  0.00    +0.000 C 
ATOM      3  C   UNL     1      -1.177  12.143  21.019  0.00  0.00    +0.000 C 
ATOM      4  C   UNL     1      -0.678  11.144  22.050  0.00  0.00    +0.000 C 
ATOM      5  C   UNL     1       0.278  10.265  21.262  0.00  0.00    +0.000 C 
ATOM      6  N   UNL     1      -0.033  10.482  19.852  0.00  0.00    +0.000 N 
ATOM      7  C   UNL     1       0.533   9.763  18.819  0.00  0.00    +0.000 C 
ATOM      8  O   UNL     1       0.150   9.793  17.656  0.00  0.00    +0.000 OA
ATOM      9  N   UNL     1       1.602   8.985  19.198  0.00  0.00    +0.000 N 
ATOM     10  H   UNL     1       2.104   9.294  20.012  0.00  0.00    +0.000 HD
BRANCH   2  11
ATOM     11  C   UNL     1      -1.333  12.286  18.522  0.00  0.00    +0.000 C 
BRANCH  11  13
ATOM     12  C   UNL     1      -3.154  10.834  18.153  0.00  0.00    +0.000 C 
ATOM     13  O   UNL     1      -2.369  11.893  17.623  0.00  0.00    +0.000 OA
ENDBRANCH  11  13
ENDBRANCH   2  11
ENDBRANCH   1   9
BRANCH   1  14
ATOM     14  C   UNL     1       2.678   6.867  18.695  0.00  0.00    +0.000 A 
ATOM     15  C   UNL     1       3.367   5.961  17.875  0.00  0.00    +0.000 A 
ATOM     16  C   UNL     1       3.589   4.649  18.302  0.00  0.00    +0.000 A 
ATOM     17  C   UNL     1       3.123   4.244  19.556  0.00  0.00    +0.000 A 
ATOM     18  C   UNL     1       2.414   5.127  20.373  0.00  0.00    +0.000 A 
ATOM     19  C   UNL     1       2.194   6.434  19.940  0.00  0.00    +0.000 A 
BRANCH  17  20
ATOM     20  S   UNL     1       3.369   2.576  20.082  0.00  0.00    +0.000 S 
ATOM     21  O   UNL     1       3.183   2.487  21.507  0.00  0.00    +0.000 OA
ATOM     22  O   UNL     1       2.711   1.682  19.155  0.00  0.00    +0.000 OA
BRANCH  20  23
ATOM     23  N   UNL     1       5.017   2.372  19.819  0.00  0.00    +0.000 NA
ATOM     24  H   UNL     1       5.435   3.257  19.533  0.00  0.00    +0.000 HD
ATOM     25  H   UNL     1       5.452   1.956  20.643  0.00  0.00    +0.000 HD
ENDBRANCH  20  23
ENDBRANCH  17  20
ENDBRANCH   1  14
TORSDOF 6
ENDMDL
MODEL 9
REMARK VINA RESULT:      -6.5      2.558      3.645
REMARK  Name = 
REMARK  7 active torsions:
REMARK  status: ('A' for Active; 'I' for Inactive)
REMARK    1  A    between atoms: C_1  and  O_2
REMARK    2  A    between atoms: O_2  and  C_3
REMARK    3  A    between atoms: C_3  and  C_4
REMARK    4  A    between atoms: N_11  and  C_12
REMARK    5  A    between atoms: C_12  and  C_13
REMARK    6  A    between atoms: C_16  and  S_17
REMARK    7  A    between atoms: S_17  and  N_18
REMARK                            x       y       z     vdW  Elec       q    Type
REMARK                         _______ _______ _______ _____ _____    ______ ____
ROOT
ATOM      1  C   UNL     1       1.676   7.644  20.782  0.00  0.00    +0.000 C 
ENDROOT
BRANCH   1   9
ATOM      2  C   UNL     1       4.132   4.100  18.305  0.00  0.00    +0.000 C 
ATOM      3  C   UNL     1       5.374   4.370  17.443  0.00  0.00    +0.000 C 
ATOM      4  C   UNL     1       4.992   5.603  16.640  0.00  0.00    +0.000 C 
ATOM      5  C   UNL     1       4.127   6.400  17.601  0.00  0.00    +0.000 C 
ATOM      6  N   UNL     1       3.709   5.471  18.645  0.00  0.00    +0.000 N 
ATOM      7  C   UNL     1       2.801   5.784  19.637  0.00  0.00    +0.000 C 
ATOM      8  O   UNL     1       2.294   4.971  20.401  0.00  0.00    +0.000 OA
ATOM      9  N   UNL     1       2.501   7.123  19.719  0.00  0.00    +0.000 N 
ATOM     10  H   UNL     1       3.206   7.754  19.378  0.00  0.00    +0.000 HD
BRANCH   2  11
ATOM     11  C   UNL     1       4.508   3.140  19.448  0.00  0.00    +0.000 C 
BRANCH  11  13
ATOM     12  C   UNL     1       2.677   1.850  18.712  0.00  0.00    +0.000 C 
ATOM     13  O   UNL     1       4.007   1.826  19.211  0.00  0.00    +0.000 OA
ENDBRANCH  11  13
ENDBRANCH   2  11
ENDBRANCH   1   9
BRANCH   1  14
ATOM     14  C   UNL     1       1.017   8.935  20.361  0.00  0.00    +0.000 A 
ATOM     15  C   UNL     1       0.115   9.591  21.212  0.00  0.00    +0.000 A 
ATOM     16  C   UNL     1      -0.522  10.764  20.798  0.00  0.00    +0.000 A 
ATOM     17  C   UNL     1      -0.253  11.283  19.528  0.00  0.00    +0.000 A 
ATOM     18  C   UNL     1       0.622  10.628  18.660  0.00  0.00    +0.000 A 
ATOM     19  C   UNL     1       1.254   9.456  19.078  0.00  0.00    +0.000 A 
BRANCH  17  20
ATOM     20  S   UNL     1      -1.085  12.744  18.987  0.00  0.00    +0.000 S 
ATOM     21  O   UNL     1      -2.292  12.923  19.753  0.00  0.00    +0.000 OA
ATOM     22  O   UNL     1      -0.118  13.802  18.802  0.00  0.00    +0.000 OA
BRANCH  20  23
ATOM     23  N   UNL     1      -1.581  12.305  17.441  0.00  0.00    +0.000 NA
ATOM     24  H   UNL     1      -2.556  12.568  17.302  0.00  0.00    +0.000 HD
ATOM     25  H   UNL     1      -0.942  12.694  16.747  0.00  0.00    +0.000 HD
ENDBRANCH  20  23
ENDBRANCH  17  20
ENDBRANCH   1  14
TORSDOF 6
ENDMDL
