MODEL 1
REMARK VINA RESULT:      -7.3      0.000      0.000
REMARK  Name = 
REMARK  8 active torsions:
REMARK  status: ('A' for Active; 'I' for Inactive)
REMARK    1  A    between atoms: C_2  and  O_3
REMARK    2  A    between atoms: C_2  and  C_4
REMARK    3  A    between atoms: C_9  and  C_10
REMARK    4  A    between atoms: C_10  and  C_11
REMARK    5  A    between atoms: C_11  and  C_12
REMARK    6  A    between atoms: C_11  and  C_19
REMARK    7  A    between atoms: C_12  and  C_13
REMARK    8  A    between atoms: C_19  and  O_21
REMARK                            x       y       z     vdW  Elec       q    Type
REMARK                         _______ _______ _______ _____ _____    ______ ____
ROOT
ATOM      1  C   UNL     1       3.139   6.896  17.965  0.00  0.00    +0.000 C 
ENDROOT
BRANCH   1   2
ATOM      2  C   UNL     1       2.402   8.216  18.117  0.00  0.00    +0.000 C 
ATOM      3  O   UNL     1       2.268   9.045  17.229  0.00  0.00    +0.000 OA
BRANCH   2   4
ATOM      4  O   UNL     1       1.890   8.417  19.353  0.00  0.00    +0.000 OA
ATOM      5  H   UNL     1       2.476   8.153  20.086  0.00  0.00    +0.000 HD
ENDBRANCH   2   4
ENDBRANCH   1   2
BRANCH   1   6
ATOM      6  C   UNL     1       4.666   7.148  17.893  0.00  0.00    +0.000 C 
BRANCH   6  12
ATOM      7  C   UNL     1       6.634   5.480  17.629  0.00  0.00    +0.000 A 
ATOM      8  C   UNL     1       7.345   4.598  16.795  0.00  0.00    +0.000 A 
ATOM      9  C   UNL     1       6.831   4.226  15.552  0.00  0.00    +0.000 A 
ATOM     10  C   UNL     1       5.594   4.710  15.144  0.00  0.00    +0.000 A 
ATOM     11  C   UNL     1       4.891   5.596  15.954  0.00  0.00    +0.000 A 
ATOM     12  C   UNL     1       5.417   6.038  17.182  0.00  0.00    +0.000 A 
BRANCH   7  14
ATOM     13  O   UNL     1       6.902   5.322  19.999  0.00  0.00    +0.000 OA
ATOM     14  C   UNL     1       7.237   5.833  18.946  0.00  0.00    +0.000 C 
BRANCH  14  15
ATOM     15  O   UNL     1       8.199   6.780  18.856  0.00  0.00    +0.000 OA
ATOM     16  H   UNL     1       9.108   6.477  19.048  0.00  0.00    +0.000 HD
ENDBRANCH  14  15
ENDBRANCH   7  14
ENDBRANCH   6  12
ENDBRANCH   1   6
BRANCH   1  17
ATOM     17  C   UNL     1       2.668   5.835  18.997  0.00  0.00    +0.000 C 
BRANCH  17  18
ATOM     18  C   UNL     1       2.883   4.350  18.779  0.00  0.00    +0.000 A 
ATOM     19  C   UNL     1       2.259   3.620  17.759  0.00  0.00    +0.000 A 
ATOM     20  C   UNL     1       2.543   2.261  17.571  0.00  0.00    +0.000 A 
ATOM     21  C   UNL     1       3.470   1.613  18.381  0.00  0.00    +0.000 A 
ATOM     22  C   UNL     1       4.125   2.330  19.382  0.00  0.00    +0.000 A 
ATOM     23  C   UNL     1       3.840   3.686  19.571  0.00  0.00    +0.000 A 
ENDBRANCH  17  18
ENDBRANCH   1  17
TORSDOF 8
ENDMDL
MODEL 2
REMARK VINA RESULT:      -7.2      0.877      1.401
REMARK  Name = 
REMARK  8 active torsions:
REMARK  status: ('A' for Active; 'I' for Inactive)
REMARK    1  A    between atoms: C_2  and  O_3
REMARK    2  A    between atoms: C_2  and  C_4
REMARK    3  A    between atoms: C_9  and  C_10
REMARK    4  A    between atoms: C_10  and  C_11
REMARK    5  A    between atoms: C_11  and  C_12
REMARK    6  A    between atoms: C_11  and  C_19
REMARK    7  A    between atoms: C_12  and  C_13
REMARK    8  A    between atoms: C_19  and  O_21
REMARK                            x       y       z     vdW  Elec       q    Type
REMARK                         _______ _______ _______ _____ _____    ______ ____
ROOT
ATOM      1  C   UNL     1       3.323   6.864  18.065  0.00  0.00    +0.000 C 
ENDROOT
BRANCH   1   2
ATOM      2  C   UNL     1       2.463   8.095  18.295  0.00  0.00    +0.000 C 
ATOM      3  O   UNL     1       1.872   8.348  19.334  0.00  0.00    +0.000 OA
BRANCH   2   4
ATOM      4  O   UNL     1       2.392   8.920  17.224  0.00  0.00    +0.000 OA
ATOM      5  H   UNL     1       2.872   8.607  16.435  0.00  0.00    +0.000 HD
ENDBRANCH   2   4
ENDBRANCH   1   2
BRANCH   1   6
ATOM      6  C   UNL     1       4.741   7.288  17.609  0.00  0.00    +0.000 C 
BRANCH   6  12
ATOM      7  C   UNL     1       6.655   5.543  17.477  0.00  0.00    +0.000 A 
ATOM      8  C   UNL     1       7.402   4.650  16.686  0.00  0.00    +0.000 A 
ATOM      9  C   UNL     1       6.990   4.332  15.392  0.00  0.00    +0.000 A 
ATOM     10  C   UNL     1       5.817   4.879  14.887  0.00  0.00    +0.000 A 
ATOM     11  C   UNL     1       5.079   5.776  15.655  0.00  0.00    +0.000 A 
ATOM     12  C   UNL     1       5.508   6.164  16.937  0.00  0.00    +0.000 A 
BRANCH   7  14
ATOM     13  O   UNL     1       6.701   5.310  19.856  0.00  0.00    +0.000 OA
ATOM     14  C   UNL     1       7.148   5.836  18.853  0.00  0.00    +0.000 C 
BRANCH  14  15
ATOM     15  O   UNL     1       8.147   6.747  18.878  0.00  0.00    +0.000 OA
ATOM     16  H   UNL     1       8.195   7.297  19.685  0.00  0.00    +0.000 HD
ENDBRANCH  14  15
ENDBRANCH   7  14
ENDBRANCH   6  12
ENDBRANCH   1   6
BRANCH   1  17
ATOM     17  C   UNL     1       3.255   5.867  19.254  0.00  0.00    +0.000 C 
BRANCH  17  18
ATOM     18  C   UNL     1       2.519   4.545  19.154  0.00  0.00    +0.000 A 
ATOM     19  C   UNL     1       1.452   4.189  19.990  0.00  0.00    +0.000 A 
ATOM     20  C   UNL     1       0.773   2.977  19.811  0.00  0.00    +0.000 A 
ATOM     21  C   UNL     1       1.130   2.111  18.782  0.00  0.00    +0.000 A 
ATOM     22  C   UNL     1       2.168   2.462  17.919  0.00  0.00    +0.000 A 
ATOM     23  C   UNL     1       2.848   3.670  18.100  0.00  0.00    +0.000 A 
ENDBRANCH  17  18
ENDBRANCH   1  17
TORSDOF 8
ENDMDL
MODEL 3
REMARK VINA RESULT:      -7.2      2.371      5.332
REMARK  Name = 
REMARK  8 active torsions:
REMARK  status: ('A' for Active; 'I' for Inactive)
REMARK    1  A    between atoms: C_2  and  O_3
REMARK    2  A    between atoms: C_2  and  C_4
REMARK    3  A    between atoms: C_9  and  C_10
REMARK    4  A    between atoms: C_10  and  C_11
REMARK    5  A    between atoms: C_11  and  C_12
REMARK    6  A    between atoms: C_11  and  C_19
REMARK    7  A    between atoms: C_12  and  C_13
REMARK    8  A    between atoms: C_19  and  O_21
REMARK                            x       y       z     vdW  Elec       q    Type
REMARK                         _______ _______ _______ _____ _____    ______ ____
ROOT
ATOM      1  C   UNL     1       3.750   5.398  17.133  0.00  0.00    +0.000 C 
ENDROOT
BRANCH   1   2
ATOM      2  C   UNL     1       5.059   5.405  16.361  0.00  0.00    +0.000 C 
ATOM      3  O   UNL     1       5.347   6.207  15.485  0.00  0.00    +0.000 OA
BRANCH   2   4
ATOM      4  O   UNL     1       5.912   4.419  16.724  0.00  0.00    +0.000 OA
ATOM      5  H   UNL     1       6.740   4.728  17.136  0.00  0.00    +0.000 HD
ENDBRANCH   2   4
ENDBRANCH   1   2
BRANCH   1   6
ATOM      6  C   UNL     1       3.261   3.942  17.332  0.00  0.00    +0.000 C 
BRANCH   6  12
ATOM      7  C   UNL     1       3.386   3.142  19.795  0.00  0.00    +0.000 A 
ATOM      8  C   UNL     1       2.696   2.775  20.966  0.00  0.00    +0.000 A 
ATOM      9  C   UNL     1       1.325   3.004  21.084  0.00  0.00    +0.000 A 
ATOM     10  C   UNL     1       0.637   3.624  20.048  0.00  0.00    +0.000 A 
ATOM     11  C   UNL     1       1.307   3.976  18.880  0.00  0.00    +0.000 A 
ATOM     12  C   UNL     1       2.674   3.696  18.709  0.00  0.00    +0.000 A 
BRANCH   7  14
ATOM     13  O   UNL     1       5.683   3.727  19.491  0.00  0.00    +0.000 OA
ATOM     14  C   UNL     1       4.850   2.873  19.736  0.00  0.00    +0.000 C 
BRANCH  14  15
ATOM     15  O   UNL     1       5.167   1.581  19.984  0.00  0.00    +0.000 OA
ATOM     16  H   UNL     1       6.111   1.407  20.168  0.00  0.00    +0.000 HD
ENDBRANCH  14  15
ENDBRANCH   7  14
ENDBRANCH   6  12
ENDBRANCH   1   6
BRANCH   1  17
ATOM     17  C   UNL     1       3.813   6.280  18.409  0.00  0.00    +0.000 C 
BRANCH  17  18
ATOM     18  C   UNL     1       2.783   7.356  18.696  0.00  0.00    +0.000 A 
ATOM     19  C   UNL     1       2.135   7.495  19.930  0.00  0.00    +0.000 A 
ATOM     20  C   UNL     1       1.235   8.545  20.154  0.00  0.00    +0.000 A 
ATOM     21  C   UNL     1       0.983   9.486  19.161  0.00  0.00    +0.000 A 
ATOM     22  C   UNL     1       1.643   9.383  17.936  0.00  0.00    +0.000 A 
ATOM     23  C   UNL     1       2.539   8.333  17.711  0.00  0.00    +0.000 A 
ENDBRANCH  17  18
ENDBRANCH   1  17
TORSDOF 8
ENDMDL
MODEL 4
REMARK VINA RESULT:      -7.1      1.047      1.637
REMARK  Name = 
REMARK  8 active torsions:
REMARK  status: ('A' for Active; 'I' for Inactive)
REMARK    1  A    between atoms: C_2  and  O_3
REMARK    2  A    between atoms: C_2  and  C_4
REMARK    3  A    between atoms: C_9  and  C_10
REMARK    4  A    between atoms: C_10  and  C_11
REMARK    5  A    between atoms: C_11  and  C_12
REMARK    6  A    between atoms: C_11  and  C_19
REMARK    7  A    between atoms: C_12  and  C_13
REMARK    8  A    between atoms: C_19  and  O_21
REMARK                            x       y       z     vdW  Elec       q    Type
REMARK                         _______ _______ _______ _____ _____    ______ ____
ROOT
ATOM      1  C   UNL     1       3.328   6.903  18.026  0.00  0.00    +0.000 C 
ENDROOT
BRANCH   1   2
ATOM      2  C   UNL     1       2.480   8.158  18.145  0.00  0.00    +0.000 C 
ATOM      3  O   UNL     1       2.331   8.984  17.257  0.00  0.00    +0.000 OA
BRANCH   2   4
ATOM      4  O   UNL     1       1.883   8.303  19.351  0.00  0.00    +0.000 OA
ATOM      5  H   UNL     1       1.170   7.664  19.533  0.00  0.00    +0.000 HD
ENDBRANCH   2   4
ENDBRANCH   1   2
BRANCH   1   6
ATOM      6  C   UNL     1       4.736   7.264  17.490  0.00  0.00    +0.000 C 
BRANCH   6  12
ATOM      7  C   UNL     1       6.663   5.533  17.390  0.00  0.00    +0.000 A 
ATOM      8  C   UNL     1       7.356   4.562  16.644  0.00  0.00    +0.000 A 
ATOM      9  C   UNL     1       6.839   4.093  15.436  0.00  0.00    +0.000 A 
ATOM     10  C   UNL     1       5.617   4.567  14.977  0.00  0.00    +0.000 A 
ATOM     11  C   UNL     1       4.932   5.540  15.699  0.00  0.00    +0.000 A 
ATOM     12  C   UNL     1       5.462   6.077  16.886  0.00  0.00    +0.000 A 
BRANCH   7  14
ATOM     13  O   UNL     1       8.107   6.866  18.751  0.00  0.00    +0.000 OA
ATOM     14  C   UNL     1       7.268   5.987  18.674  0.00  0.00    +0.000 C 
BRANCH  14  15
ATOM     15  O   UNL     1       6.791   5.324  19.753  0.00  0.00    +0.000 OA
ATOM     16  H   UNL     1       7.446   4.783  20.238  0.00  0.00    +0.000 HD
ENDBRANCH  14  15
ENDBRANCH   7  14
ENDBRANCH   6  12
ENDBRANCH   1   6
BRANCH   1  17
ATOM     17  C   UNL     1       3.287   6.040  19.317  0.00  0.00    +0.000 C 
BRANCH  17  18
ATOM     18  C   UNL     1       2.444   4.783  19.418  0.00  0.00    +0.000 A 
ATOM     19  C   UNL     1       1.778   4.392  20.587  0.00  0.00    +0.000 A 
ATOM     20  C   UNL     1       0.966   3.250  20.603  0.00  0.00    +0.000 A 
ATOM     21  C   UNL     1       0.785   2.495  19.449  0.00  0.00    +0.000 A 
ATOM     22  C   UNL     1       1.414   2.886  18.267  0.00  0.00    +0.000 A 
ATOM     23  C   UNL     1       2.227   4.024  18.252  0.00  0.00    +0.000 A 
ENDBRANCH  17  18
ENDBRANCH   1  17
TORSDOF 8
ENDMDL
MODEL 5
REMARK VINA RESULT:      -7.1      0.872      1.482
REMARK  Name = 
REMARK  8 active torsions:
REMARK  status: ('A' for Active; 'I' for Inactive)
REMARK    1  A    between atoms: C_2  and  O_3
REMARK    2  A    between atoms: C_2  and  C_4
REMARK    3  A    between atoms: C_9  and  C_10
REMARK    4  A    between atoms: C_10  and  C_11
REMARK    5  A    between atoms: C_11  and  C_12
REMARK    6  A    between atoms: C_11  and  C_19
REMARK    7  A    between atoms: C_12  and  C_13
REMARK    8  A    between atoms: C_19  and  O_21
REMARK                            x       y       z     vdW  Elec       q    Type
REMARK                         _______ _______ _______ _____ _____    ______ ____
ROOT
ATOM      1  C   UNL     1       3.290   6.887  17.939  0.00  0.00    +0.000 C 
ENDROOT
BRANCH   1   2
ATOM      2  C   UNL     1       2.492   8.139  18.260  0.00  0.00    +0.000 C 
ATOM      3  O   UNL     1       1.930   8.354  19.323  0.00  0.00    +0.000 OA
BRANCH   2   4
ATOM      4  O   UNL     1       2.445   9.032  17.243  0.00  0.00    +0.000 OA
ATOM      5  H   UNL     1       2.360   9.963  17.521  0.00  0.00    +0.000 HD
ENDBRANCH   2   4
ENDBRANCH   1   2
BRANCH   1   6
ATOM      6  C   UNL     1       4.703   7.273  17.436  0.00  0.00    +0.000 C 
BRANCH   6  12
ATOM      7  C   UNL     1       6.635   5.547  17.331  0.00  0.00    +0.000 A 
ATOM      8  C   UNL     1       7.351   4.604  16.570  0.00  0.00    +0.000 A 
ATOM      9  C   UNL     1       6.870   4.178  15.332  0.00  0.00    +0.000 A 
ATOM     10  C   UNL     1       5.661   4.668  14.855  0.00  0.00    +0.000 A 
ATOM     11  C   UNL     1       4.954   5.614  15.592  0.00  0.00    +0.000 A 
ATOM     12  C   UNL     1       5.449   6.109  16.811  0.00  0.00    +0.000 A 
BRANCH   7  14
ATOM     13  O   UNL     1       8.067   6.804  18.776  0.00  0.00    +0.000 OA
ATOM     14  C   UNL     1       7.202   5.956  18.647  0.00  0.00    +0.000 C 
BRANCH  14  15
ATOM     15  O   UNL     1       6.659   5.289  19.692  0.00  0.00    +0.000 OA
ATOM     16  H   UNL     1       7.276   4.724  20.197  0.00  0.00    +0.000 HD
ENDBRANCH  14  15
ENDBRANCH   7  14
ENDBRANCH   6  12
ENDBRANCH   1   6
BRANCH   1  17
ATOM     17  C   UNL     1       3.233   5.842  19.087  0.00  0.00    +0.000 C 
BRANCH  17  18
ATOM     18  C   UNL     1       2.497   4.524  18.940  0.00  0.00    +0.000 A 
ATOM     19  C   UNL     1       2.849   3.543  18.003  0.00  0.00    +0.000 A 
ATOM     20  C   UNL     1       2.168   2.319  17.954  0.00  0.00    +0.000 A 
ATOM     21  C   UNL     1       1.142   2.044  18.852  0.00  0.00    +0.000 A 
ATOM     22  C   UNL     1       0.799   2.995  19.813  0.00  0.00    +0.000 A 
ATOM     23  C   UNL     1       1.476   4.217  19.860  0.00  0.00    +0.000 A 
ENDBRANCH  17  18
ENDBRANCH   1  17
TORSDOF 8
ENDMDL
MODEL 6
REMARK VINA RESULT:      -7.0      2.972      5.743
REMARK  Name = 
REMARK  8 active torsions:
REMARK  status: ('A' for Active; 'I' for Inactive)
REMARK    1  A    between atoms: C_2  and  O_3
REMARK    2  A    between atoms: C_2  and  C_4
REMARK    3  A    between atoms: C_9  and  C_10
REMARK    4  A    between atoms: C_10  and  C_11
REMARK    5  A    between atoms: C_11  and  C_12
REMARK    6  A    between atoms: C_11  and  C_19
REMARK    7  A    between atoms: C_12  and  C_13
REMARK    8  A    between atoms: C_19  and  O_21
REMARK                            x       y       z     vdW  Elec       q    Type
REMARK                         _______ _______ _______ _____ _____    ______ ____
ROOT
ATOM      1  C   UNL     1       3.524   3.184  17.953  0.00  0.00    +0.000 C 
ENDROOT
BRANCH   1   2
ATOM      2  C   UNL     1       3.188   1.749  18.321  0.00  0.00    +0.000 C 
ATOM      3  O   UNL     1       4.012   0.884  18.578  0.00  0.00    +0.000 OA
BRANCH   2   4
ATOM      4  O   UNL     1       1.860   1.487  18.340  0.00  0.00    +0.000 OA
ATOM      5  H   UNL     1       1.292   2.267  18.474  0.00  0.00    +0.000 HD
ENDBRANCH   2   4
ENDBRANCH   1   2
BRANCH   1   6
ATOM      6  C   UNL     1       2.224   4.016  17.824  0.00  0.00    +0.000 C 
BRANCH   6  12
ATOM      7  C   UNL     1       1.806   5.175  20.107  0.00  0.00    +0.000 A 
ATOM      8  C   UNL     1       1.627   6.375  20.819  0.00  0.00    +0.000 A 
ATOM      9  C   UNL     1       1.882   7.605  20.213  0.00  0.00    +0.000 A 
ATOM     10  C   UNL     1       2.342   7.648  18.903  0.00  0.00    +0.000 A 
ATOM     11  C   UNL     1       2.508   6.467  18.184  0.00  0.00    +0.000 A 
ATOM     12  C   UNL     1       2.195   5.218  18.750  0.00  0.00    +0.000 A 
BRANCH   7  14
ATOM     13  O   UNL     1       0.670   3.101  20.457  0.00  0.00    +0.000 OA
ATOM     14  C   UNL     1       1.521   3.895  20.814  0.00  0.00    +0.000 C 
BRANCH  14  15
ATOM     15  O   UNL     1       2.306   3.699  21.899  0.00  0.00    +0.000 OA
ATOM     16  H   UNL     1       2.536   4.504  22.404  0.00  0.00    +0.000 HD
ENDBRANCH  14  15
ENDBRANCH   7  14
ENDBRANCH   6  12
ENDBRANCH   1   6
BRANCH   1  17
ATOM     17  C   UNL     1       4.633   3.781  18.862  0.00  0.00    +0.000 C 
BRANCH  17  18
ATOM     18  C   UNL     1       5.629   4.804  18.350  0.00  0.00    +0.000 A 
ATOM     19  C   UNL     1       6.599   5.411  19.159  0.00  0.00    +0.000 A 
ATOM     20  C   UNL     1       7.531   6.305  18.616  0.00  0.00    +0.000 A 
ATOM     21  C   UNL     1       7.526   6.591  17.255  0.00  0.00    +0.000 A 
ATOM     22  C   UNL     1       6.590   5.972  16.427  0.00  0.00    +0.000 A 
ATOM     23  C   UNL     1       5.658   5.082  16.969  0.00  0.00    +0.000 A 
ENDBRANCH  17  18
ENDBRANCH   1  17
TORSDOF 8
ENDMDL
MODEL 7
REMARK VINA RESULT:      -7.0      2.485      5.575
REMARK  Name = 
REMARK  8 active torsions:
REMARK  status: ('A' for Active; 'I' for Inactive)
REMARK    1  A    between atoms: C_2  and  O_3
REMARK    2  A    between atoms: C_2  and  C_4
REMARK    3  A    between atoms: C_9  and  C_10
REMARK    4  A    between atoms: C_10  and  C_11
REMARK    5  A    between atoms: C_11  and  C_12
REMARK    6  A    between atoms: C_11  and  C_19
REMARK    7  A    between atoms: C_12  and  C_13
REMARK    8  A    between atoms: C_19  and  O_21
REMARK                            x       y       z     vdW  Elec       q    Type
REMARK                         _______ _______ _______ _____ _____    ______ ____
ROOT
ATOM      1  C   UNL     1       6.010   4.461  17.324  0.00  0.00    +0.000 C 
ENDROOT
BRANCH   1   2
ATOM      2  C   UNL     1       7.434   4.960  17.493  0.00  0.00    +0.000 C 
ATOM      3  O   UNL     1       7.768   6.136  17.470  0.00  0.00    +0.000 OA
BRANCH   2   4
ATOM      4  O   UNL     1       8.342   3.973  17.672  0.00  0.00    +0.000 OA
ATOM      5  H   UNL     1       8.113   3.125  17.248  0.00  0.00    +0.000 HD
ENDBRANCH   2   4
ENDBRANCH   1   2
BRANCH   1   6
ATOM      6  C   UNL     1       5.195   4.740  18.612  0.00  0.00    +0.000 C 
BRANCH   6  12
ATOM      7  C   UNL     1       3.365   2.913  18.801  0.00  0.00    +0.000 A 
ATOM      8  C   UNL     1       2.051   2.507  18.505  0.00  0.00    +0.000 A 
ATOM      9  C   UNL     1       1.124   3.417  17.996  0.00  0.00    +0.000 A 
ATOM     10  C   UNL     1       1.492   4.743  17.804  0.00  0.00    +0.000 A 
ATOM     11  C   UNL     1       2.794   5.151  18.078  0.00  0.00    +0.000 A 
ATOM     12  C   UNL     1       3.766   4.239  18.529  0.00  0.00    +0.000 A 
BRANCH   7  14
ATOM     13  O   UNL     1       4.935   2.038  20.378  0.00  0.00    +0.000 OA
ATOM     14  C   UNL     1       4.303   1.892  19.347  0.00  0.00    +0.000 C 
BRANCH  14  15
ATOM     15  O   UNL     1       4.385   0.779  18.581  0.00  0.00    +0.000 OA
ATOM     16  H   UNL     1       5.127   0.178  18.791  0.00  0.00    +0.000 HD
ENDBRANCH  14  15
ENDBRANCH   7  14
ENDBRANCH   6  12
ENDBRANCH   1   6
BRANCH   1  17
ATOM     17  C   UNL     1       5.371   4.939  15.992  0.00  0.00    +0.000 C 
BRANCH  17  18
ATOM     18  C   UNL     1       5.950   4.562  14.641  0.00  0.00    +0.000 A 
ATOM     19  C   UNL     1       5.328   3.674  13.754  0.00  0.00    +0.000 A 
ATOM     20  C   UNL     1       5.881   3.410  12.495  0.00  0.00    +0.000 A 
ATOM     21  C   UNL     1       7.051   4.044  12.090  0.00  0.00    +0.000 A 
ATOM     22  C   UNL     1       7.669   4.957  12.945  0.00  0.00    +0.000 A 
ATOM     23  C   UNL     1       7.117   5.218  14.204  0.00  0.00    +0.000 A 
ENDBRANCH  17  18
ENDBRANCH   1  17
TORSDOF 8
ENDMDL
MODEL 8
REMARK VINA RESULT:      -7.0      1.836      5.601
REMARK  Name = 
REMARK  8 active torsions:
REMARK  status: ('A' for Active; 'I' for Inactive)
REMARK    1  A    between atoms: C_2  and  O_3
REMARK    2  A    between atoms: C_2  and  C_4
REMARK    3  A    between atoms: C_9  and  C_10
REMARK    4  A    between atoms: C_10  and  C_11
REMARK    5  A    between atoms: C_11  and  C_12
REMARK    6  A    between atoms: C_11  and  C_19
REMARK    7  A    between atoms: C_12  and  C_13
REMARK    8  A    between atoms: C_19  and  O_21
REMARK                            x       y       z     vdW  Elec       q    Type
REMARK                         _______ _______ _______ _____ _____    ______ ____
ROOT
ATOM      1  C   UNL     1       6.244   4.973  16.935  0.00  0.00    +0.000 C 
ENDROOT
BRANCH   1   2
ATOM      2  C   UNL     1       7.289   4.656  17.992  0.00  0.00    +0.000 C 
ATOM      3  O   UNL     1       8.365   4.122  17.770  0.00  0.00    +0.000 OA
BRANCH   2   4
ATOM      4  O   UNL     1       6.926   5.018  19.244  0.00  0.00    +0.000 OA
ATOM      5  H   UNL     1       6.006   4.798  19.482  0.00  0.00    +0.000 HD
ENDBRANCH   2   4
ENDBRANCH   1   2
BRANCH   1   6
ATOM      6  C   UNL     1       5.089   5.793  17.561  0.00  0.00    +0.000 C 
BRANCH   6  12
ATOM      7  C   UNL     1       2.643   5.459  18.355  0.00  0.00    +0.000 A 
ATOM      8  C   UNL     1       1.577   4.572  18.590  0.00  0.00    +0.000 A 
ATOM      9  C   UNL     1       1.632   3.257  18.125  0.00  0.00    +0.000 A 
ATOM     10  C   UNL     1       2.737   2.826  17.401  0.00  0.00    +0.000 A 
ATOM     11  C   UNL     1       3.804   3.691  17.178  0.00  0.00    +0.000 A 
ATOM     12  C   UNL     1       3.802   5.000  17.692  0.00  0.00    +0.000 A 
BRANCH   7  14
ATOM     13  O   UNL     1       2.398   7.829  18.159  0.00  0.00    +0.000 OA
ATOM     14  C   UNL     1       2.519   6.850  18.874  0.00  0.00    +0.000 C 
BRANCH  14  15
ATOM     15  O   UNL     1       2.554   6.921  20.225  0.00  0.00    +0.000 OA
ATOM     16  H   UNL     1       3.444   6.874  20.626  0.00  0.00    +0.000 HD
ENDBRANCH  14  15
ENDBRANCH   7  14
ENDBRANCH   6  12
ENDBRANCH   1   6
BRANCH   1  17
ATOM     17  C   UNL     1       6.874   5.555  15.640  0.00  0.00    +0.000 C 
BRANCH  17  18
ATOM     18  C   UNL     1       6.685   4.895  14.287  0.00  0.00    +0.000 A 
ATOM     19  C   UNL     1       7.605   5.010  13.236  0.00  0.00    +0.000 A 
ATOM     20  C   UNL     1       7.405   4.330  12.028  0.00  0.00    +0.000 A 
ATOM     21  C   UNL     1       6.298   3.505  11.856  0.00  0.00    +0.000 A 
ATOM     22  C   UNL     1       5.388   3.351  12.902  0.00  0.00    +0.000 A 
ATOM     23  C   UNL     1       5.586   4.033  14.106  0.00  0.00    +0.000 A 
ENDBRANCH  17  18
ENDBRANCH   1  17
TORSDOF 8
ENDMDL
MODEL 9
REMARK VINA RESULT:      -7.0      1.969      4.526
REMARK  Name = 
REMARK  8 active torsions:
REMARK  status: ('A' for Active; 'I' for Inactive)
REMARK    1  A    between atoms: C_2  and  O_3
REMARK    2  A    between atoms: C_2  and  C_4
REMARK    3  A    between atoms: C_9  and  C_10
REMARK    4  A    between atoms: C_10  and  C_11
REMARK    5  A    between atoms: C_11  and  C_12
REMARK    6  A    between atoms: C_11  and  C_19
REMARK    7  A    between atoms: C_12  and  C_13
REMARK    8  A    between atoms: C_19  and  O_21
REMARK                            x       y       z     vdW  Elec       q    Type
REMARK                         _______ _______ _______ _____ _____    ______ ____
ROOT
ATOM      1  C   UNL     1       2.985   7.083  18.236  0.00  0.00    +0.000 C 
ENDROOT
BRANCH   1   2
ATOM      2  C   UNL     1       2.146   8.345  18.347  0.00  0.00    +0.000 C 
ATOM      3  O   UNL     1       1.960   9.140  17.438  0.00  0.00    +0.000 OA
BRANCH   2   4
ATOM      4  O   UNL     1       1.603   8.533  19.572  0.00  0.00    +0.000 OA
ATOM      5  H   UNL     1       1.618   7.748  20.151  0.00  0.00    +0.000 HD
ENDBRANCH   2   4
ENDBRANCH   1   2
BRANCH   1   6
ATOM      6  C   UNL     1       2.064   5.842  18.132  0.00  0.00    +0.000 C 
BRANCH   6  12
ATOM      7  C   UNL     1       2.805   3.482  18.912  0.00  0.00    +0.000 A 
ATOM      8  C   UNL     1       2.860   2.532  19.948  0.00  0.00    +0.000 A 
ATOM      9  C   UNL     1       2.533   2.889  21.256  0.00  0.00    +0.000 A 
ATOM     10  C   UNL     1       2.173   4.199  21.546  0.00  0.00    +0.000 A 
ATOM     11  C   UNL     1       2.099   5.142  20.525  0.00  0.00    +0.000 A 
ATOM     12  C   UNL     1       2.361   4.794  19.188  0.00  0.00    +0.000 A 
BRANCH   7  14
ATOM     13  O   UNL     1       2.390   3.009  16.606  0.00  0.00    +0.000 OA
ATOM     14  C   UNL     1       3.173   3.038  17.538  0.00  0.00    +0.000 C 
BRANCH  14  15
ATOM     15  O   UNL     1       4.469   2.667  17.427  0.00  0.00    +0.000 OA
ATOM     16  H   UNL     1       4.630   1.842  16.927  0.00  0.00    +0.000 HD
ENDBRANCH  14  15
ENDBRANCH   7  14
ENDBRANCH   6  12
ENDBRANCH   1   6
BRANCH   1  17
ATOM     17  C   UNL     1       4.094   7.206  17.155  0.00  0.00    +0.000 C 
BRANCH  17  18
ATOM     18  C   UNL     1       5.230   6.206  17.051  0.00  0.00    +0.000 A 
ATOM     19  C   UNL     1       5.677   5.668  15.837  0.00  0.00    +0.000 A 
ATOM     20  C   UNL     1       6.771   4.793  15.798  0.00  0.00    +0.000 A 
ATOM     21  C   UNL     1       7.451   4.459  16.965  0.00  0.00    +0.000 A 
ATOM     22  C   UNL     1       7.042   5.010  18.179  0.00  0.00    +0.000 A 
ATOM     23  C   UNL     1       5.948   5.881  18.218  0.00  0.00    +0.000 A 
ENDBRANCH  17  18
ENDBRANCH   1  17
TORSDOF 8
ENDMDL
