MODEL 1
REMARK VINA RESULT:      -7.1      0.000      0.000
REMARK  Name = 
REMARK  9 active torsions:
REMARK  status: ('A' for Active; 'I' for Inactive)
REMARK    1  A    between atoms: C_1  and  C_2
REMARK    2  A    between atoms: C_7  and  C_8
REMARK    3  A    between atoms: C_9  and  C_10
REMARK    4  A    between atoms: N_12  and  C_13
REMARK    5  A    between atoms: C_13  and  C_14
REMARK    6  A    between atoms: C_14  and  N_15
REMARK    7  A    between atoms: N_15  and  C_16
REMARK    8  A    between atoms: N_15  and  C_17
REMARK    9  A    between atoms: C_17  and  C_18
REMARK                            x       y       z     vdW  Elec       q    Type
REMARK                         _______ _______ _______ _____ _____    ______ ____
ROOT
ATOM      1  C   UNL     1       5.238   4.170  19.083  0.00  0.00    +0.000 C 
ATOM      2  O   UNL     1       5.022   5.091  19.869  0.00  0.00    +0.000 OA
ATOM      3  N   UNL     1       5.007   2.873  19.460  0.00  0.00    +0.000 N 
ATOM      4  H   UNL     1       5.024   2.121  18.798  0.00  0.00    +0.000 HD
ENDROOT
BRANCH   1  13
ATOM      5  C   UNL     1       3.796   3.478  16.321  0.00  0.00    +0.000 C 
ATOM      6  C   UNL     1       5.150   4.117  16.421  0.00  0.00    +0.000 A 
ATOM      7  C   UNL     1       5.752   4.453  15.266  0.00  0.00    +0.000 A 
ATOM      8  C   UNL     1       7.056   5.121  15.211  0.00  0.00    +0.000 A 
ATOM      9  O   UNL     1       7.575   5.399  14.139  0.00  0.00    +0.000 OA
ATOM     10  O   UNL     1       7.631   5.394  16.409  0.00  0.00    +0.000 OA
ATOM     11  C   UNL     1       7.010   5.062  17.645  0.00  0.00    +0.000 A 
ATOM     12  C   UNL     1       7.868   5.494  18.803  0.00  0.00    +0.000 C 
ATOM     13  C   UNL     1       5.812   4.424  17.700  0.00  0.00    +0.000 A 
ENDBRANCH   1  13
BRANCH   3  14
ATOM     14  C   UNL     1       4.440   2.561  20.761  0.00  0.00    +0.000 C 
BRANCH  14  15
ATOM     15  C   UNL     1       2.906   2.428  20.732  0.00  0.00    +0.000 C 
BRANCH  15  16
ATOM     16  N   UNL     1       2.256   2.857  19.466  0.00  0.00    +0.000 NA
ATOM     17  C   UNL     1       1.667   1.709  18.764  0.00  0.00    +0.000 C 
BRANCH  16  18
ATOM     18  C   UNL     1       1.217   3.861  19.795  0.00  0.00    +0.000 C 
BRANCH  18  19
ATOM     19  C   UNL     1       1.612   5.294  19.495  0.00  0.00    +0.000 A 
ATOM     20  C   UNL     1       1.588   6.263  20.509  0.00  0.00    +0.000 A 
ATOM     21  C   UNL     1       1.971   7.578  20.244  0.00  0.00    +0.000 A 
ATOM     22  C   UNL     1       2.382   7.940  18.960  0.00  0.00    +0.000 A 
ATOM     23  C   UNL     1       2.405   6.987  17.945  0.00  0.00    +0.000 A 
ATOM     24  C   UNL     1       2.025   5.670  18.209  0.00  0.00    +0.000 A 
ENDBRANCH  18  19
ENDBRANCH  16  18
ENDBRANCH  15  16
ENDBRANCH  14  15
ENDBRANCH   3  14
TORSDOF 6
ENDMDL
MODEL 2
REMARK VINA RESULT:      -7.1      0.104      1.011
REMARK  Name = 
REMARK  9 active torsions:
REMARK  status: ('A' for Active; 'I' for Inactive)
REMARK    1  A    between atoms: C_1  and  C_2
REMARK    2  A    between atoms: C_7  and  C_8
REMARK    3  A    between atoms: C_9  and  C_10
REMARK    4  A    between atoms: N_12  and  C_13
REMARK    5  A    between atoms: C_13  and  C_14
REMARK    6  A    between atoms: C_14  and  N_15
REMARK    7  A    between atoms: N_15  and  C_16
REMARK    8  A    between atoms: N_15  and  C_17
REMARK    9  A    between atoms: C_17  and  C_18
REMARK                            x       y       z     vdW  Elec       q    Type
REMARK                         _______ _______ _______ _____ _____    ______ ____
ROOT
ATOM      1  C   UNL     1       5.259   4.076  19.115  0.00  0.00    +0.000 C 
ATOM      2  O   UNL     1       5.070   4.978  19.930  0.00  0.00    +0.000 OA
ATOM      3  N   UNL     1       5.017   2.773  19.461  0.00  0.00    +0.000 N 
ATOM      4  H   UNL     1       5.012   2.039  18.779  0.00  0.00    +0.000 HD
ENDROOT
BRANCH   1  13
ATOM      5  C   UNL     1       3.753   3.484  16.364  0.00  0.00    +0.000 C 
ATOM      6  C   UNL     1       5.118   4.099  16.455  0.00  0.00    +0.000 A 
ATOM      7  C   UNL     1       5.703   4.459  15.298  0.00  0.00    +0.000 A 
ATOM      8  C   UNL     1       7.017   5.107  15.235  0.00  0.00    +0.000 A 
ATOM      9  O   UNL     1       7.518   5.407  14.162  0.00  0.00    +0.000 OA
ATOM     10  O   UNL     1       7.619   5.338  16.429  0.00  0.00    +0.000 OA
ATOM     11  C   UNL     1       7.016   4.981  17.667  0.00  0.00    +0.000 A 
ATOM     12  C   UNL     1       7.904   5.367  18.820  0.00  0.00    +0.000 C 
ATOM     13  C   UNL     1       5.810   4.360  17.728  0.00  0.00    +0.000 A 
ENDBRANCH   1  13
BRANCH   3  14
ATOM     14  C   UNL     1       4.471   2.433  20.764  0.00  0.00    +0.000 C 
BRANCH  14  15
ATOM     15  C   UNL     1       2.937   2.554  20.823  0.00  0.00    +0.000 C 
BRANCH  15  16
ATOM     16  N   UNL     1       2.282   2.945  19.546  0.00  0.00    +0.000 NA
ATOM     17  C   UNL     1       1.693   1.775  18.881  0.00  0.00    +0.000 C 
BRANCH  16  18
ATOM     18  C   UNL     1       1.242   3.957  19.849  0.00  0.00    +0.000 C 
BRANCH  18  19
ATOM     19  C   UNL     1       1.644   5.383  19.530  0.00  0.00    +0.000 A 
ATOM     20  C   UNL     1       2.096   5.722  18.247  0.00  0.00    +0.000 A 
ATOM     21  C   UNL     1       2.447   7.038  17.942  0.00  0.00    +0.000 A 
ATOM     22  C   UNL     1       2.349   8.030  18.918  0.00  0.00    +0.000 A 
ATOM     23  C   UNL     1       1.906   7.704  20.198  0.00  0.00    +0.000 A 
ATOM     24  C   UNL     1       1.552   6.388  20.504  0.00  0.00    +0.000 A 
ENDBRANCH  18  19
ENDBRANCH  16  18
ENDBRANCH  15  16
ENDBRANCH  14  15
ENDBRANCH   3  14
TORSDOF 6
ENDMDL
MODEL 3
REMARK VINA RESULT:      -6.8      4.000      6.004
REMARK  Name = 
REMARK  9 active torsions:
REMARK  status: ('A' for Active; 'I' for Inactive)
REMARK    1  A    between atoms: C_1  and  C_2
REMARK    2  A    between atoms: C_7  and  C_8
REMARK    3  A    between atoms: C_9  and  C_10
REMARK    4  A    between atoms: N_12  and  C_13
REMARK    5  A    between atoms: C_13  and  C_14
REMARK    6  A    between atoms: C_14  and  N_15
REMARK    7  A    between atoms: N_15  and  C_16
REMARK    8  A    between atoms: N_15  and  C_17
REMARK    9  A    between atoms: C_17  and  C_18
REMARK                            x       y       z     vdW  Elec       q    Type
REMARK                         _______ _______ _______ _____ _____    ______ ____
ROOT
ATOM      1  C   UNL     1       2.550   6.218  19.100  0.00  0.00    +0.000 C 
ATOM      2  O   UNL     1       2.213   6.411  17.933  0.00  0.00    +0.000 OA
ATOM      3  N   UNL     1       2.414   7.214  20.031  0.00  0.00    +0.000 N 
ATOM      4  H   UNL     1       2.533   7.040  21.010  0.00  0.00    +0.000 HD
ENDROOT
BRANCH   1  13
ATOM      5  C   UNL     1       1.003   3.831  20.549  0.00  0.00    +0.000 C 
ATOM      6  C   UNL     1       2.461   3.794  20.201  0.00  0.00    +0.000 A 
ATOM      7  C   UNL     1       3.126   2.659  20.482  0.00  0.00    +0.000 A 
ATOM      8  C   UNL     1       4.543   2.463  20.162  0.00  0.00    +0.000 A 
ATOM      9  O   UNL     1       5.113   1.419  20.445  0.00  0.00    +0.000 OA
ATOM     10  O   UNL     1       5.159   3.504  19.548  0.00  0.00    +0.000 OA
ATOM     11  C   UNL     1       4.476   4.710  19.226  0.00  0.00    +0.000 A 
ATOM     12  C   UNL     1       5.404   5.678  18.542  0.00  0.00    +0.000 C 
ATOM     13  C   UNL     1       3.170   4.903  19.541  0.00  0.00    +0.000 A 
ENDBRANCH   1  13
BRANCH   3  14
ATOM     14  C   UNL     1       1.811   8.490  19.681  0.00  0.00    +0.000 C 
BRANCH  14  15
ATOM     15  C   UNL     1       0.653   8.883  20.617  0.00  0.00    +0.000 C 
BRANCH  15  16
ATOM     16  N   UNL     1       0.074  10.232  20.377  0.00  0.00    +0.000 NA
ATOM     17  C   UNL     1       0.855  11.268  21.066  0.00  0.00    +0.000 C 
BRANCH  16  18
ATOM     18  C   UNL     1       0.053  10.475  18.915  0.00  0.00    +0.000 C 
BRANCH  18  19
ATOM     19  C   UNL     1      -1.336  10.584  18.317  0.00  0.00    +0.000 A 
ATOM     20  C   UNL     1      -2.270  11.482  18.853  0.00  0.00    +0.000 A 
ATOM     21  C   UNL     1      -3.543  11.601  18.294  0.00  0.00    +0.000 A 
ATOM     22  C   UNL     1      -3.896  10.824  17.191  0.00  0.00    +0.000 A 
ATOM     23  C   UNL     1      -2.978   9.924  16.653  0.00  0.00    +0.000 A 
ATOM     24  C   UNL     1      -1.703   9.805  17.210  0.00  0.00    +0.000 A 
ENDBRANCH  18  19
ENDBRANCH  16  18
ENDBRANCH  15  16
ENDBRANCH  14  15
ENDBRANCH   3  14
TORSDOF 6
ENDMDL
MODEL 4
REMARK VINA RESULT:      -6.8      1.794      2.891
REMARK  Name = 
REMARK  9 active torsions:
REMARK  status: ('A' for Active; 'I' for Inactive)
REMARK    1  A    between atoms: C_1  and  C_2
REMARK    2  A    between atoms: C_7  and  C_8
REMARK    3  A    between atoms: C_9  and  C_10
REMARK    4  A    between atoms: N_12  and  C_13
REMARK    5  A    between atoms: C_13  and  C_14
REMARK    6  A    between atoms: C_14  and  N_15
REMARK    7  A    between atoms: N_15  and  C_16
REMARK    8  A    between atoms: N_15  and  C_17
REMARK    9  A    between atoms: C_17  and  C_18
REMARK                            x       y       z     vdW  Elec       q    Type
REMARK                         _______ _______ _______ _____ _____    ______ ____
ROOT
ATOM      1  C   UNL     1       5.801   4.541  18.025  0.00  0.00    +0.000 C 
ATOM      2  O   UNL     1       5.642   3.878  17.002  0.00  0.00    +0.000 OA
ATOM      3  N   UNL     1       5.260   4.118  19.211  0.00  0.00    +0.000 N 
ATOM      4  H   UNL     1       5.500   4.549  20.083  0.00  0.00    +0.000 HD
ENDROOT
BRANCH   1  13
ATOM      5  C   UNL     1       8.266   5.304  19.904  0.00  0.00    +0.000 C 
ATOM      6  C   UNL     1       7.691   6.220  18.864  0.00  0.00    +0.000 A 
ATOM      7  C   UNL     1       8.297   7.410  18.697  0.00  0.00    +0.000 A 
ATOM      8  C   UNL     1       7.872   8.389  17.692  0.00  0.00    +0.000 A 
ATOM      9  O   UNL     1       8.442   9.464  17.582  0.00  0.00    +0.000 OA
ATOM     10  O   UNL     1       6.820   8.021  16.918  0.00  0.00    +0.000 OA
ATOM     11  C   UNL     1       6.170   6.763  17.064  0.00  0.00    +0.000 A 
ATOM     12  C   UNL     1       5.051   6.626  16.067  0.00  0.00    +0.000 C 
ATOM     13  C   UNL     1       6.547   5.863  18.008  0.00  0.00    +0.000 A 
ENDBRANCH   1  13
BRANCH   3  14
ATOM     14  C   UNL     1       4.551   2.853  19.303  0.00  0.00    +0.000 C 
BRANCH  14  15
ATOM     15  C   UNL     1       3.285   2.935  20.175  0.00  0.00    +0.000 C 
BRANCH  15  16
ATOM     16  N   UNL     1       2.281   3.943  19.743  0.00  0.00    +0.000 NA
ATOM     17  C   UNL     1       0.930   3.367  19.733  0.00  0.00    +0.000 C 
BRANCH  16  18
ATOM     18  C   UNL     1       2.354   5.098  20.669  0.00  0.00    +0.000 C 
BRANCH  18  19
ATOM     19  C   UNL     1       2.111   6.444  20.015  0.00  0.00    +0.000 A 
ATOM     20  C   UNL     1       1.484   7.476  20.729  0.00  0.00    +0.000 A 
ATOM     21  C   UNL     1       1.277   8.723  20.139  0.00  0.00    +0.000 A 
ATOM     22  C   UNL     1       1.695   8.953  18.828  0.00  0.00    +0.000 A 
ATOM     23  C   UNL     1       2.314   7.934  18.108  0.00  0.00    +0.000 A 
ATOM     24  C   UNL     1       2.525   6.686  18.698  0.00  0.00    +0.000 A 
ENDBRANCH  18  19
ENDBRANCH  16  18
ENDBRANCH  15  16
ENDBRANCH  14  15
ENDBRANCH   3  14
TORSDOF 6
ENDMDL
MODEL 5
REMARK VINA RESULT:      -6.5      0.696      2.112
REMARK  Name = 
REMARK  9 active torsions:
REMARK  status: ('A' for Active; 'I' for Inactive)
REMARK    1  A    between atoms: C_1  and  C_2
REMARK    2  A    between atoms: C_7  and  C_8
REMARK    3  A    between atoms: C_9  and  C_10
REMARK    4  A    between atoms: N_12  and  C_13
REMARK    5  A    between atoms: C_13  and  C_14
REMARK    6  A    between atoms: C_14  and  N_15
REMARK    7  A    between atoms: N_15  and  C_16
REMARK    8  A    between atoms: N_15  and  C_17
REMARK    9  A    between atoms: C_17  and  C_18
REMARK                            x       y       z     vdW  Elec       q    Type
REMARK                         _______ _______ _______ _____ _____    ______ ____
ROOT
ATOM      1  C   UNL     1       5.217   4.250  19.079  0.00  0.00    +0.000 C 
ATOM      2  O   UNL     1       5.081   5.076  19.981  0.00  0.00    +0.000 OA
ATOM      3  N   UNL     1       4.861   2.942  19.282  0.00  0.00    +0.000 N 
ATOM      4  H   UNL     1       4.814   2.286  18.527  0.00  0.00    +0.000 HD
ENDROOT
BRANCH   1  13
ATOM      5  C   UNL     1       7.877   5.966  18.668  0.00  0.00    +0.000 C 
ATOM      6  C   UNL     1       7.056   5.412  17.541  0.00  0.00    +0.000 A 
ATOM      7  C   UNL     1       7.512   5.622  16.293  0.00  0.00    +0.000 A 
ATOM      8  C   UNL     1       6.838   5.105  15.099  0.00  0.00    +0.000 A 
ATOM      9  O   UNL     1       7.280   5.329  13.981  0.00  0.00    +0.000 OA
ATOM     10  O   UNL     1       5.712   4.383  15.323  0.00  0.00    +0.000 OA
ATOM     11  C   UNL     1       5.215   4.134  16.632  0.00  0.00    +0.000 A 
ATOM     12  C   UNL     1       3.964   3.299  16.575  0.00  0.00    +0.000 C 
ATOM     13  C   UNL     1       5.824   4.629  17.740  0.00  0.00    +0.000 A 
ENDBRANCH   1  13
BRANCH   3  14
ATOM     14  C   UNL     1       4.256   2.516  20.533  0.00  0.00    +0.000 C 
BRANCH  14  15
ATOM     15  C   UNL     1       2.783   2.099  20.376  0.00  0.00    +0.000 C 
BRANCH  15  16
ATOM     16  N   UNL     1       1.949   3.013  19.551  0.00  0.00    +0.000 NA
ATOM     17  C   UNL     1       0.819   2.293  18.949  0.00  0.00    +0.000 C 
BRANCH  16  18
ATOM     18  C   UNL     1       1.468   4.114  20.419  0.00  0.00    +0.000 C 
BRANCH  18  19
ATOM     19  C   UNL     1       1.744   5.504  19.881  0.00  0.00    +0.000 A 
ATOM     20  C   UNL     1       2.092   5.687  18.534  0.00  0.00    +0.000 A 
ATOM     21  C   UNL     1       2.327   6.966  18.029  0.00  0.00    +0.000 A 
ATOM     22  C   UNL     1       2.215   8.078  18.864  0.00  0.00    +0.000 A 
ATOM     23  C   UNL     1       1.875   7.908  20.204  0.00  0.00    +0.000 A 
ATOM     24  C   UNL     1       1.637   6.629  20.711  0.00  0.00    +0.000 A 
ENDBRANCH  18  19
ENDBRANCH  16  18
ENDBRANCH  15  16
ENDBRANCH  14  15
ENDBRANCH   3  14
TORSDOF 6
ENDMDL
MODEL 6
REMARK VINA RESULT:      -6.5      2.340      5.258
REMARK  Name = 
REMARK  9 active torsions:
REMARK  status: ('A' for Active; 'I' for Inactive)
REMARK    1  A    between atoms: C_1  and  C_2
REMARK    2  A    between atoms: C_7  and  C_8
REMARK    3  A    between atoms: C_9  and  C_10
REMARK    4  A    between atoms: N_12  and  C_13
REMARK    5  A    between atoms: C_13  and  C_14
REMARK    6  A    between atoms: C_14  and  N_15
REMARK    7  A    between atoms: N_15  and  C_16
REMARK    8  A    between atoms: N_15  and  C_17
REMARK    9  A    between atoms: C_17  and  C_18
REMARK                            x       y       z     vdW  Elec       q    Type
REMARK                         _______ _______ _______ _____ _____    ______ ____
ROOT
ATOM      1  C   UNL     1       4.111   2.958  17.913  0.00  0.00    +0.000 C 
ATOM      2  O   UNL     1       3.999   2.128  17.013  0.00  0.00    +0.000 OA
ATOM      3  N   UNL     1       5.105   3.900  17.863  0.00  0.00    +0.000 N 
ATOM      4  H   UNL     1       5.127   4.678  18.494  0.00  0.00    +0.000 HD
ENDROOT
BRANCH   1  13
ATOM      5  C   UNL     1       1.093   3.996  17.976  0.00  0.00    +0.000 C 
ATOM      6  C   UNL     1       1.801   3.411  19.162  0.00  0.00    +0.000 A 
ATOM      7  C   UNL     1       1.088   3.281  20.295  0.00  0.00    +0.000 A 
ATOM      8  C   UNL     1       1.635   2.689  21.520  0.00  0.00    +0.000 A 
ATOM      9  O   UNL     1       0.957   2.601  22.532  0.00  0.00    +0.000 OA
ATOM     10  O   UNL     1       2.921   2.264  21.446  0.00  0.00    +0.000 OA
ATOM     11  C   UNL     1       3.694   2.376  20.256  0.00  0.00    +0.000 A 
ATOM     12  C   UNL     1       5.074   1.813  20.464  0.00  0.00    +0.000 C 
ATOM     13  C   UNL     1       3.197   2.943  19.127  0.00  0.00    +0.000 A 
ENDBRANCH   1  13
BRANCH   3  14
ATOM     14  C   UNL     1       6.001   3.983  16.722  0.00  0.00    +0.000 C 
BRANCH  14  15
ATOM     15  C   UNL     1       6.374   5.431  16.355  0.00  0.00    +0.000 C 
BRANCH  15  16
ATOM     16  N   UNL     1       5.840   6.475  17.270  0.00  0.00    +0.000 NA
ATOM     17  C   UNL     1       6.819   7.553  17.463  0.00  0.00    +0.000 C 
BRANCH  16  18
ATOM     18  C   UNL     1       4.584   7.004  16.688  0.00  0.00    +0.000 C 
BRANCH  18  19
ATOM     19  C   UNL     1       3.532   7.390  17.710  0.00  0.00    +0.000 A 
ATOM     20  C   UNL     1       3.361   6.625  18.874  0.00  0.00    +0.000 A 
ATOM     21  C   UNL     1       2.409   6.988  19.827  0.00  0.00    +0.000 A 
ATOM     22  C   UNL     1       1.618   8.120  19.628  0.00  0.00    +0.000 A 
ATOM     23  C   UNL     1       1.776   8.883  18.474  0.00  0.00    +0.000 A 
ATOM     24  C   UNL     1       2.730   8.523  17.519  0.00  0.00    +0.000 A 
ENDBRANCH  18  19
ENDBRANCH  16  18
ENDBRANCH  15  16
ENDBRANCH  14  15
ENDBRANCH   3  14
TORSDOF 6
ENDMDL
MODEL 7
REMARK VINA RESULT:      -6.5      3.739      5.837
REMARK  Name = 
REMARK  9 active torsions:
REMARK  status: ('A' for Active; 'I' for Inactive)
REMARK    1  A    between atoms: C_1  and  C_2
REMARK    2  A    between atoms: C_7  and  C_8
REMARK    3  A    between atoms: C_9  and  C_10
REMARK    4  A    between atoms: N_12  and  C_13
REMARK    5  A    between atoms: C_13  and  C_14
REMARK    6  A    between atoms: C_14  and  N_15
REMARK    7  A    between atoms: N_15  and  C_16
REMARK    8  A    between atoms: N_15  and  C_17
REMARK    9  A    between atoms: C_17  and  C_18
REMARK                            x       y       z     vdW  Elec       q    Type
REMARK                         _______ _______ _______ _____ _____    ______ ____
ROOT
ATOM      1  C   UNL     1       2.390   5.485  18.376  0.00  0.00    +0.000 C 
ATOM      2  O   UNL     1       1.574   5.195  17.503  0.00  0.00    +0.000 OA
ATOM      3  N   UNL     1       2.735   6.793  18.592  0.00  0.00    +0.000 N 
ATOM      4  H   UNL     1       3.272   7.072  19.390  0.00  0.00    +0.000 HD
ENDROOT
BRANCH   1  13
ATOM      5  C   UNL     1       1.003   3.713  20.640  0.00  0.00    +0.000 C 
ATOM      6  C   UNL     1       2.445   3.586  20.245  0.00  0.00    +0.000 A 
ATOM      7  C   UNL     1       3.165   2.631  20.860  0.00  0.00    +0.000 A 
ATOM      8  C   UNL     1       4.572   2.365  20.547  0.00  0.00    +0.000 A 
ATOM      9  O   UNL     1       5.193   1.494  21.138  0.00  0.00    +0.000 OA
ATOM     10  O   UNL     1       5.118   3.142  19.579  0.00  0.00    +0.000 OA
ATOM     11  C   UNL     1       4.376   4.151  18.903  0.00  0.00    +0.000 A 
ATOM     12  C   UNL     1       5.234   4.842  17.877  0.00  0.00    +0.000 C 
ATOM     13  C   UNL     1       3.079   4.415  19.205  0.00  0.00    +0.000 A 
ENDBRANCH   1  13
BRANCH   3  14
ATOM     14  C   UNL     1       2.099   7.868  17.848  0.00  0.00    +0.000 C 
BRANCH  14  15
ATOM     15  C   UNL     1       1.993   9.175  18.654  0.00  0.00    +0.000 C 
BRANCH  15  16
ATOM     16  N   UNL     1       0.761   9.316  19.475  0.00  0.00    +0.000 NA
ATOM     17  C   UNL     1       1.059   9.131  20.902  0.00  0.00    +0.000 C 
BRANCH  16  18
ATOM     18  C   UNL     1       0.189  10.661  19.227  0.00  0.00    +0.000 C 
BRANCH  18  19
ATOM     19  C   UNL     1      -1.133  10.653  18.485  0.00  0.00    +0.000 A 
ATOM     20  C   UNL     1      -2.201  11.445  18.931  0.00  0.00    +0.000 A 
ATOM     21  C   UNL     1      -3.413  11.458  18.239  0.00  0.00    +0.000 A 
ATOM     22  C   UNL     1      -3.570  10.678  17.093  0.00  0.00    +0.000 A 
ATOM     23  C   UNL     1      -2.517   9.884  16.644  0.00  0.00    +0.000 A 
ATOM     24  C   UNL     1      -1.303   9.872  17.333  0.00  0.00    +0.000 A 
ENDBRANCH  18  19
ENDBRANCH  16  18
ENDBRANCH  15  16
ENDBRANCH  14  15
ENDBRANCH   3  14
TORSDOF 6
ENDMDL
MODEL 8
REMARK VINA RESULT:      -6.4      3.917      5.392
REMARK  Name = 
REMARK  9 active torsions:
REMARK  status: ('A' for Active; 'I' for Inactive)
REMARK    1  A    between atoms: C_1  and  C_2
REMARK    2  A    between atoms: C_7  and  C_8
REMARK    3  A    between atoms: C_9  and  C_10
REMARK    4  A    between atoms: N_12  and  C_13
REMARK    5  A    between atoms: C_13  and  C_14
REMARK    6  A    between atoms: C_14  and  N_15
REMARK    7  A    between atoms: N_15  and  C_16
REMARK    8  A    between atoms: N_15  and  C_17
REMARK    9  A    between atoms: C_17  and  C_18
REMARK                            x       y       z     vdW  Elec       q    Type
REMARK                         _______ _______ _______ _____ _____    ______ ____
ROOT
ATOM      1  C   UNL     1       3.228   6.425  17.828  0.00  0.00    +0.000 C 
ATOM      2  O   UNL     1       2.203   5.744  17.816  0.00  0.00    +0.000 OA
ATOM      3  N   UNL     1       3.148   7.789  17.935  0.00  0.00    +0.000 N 
ATOM      4  H   UNL     1       3.959   8.352  18.103  0.00  0.00    +0.000 HD
ENDROOT
BRANCH   1  13
ATOM      5  C   UNL     1       5.183   6.825  15.337  0.00  0.00    +0.000 C 
ATOM      6  C   UNL     1       5.514   5.982  16.534  0.00  0.00    +0.000 A 
ATOM      7  C   UNL     1       6.731   5.410  16.559  0.00  0.00    +0.000 A 
ATOM      8  C   UNL     1       7.207   4.595  17.681  0.00  0.00    +0.000 A 
ATOM      9  O   UNL     1       8.316   4.082  17.659  0.00  0.00    +0.000 OA
ATOM     10  O   UNL     1       6.341   4.452  18.716  0.00  0.00    +0.000 OA
ATOM     11  C   UNL     1       5.054   5.058  18.721  0.00  0.00    +0.000 A 
ATOM     12  C   UNL     1       4.323   4.739  19.998  0.00  0.00    +0.000 C 
ATOM     13  C   UNL     1       4.602   5.796  17.675  0.00  0.00    +0.000 A 
ENDBRANCH   1  13
BRANCH   3  14
ATOM     14  C   UNL     1       1.867   8.454  18.105  0.00  0.00    +0.000 C 
BRANCH  14  15
ATOM     15  C   UNL     1       1.479   8.642  19.583  0.00  0.00    +0.000 C 
BRANCH  15  16
ATOM     16  N   UNL     1       0.446   9.681  19.840  0.00  0.00    +0.000 NA
ATOM     17  C   UNL     1       0.856  10.567  20.937  0.00  0.00    +0.000 C 
BRANCH  16  18
ATOM     18  C   UNL     1       0.241  10.451  18.590  0.00  0.00    +0.000 C 
BRANCH  18  19
ATOM     19  C   UNL     1      -1.209  10.594  18.172  0.00  0.00    +0.000 A 
ATOM     20  C   UNL     1      -1.732   9.798  17.141  0.00  0.00    +0.000 A 
ATOM     21  C   UNL     1      -3.071   9.911  16.766  0.00  0.00    +0.000 A 
ATOM     22  C   UNL     1      -3.904  10.821  17.418  0.00  0.00    +0.000 A 
ATOM     23  C   UNL     1      -3.394  11.620  18.439  0.00  0.00    +0.000 A 
ATOM     24  C   UNL     1      -2.055  11.507  18.818  0.00  0.00    +0.000 A 
ENDBRANCH  18  19
ENDBRANCH  16  18
ENDBRANCH  15  16
ENDBRANCH  14  15
ENDBRANCH   3  14
TORSDOF 6
ENDMDL
MODEL 9
REMARK VINA RESULT:      -6.4      2.378      5.555
REMARK  Name = 
REMARK  9 active torsions:
REMARK  status: ('A' for Active; 'I' for Inactive)
REMARK    1  A    between atoms: C_1  and  C_2
REMARK    2  A    between atoms: C_7  and  C_8
REMARK    3  A    between atoms: C_9  and  C_10
REMARK    4  A    between atoms: N_12  and  C_13
REMARK    5  A    between atoms: C_13  and  C_14
REMARK    6  A    between atoms: C_14  and  N_15
REMARK    7  A    between atoms: N_15  and  C_16
REMARK    8  A    between atoms: N_15  and  C_17
REMARK    9  A    between atoms: C_17  and  C_18
REMARK                            x       y       z     vdW  Elec       q    Type
REMARK                         _______ _______ _______ _____ _____    ______ ____
ROOT
ATOM      1  C   UNL     1       2.481   6.059  19.837  0.00  0.00    +0.000 C 
ATOM      2  O   UNL     1       3.611   5.709  20.173  0.00  0.00    +0.000 OA
ATOM      3  N   UNL     1       1.458   5.148  19.806  0.00  0.00    +0.000 N 
ATOM      4  H   UNL     1       0.504   5.430  19.689  0.00  0.00    +0.000 HD
ENDROOT
BRANCH   1  13
ATOM      5  C   UNL     1       3.384   7.372  17.071  0.00  0.00    +0.000 C 
ATOM      6  C   UNL     1       2.592   8.094  18.121  0.00  0.00    +0.000 A 
ATOM      7  C   UNL     1       2.210   9.352  17.839  0.00  0.00    +0.000 A 
ATOM      8  C   UNL     1       1.398  10.164  18.751  0.00  0.00    +0.000 A 
ATOM      9  O   UNL     1       1.081  11.308  18.460  0.00  0.00    +0.000 OA
ATOM     10  O   UNL     1       1.039   9.564  19.913  0.00  0.00    +0.000 OA
ATOM     11  C   UNL     1       1.418   8.230  20.231  0.00  0.00    +0.000 A 
ATOM     12  C   UNL     1       0.869   7.828  21.574  0.00  0.00    +0.000 C 
ATOM     13  C   UNL     1       2.187   7.483  19.399  0.00  0.00    +0.000 A 
ENDBRANCH   1  13
BRANCH   3  14
ATOM     14  C   UNL     1       1.665   3.773  20.231  0.00  0.00    +0.000 C 
BRANCH  14  15
ATOM     15  C   UNL     1       1.882   2.806  19.053  0.00  0.00    +0.000 C 
BRANCH  15  16
ATOM     16  N   UNL     1       3.282   2.709  18.562  0.00  0.00    +0.000 NA
ATOM     17  C   UNL     1       3.689   1.305  18.415  0.00  0.00    +0.000 C 
BRANCH  16  18
ATOM     18  C   UNL     1       3.369   3.420  17.264  0.00  0.00    +0.000 C 
BRANCH  18  19
ATOM     19  C   UNL     1       4.738   3.991  16.952  0.00  0.00    +0.000 A 
ATOM     20  C   UNL     1       5.129   4.210  15.623  0.00  0.00    +0.000 A 
ATOM     21  C   UNL     1       6.379   4.755  15.331  0.00  0.00    +0.000 A 
ATOM     22  C   UNL     1       7.254   5.088  16.365  0.00  0.00    +0.000 A 
ATOM     23  C   UNL     1       6.879   4.871  17.689  0.00  0.00    +0.000 A 
ATOM     24  C   UNL     1       5.626   4.328  17.983  0.00  0.00    +0.000 A 
ENDBRANCH  18  19
ENDBRANCH  16  18
ENDBRANCH  15  16
ENDBRANCH  14  15
ENDBRANCH   3  14
TORSDOF 6
ENDMDL
