MODEL 1
REMARK VINA RESULT:      -7.8      0.000      0.000
REMARK  Name = 
REMARK  2 active torsions:
REMARK  status: ('A' for Active; 'I' for Inactive)
REMARK    1  A    between atoms: N_3  and  C_4
REMARK    2  A    between atoms: C_20  and  C_21
REMARK                            x       y       z     vdW  Elec       q    Type
REMARK                         _______ _______ _______ _____ _____    ______ ____
ROOT
ATOM      1  O   UNL     1       1.742   8.405  21.042  0.00  0.00    +0.000 OA
ATOM      2  C   UNL     1       1.837   7.883  19.935  0.00  0.00    +0.000 C 
ATOM      3  N   UNL     1       1.426   8.486  18.759  0.00  0.00    +0.000 N 
ATOM      4  N   UNL     1       2.309   6.588  19.779  0.00  0.00    +0.000 N 
ATOM      5  C   UNL     1       2.483   5.766  20.988  0.00  0.00    +0.000 C 
ATOM      6  C   UNL     1       1.899   4.346  20.840  0.00  0.00    +0.000 C 
ATOM      7  C   UNL     1       2.024   3.854  19.431  0.00  0.00    +0.000 A 
ATOM      8  S   UNL     1       1.657   2.257  18.979  0.00  0.00    +0.000 S 
ATOM      9  C   UNL     1       2.022   2.581  17.338  0.00  0.00    +0.000 A 
ATOM     10  C   UNL     1       2.406   3.890  17.139  0.00  0.00    +0.000 A 
ATOM     11  C   UNL     1       2.439   4.630  18.364  0.00  0.00    +0.000 A 
ATOM     12  C   UNL     1       2.879   6.059  18.530  0.00  0.00    +0.000 C 
ATOM     13  H   UNL     1       1.121   7.850  18.045  0.00  0.00    +0.000 HD
ENDROOT
BRANCH   3  14
ATOM     14  C   UNL     1       0.975   9.814  18.609  0.00  0.00    +0.000 A 
ATOM     15  C   UNL     1       1.829  10.910  18.482  0.00  0.00    +0.000 A 
ATOM     16  C   UNL     1       1.305  12.200  18.405  0.00  0.00    +0.000 A 
ATOM     17 CL   UNL     1       2.372  13.547  18.294  0.00  0.00    +0.000 Cl
ATOM     18  C   UNL     1      -0.069  12.412  18.428  0.00  0.00    +0.000 A 
ATOM     19  C   UNL     1      -0.921  11.316  18.513  0.00  0.00    +0.000 A 
ATOM     20 CL   UNL     1      -2.626  11.559  18.535  0.00  0.00    +0.000 Cl
ATOM     21  C   UNL     1      -0.409  10.021  18.595  0.00  0.00    +0.000 A 
ENDBRANCH   3  14
BRANCH  12  22
ATOM     22  C   UNL     1       4.405   6.092  18.472  0.00  0.00    +0.000 A 
ATOM     23  C   UNL     1       5.022   6.871  17.476  0.00  0.00    +0.000 A 
ATOM     24  C   UNL     1       6.413   6.873  17.324  0.00  0.00    +0.000 A 
ATOM     25  C   UNL     1       7.213   6.111  18.172  0.00  0.00    +0.000 A 
ATOM     26  C   UNL     1       6.628   5.362  19.185  0.00  0.00    +0.000 A 
ATOM     27  C   UNL     1       5.241   5.363  19.341  0.00  0.00    +0.000 A 
ENDBRANCH  12  22
TORSDOF 2
ENDMDL
MODEL 2
REMARK VINA RESULT:      -7.8      3.962      8.203
REMARK  Name = 
REMARK  2 active torsions:
REMARK  status: ('A' for Active; 'I' for Inactive)
REMARK    1  A    between atoms: N_3  and  C_4
REMARK    2  A    between atoms: C_20  and  C_21
REMARK                            x       y       z     vdW  Elec       q    Type
REMARK                         _______ _______ _______ _____ _____    ______ ____
ROOT
ATOM      1  O   UNL     1       0.540   8.342  21.241  0.00  0.00    +0.000 OA
ATOM      2  C   UNL     1       0.703   9.128  20.313  0.00  0.00    +0.000 C 
ATOM      3  N   UNL     1       1.568   8.907  19.256  0.00  0.00    +0.000 N 
ATOM      4  N   UNL     1       0.071  10.363  20.287  0.00  0.00    +0.000 N 
ATOM      5  C   UNL     1      -0.625  10.809  21.505  0.00  0.00    +0.000 C 
ATOM      6  C   UNL     1      -0.301  12.269  21.884  0.00  0.00    +0.000 C 
ATOM      7  C   UNL     1      -0.065  13.104  20.663  0.00  0.00    +0.000 A 
ATOM      8  S   UNL     1       0.121  14.793  20.728  0.00  0.00    +0.000 S 
ATOM      9  C   UNL     1       0.359  14.885  19.035  0.00  0.00    +0.000 A 
ATOM     10  C   UNL     1       0.308  13.645  18.435  0.00  0.00    +0.000 A 
ATOM     11  C   UNL     1       0.030  12.604  19.378  0.00  0.00    +0.000 A 
ATOM     12  C   UNL     1      -0.164  11.147  19.063  0.00  0.00    +0.000 C 
ATOM     13  H   UNL     1       1.959   9.739  18.851  0.00  0.00    +0.000 HD
ENDROOT
BRANCH   3  14
ATOM     14  C   UNL     1       2.284   7.721  18.990  0.00  0.00    +0.000 A 
ATOM     15  C   UNL     1       2.194   6.573  19.779  0.00  0.00    +0.000 A 
ATOM     16  C   UNL     1       2.985   5.461  19.487  0.00  0.00    +0.000 A 
ATOM     17 CL   UNL     1       2.899   4.068  20.495  0.00  0.00    +0.000 Cl
ATOM     18  C   UNL     1       3.852   5.470  18.400  0.00  0.00    +0.000 A 
ATOM     19  C   UNL     1       3.910   6.600  17.591  0.00  0.00    +0.000 A 
ATOM     20 CL   UNL     1       4.971   6.626  16.235  0.00  0.00    +0.000 Cl
ATOM     21  C   UNL     1       3.127   7.719  17.873  0.00  0.00    +0.000 A 
ENDBRANCH   3  14
BRANCH  12  22
ATOM     22  C   UNL     1      -1.561  10.975  18.466  0.00  0.00    +0.000 A 
ATOM     23  C   UNL     1      -1.742  10.024  17.446  0.00  0.00    +0.000 A 
ATOM     24  C   UNL     1      -2.978   9.883  16.806  0.00  0.00    +0.000 A 
ATOM     25  C   UNL     1      -4.058  10.677  17.184  0.00  0.00    +0.000 A 
ATOM     26  C   UNL     1      -3.912  11.597  18.214  0.00  0.00    +0.000 A 
ATOM     27  C   UNL     1      -2.681  11.736  18.856  0.00  0.00    +0.000 A 
ENDBRANCH  12  22
TORSDOF 2
ENDMDL
MODEL 3
REMARK VINA RESULT:      -7.7      3.823      7.953
REMARK  Name = 
REMARK  2 active torsions:
REMARK  status: ('A' for Active; 'I' for Inactive)
REMARK    1  A    between atoms: N_3  and  C_4
REMARK    2  A    between atoms: C_20  and  C_21
REMARK                            x       y       z     vdW  Elec       q    Type
REMARK                         _______ _______ _______ _____ _____    ______ ____
ROOT
ATOM      1  O   UNL     1       1.380   7.565  20.565  0.00  0.00    +0.000 OA
ATOM      2  C   UNL     1       1.487   8.425  19.696  0.00  0.00    +0.000 C 
ATOM      3  N   UNL     1       2.194   8.252  18.520  0.00  0.00    +0.000 N 
ATOM      4  N   UNL     1       0.954   9.696  19.862  0.00  0.00    +0.000 N 
ATOM      5  C   UNL     1       0.452  10.066  21.195  0.00  0.00    +0.000 C 
ATOM      6  C   UNL     1       0.933  11.458  21.655  0.00  0.00    +0.000 C 
ATOM      7  C   UNL     1       1.079  12.390  20.492  0.00  0.00    +0.000 A 
ATOM      8  S   UNL     1       1.402  14.049  20.680  0.00  0.00    +0.000 S 
ATOM      9  C   UNL     1       1.434  14.289  18.986  0.00  0.00    +0.000 A 
ATOM     10  C   UNL     1       1.213  13.119  18.290  0.00  0.00    +0.000 A 
ATOM     11  C   UNL     1       0.975  12.013  19.167  0.00  0.00    +0.000 A 
ATOM     12  C   UNL     1       0.630  10.608  18.753  0.00  0.00    +0.000 C 
ATOM     13  H   UNL     1       2.594   9.091  18.142  0.00  0.00    +0.000 HD
ENDROOT
BRANCH   3  14
ATOM     14  C   UNL     1       2.777   7.053  18.059  0.00  0.00    +0.000 A 
ATOM     15  C   UNL     1       2.135   5.815  18.109  0.00  0.00    +0.000 A 
ATOM     16  C   UNL     1       2.804   4.663  17.694  0.00  0.00    +0.000 A 
ATOM     17 CL   UNL     1       2.017   3.136  17.802  0.00  0.00    +0.000 Cl
ATOM     18  C   UNL     1       4.104   4.733  17.205  0.00  0.00    +0.000 A 
ATOM     19  C   UNL     1       4.729   5.973  17.118  0.00  0.00    +0.000 A 
ATOM     20 CL   UNL     1       6.335   6.080  16.508  0.00  0.00    +0.000 Cl
ATOM     21  C   UNL     1       4.071   7.131  17.533  0.00  0.00    +0.000 A 
ENDBRANCH   3  14
BRANCH  12  22
ATOM     22  C   UNL     1      -0.839  10.588  18.331  0.00  0.00    +0.000 A 
ATOM     23  C   UNL     1      -1.227   9.722  17.293  0.00  0.00    +0.000 A 
ATOM     24  C   UNL     1      -2.539   9.722  16.810  0.00  0.00    +0.000 A 
ATOM     25  C   UNL     1      -3.491  10.573  17.365  0.00  0.00    +0.000 A 
ATOM     26  C   UNL     1      -3.140  11.410  18.416  0.00  0.00    +0.000 A 
ATOM     27  C   UNL     1      -1.832  11.409  18.902  0.00  0.00    +0.000 A 
ENDBRANCH  12  22
TORSDOF 2
ENDMDL
MODEL 4
REMARK VINA RESULT:      -7.7      0.152      1.769
REMARK  Name = 
REMARK  2 active torsions:
REMARK  status: ('A' for Active; 'I' for Inactive)
REMARK    1  A    between atoms: N_3  and  C_4
REMARK    2  A    between atoms: C_20  and  C_21
REMARK                            x       y       z     vdW  Elec       q    Type
REMARK                         _______ _______ _______ _____ _____    ______ ____
ROOT
ATOM      1  O   UNL     1       1.741   8.270  21.125  0.00  0.00    +0.000 OA
ATOM      2  C   UNL     1       1.837   7.780  20.004  0.00  0.00    +0.000 C 
ATOM      3  N   UNL     1       1.407   8.407  18.848  0.00  0.00    +0.000 N 
ATOM      4  N   UNL     1       2.331   6.498  19.810  0.00  0.00    +0.000 N 
ATOM      5  C   UNL     1       2.529   5.648  20.995  0.00  0.00    +0.000 C 
ATOM      6  C   UNL     1       1.970   4.221  20.813  0.00  0.00    +0.000 C 
ATOM      7  C   UNL     1       2.094   3.771  19.390  0.00  0.00    +0.000 A 
ATOM      8  S   UNL     1       1.752   2.179  18.898  0.00  0.00    +0.000 S 
ATOM      9  C   UNL     1       2.098   2.554  17.264  0.00  0.00    +0.000 A 
ATOM     10  C   UNL     1       2.458   3.875  17.098  0.00  0.00    +0.000 A 
ATOM     11  C   UNL     1       2.486   4.582  18.342  0.00  0.00    +0.000 A 
ATOM     12  C   UNL     1       2.901   6.014  18.542  0.00  0.00    +0.000 C 
ATOM     13  H   UNL     1       1.108   7.785  18.118  0.00  0.00    +0.000 HD
ENDROOT
BRANCH   3  14
ATOM     14  C   UNL     1       0.930   9.729  18.737  0.00  0.00    +0.000 A 
ATOM     15  C   UNL     1      -0.424  10.066  18.760  0.00  0.00    +0.000 A 
ATOM     16  C   UNL     1      -0.819  11.392  18.578  0.00  0.00    +0.000 A 
ATOM     17 CL   UNL     1      -2.494  11.787  18.565  0.00  0.00    +0.000 Cl
ATOM     18  C   UNL     1       0.125  12.396  18.396  0.00  0.00    +0.000 A 
ATOM     19  C   UNL     1       1.476  12.066  18.413  0.00  0.00    +0.000 A 
ATOM     20 CL   UNL     1       2.660  13.297  18.197  0.00  0.00    +0.000 Cl
ATOM     21  C   UNL     1       1.883  10.743  18.591  0.00  0.00    +0.000 A 
ENDBRANCH   3  14
BRANCH  12  22
ATOM     22  C   UNL     1       4.427   6.076  18.475  0.00  0.00    +0.000 A 
ATOM     23  C   UNL     1       5.022   6.863  17.472  0.00  0.00    +0.000 A 
ATOM     24  C   UNL     1       6.411   6.892  17.311  0.00  0.00    +0.000 A 
ATOM     25  C   UNL     1       7.231   6.149  18.156  0.00  0.00    +0.000 A 
ATOM     26  C   UNL     1       6.667   5.393  19.177  0.00  0.00    +0.000 A 
ATOM     27  C   UNL     1       5.282   5.367  19.341  0.00  0.00    +0.000 A 
ENDBRANCH  12  22
TORSDOF 2
ENDMDL
MODEL 5
REMARK VINA RESULT:      -7.6      3.974      8.064
REMARK  Name = 
REMARK  2 active torsions:
REMARK  status: ('A' for Active; 'I' for Inactive)
REMARK    1  A    between atoms: N_3  and  C_4
REMARK    2  A    between atoms: C_20  and  C_21
REMARK                            x       y       z     vdW  Elec       q    Type
REMARK                         _______ _______ _______ _____ _____    ______ ____
ROOT
ATOM      1  O   UNL     1       0.318   8.247  21.482  0.00  0.00    +0.000 OA
ATOM      2  C   UNL     1       0.600   8.973  20.534  0.00  0.00    +0.000 C 
ATOM      3  N   UNL     1       1.516   8.641  19.552  0.00  0.00    +0.000 N 
ATOM      4  N   UNL     1       0.063  10.247  20.408  0.00  0.00    +0.000 N 
ATOM      5  C   UNL     1      -0.679  10.799  21.553  0.00  0.00    +0.000 C 
ATOM      6  C   UNL     1      -0.275  12.250  21.889  0.00  0.00    +0.000 C 
ATOM      7  C   UNL     1       0.102  13.006  20.652  0.00  0.00    +0.000 A 
ATOM      8  S   UNL     1       0.406  14.678  20.654  0.00  0.00    +0.000 S 
ATOM      9  C   UNL     1       0.763  14.670  18.980  0.00  0.00    +0.000 A 
ATOM     10  C   UNL     1       0.662  13.408  18.433  0.00  0.00    +0.000 A 
ATOM     11  C   UNL     1       0.247  12.438  19.400  0.00  0.00    +0.000 A 
ATOM     12  C   UNL     1      -0.032  10.983  19.138  0.00  0.00    +0.000 C 
ATOM     13  H   UNL     1       1.992   9.422  19.138  0.00  0.00    +0.000 HD
ENDROOT
BRANCH   3  14
ATOM     14  C   UNL     1       2.159   7.396  19.390  0.00  0.00    +0.000 A 
ATOM     15  C   UNL     1       2.977   7.086  18.302  0.00  0.00    +0.000 A 
ATOM     16  C   UNL     1       3.525   5.808  18.181  0.00  0.00    +0.000 A 
ATOM     17 CL   UNL     1       4.495   5.425  16.811  0.00  0.00    +0.000 Cl
ATOM     18  C   UNL     1       3.286   4.838  19.148  0.00  0.00    +0.000 A 
ATOM     19  C   UNL     1       2.504   5.160  20.252  0.00  0.00    +0.000 A 
ATOM     20 CL   UNL     1       2.204   3.974  21.463  0.00  0.00    +0.000 Cl
ATOM     21  C   UNL     1       1.948   6.433  20.383  0.00  0.00    +0.000 A 
ENDBRANCH   3  14
BRANCH  12  22
ATOM     22  C   UNL     1      -1.394  10.880  18.452  0.00  0.00    +0.000 A 
ATOM     23  C   UNL     1      -1.551   9.950  17.408  0.00  0.00    +0.000 A 
ATOM     24  C   UNL     1      -2.749   9.871  16.690  0.00  0.00    +0.000 A 
ATOM     25  C   UNL     1      -3.816  10.706  17.011  0.00  0.00    +0.000 A 
ATOM     26  C   UNL     1      -3.696  11.607  18.062  0.00  0.00    +0.000 A 
ATOM     27  C   UNL     1      -2.503  11.684  18.781  0.00  0.00    +0.000 A 
ENDBRANCH  12  22
TORSDOF 2
ENDMDL
MODEL 6
REMARK VINA RESULT:      -7.6      3.819      7.781
REMARK  Name = 
REMARK  2 active torsions:
REMARK  status: ('A' for Active; 'I' for Inactive)
REMARK    1  A    between atoms: N_3  and  C_4
REMARK    2  A    between atoms: C_20  and  C_21
REMARK                            x       y       z     vdW  Elec       q    Type
REMARK                         _______ _______ _______ _____ _____    ______ ____
ROOT
ATOM      1  O   UNL     1       1.334   7.653  20.620  0.00  0.00    +0.000 OA
ATOM      2  C   UNL     1       1.438   8.516  19.753  0.00  0.00    +0.000 C 
ATOM      3  N   UNL     1       2.174   8.360  18.591  0.00  0.00    +0.000 N 
ATOM      4  N   UNL     1       0.872   9.773  19.907  0.00  0.00    +0.000 N 
ATOM      5  C   UNL     1       0.333  10.131  21.229  0.00  0.00    +0.000 C 
ATOM      6  C   UNL     1       0.771  11.534  21.699  0.00  0.00    +0.000 C 
ATOM      7  C   UNL     1       0.918  12.470  20.539  0.00  0.00    +0.000 A 
ATOM      8  S   UNL     1       1.197  14.136  20.732  0.00  0.00    +0.000 S 
ATOM      9  C   UNL     1       1.258  14.376  19.039  0.00  0.00    +0.000 A 
ATOM     10  C   UNL     1       1.080  13.202  18.340  0.00  0.00    +0.000 A 
ATOM     11  C   UNL     1       0.850  12.090  19.211  0.00  0.00    +0.000 A 
ATOM     12  C   UNL     1       0.548  10.677  18.791  0.00  0.00    +0.000 C 
ATOM     13  H   UNL     1       2.561   9.209  18.221  0.00  0.00    +0.000 HD
ENDROOT
BRANCH   3  14
ATOM     14  C   UNL     1       2.794   7.175  18.144  0.00  0.00    +0.000 A 
ATOM     15  C   UNL     1       4.054   7.144  17.542  0.00  0.00    +0.000 A 
ATOM     16  C   UNL     1       4.571   5.939  17.066  0.00  0.00    +0.000 A 
ATOM     17 CL   UNL     1       6.106   5.922  16.286  0.00  0.00    +0.000 Cl
ATOM     18  C   UNL     1       3.857   4.754  17.203  0.00  0.00    +0.000 A 
ATOM     19  C   UNL     1       2.620   4.780  17.838  0.00  0.00    +0.000 A 
ATOM     20 CL   UNL     1       1.724   3.321  18.024  0.00  0.00    +0.000 Cl
ATOM     21  C   UNL     1       2.090   5.979  18.316  0.00  0.00    +0.000 A 
ENDBRANCH   3  14
BRANCH  12  22
ATOM     22  C   UNL     1      -0.911  10.622  18.339  0.00  0.00    +0.000 A 
ATOM     23  C   UNL     1      -1.258   9.738  17.301  0.00  0.00    +0.000 A 
ATOM     24  C   UNL     1      -2.560   9.705  16.791  0.00  0.00    +0.000 A 
ATOM     25  C   UNL     1      -3.542  10.540  17.318  0.00  0.00    +0.000 A 
ATOM     26  C   UNL     1      -3.230  11.395  18.369  0.00  0.00    +0.000 A 
ATOM     27  C   UNL     1      -1.933  11.426  18.881  0.00  0.00    +0.000 A 
ENDBRANCH  12  22
TORSDOF 2
ENDMDL
MODEL 7
REMARK VINA RESULT:      -7.5      3.968      8.149
REMARK  Name = 
REMARK  2 active torsions:
REMARK  status: ('A' for Active; 'I' for Inactive)
REMARK    1  A    between atoms: N_3  and  C_4
REMARK    2  A    between atoms: C_20  and  C_21
REMARK                            x       y       z     vdW  Elec       q    Type
REMARK                         _______ _______ _______ _____ _____    ______ ____
ROOT
ATOM      1  O   UNL     1       0.201   8.217  21.602  0.00  0.00    +0.000 OA
ATOM      2  C   UNL     1       0.562   8.899  20.648  0.00  0.00    +0.000 C 
ATOM      3  N   UNL     1       1.500   8.490  19.717  0.00  0.00    +0.000 N 
ATOM      4  N   UNL     1       0.100  10.194  20.464  0.00  0.00    +0.000 N 
ATOM      5  C   UNL     1      -0.660  10.819  21.559  0.00  0.00    +0.000 C 
ATOM      6  C   UNL     1      -0.194  12.255  21.874  0.00  0.00    +0.000 C 
ATOM      7  C   UNL     1       0.276  12.953  20.635  0.00  0.00    +0.000 A 
ATOM      8  S   UNL     1       0.669  14.607  20.605  0.00  0.00    +0.000 S 
ATOM      9  C   UNL     1       1.097  14.531  18.950  0.00  0.00    +0.000 A 
ATOM     10  C   UNL     1       0.952  13.261  18.433  0.00  0.00    +0.000 A 
ATOM     11  C   UNL     1       0.444  12.342  19.406  0.00  0.00    +0.000 A 
ATOM     12  C   UNL     1       0.099  10.897  19.171  0.00  0.00    +0.000 C 
ATOM     13  H   UNL     1       2.035   9.233  19.304  0.00  0.00    +0.000 HD
ENDROOT
BRANCH   3  14
ATOM     14  C   UNL     1       2.082   7.209  19.617  0.00  0.00    +0.000 A 
ATOM     15  C   UNL     1       1.853   6.185  20.537  0.00  0.00    +0.000 A 
ATOM     16  C   UNL     1       2.519   4.966  20.406  0.00  0.00    +0.000 A 
ATOM     17 CL   UNL     1       2.262   3.726  21.572  0.00  0.00    +0.000 Cl
ATOM     18  C   UNL     1       3.397   4.745  19.350  0.00  0.00    +0.000 A 
ATOM     19  C   UNL     1       3.593   5.752  18.411  0.00  0.00    +0.000 A 
ATOM     20 CL   UNL     1       4.669   5.494  17.093  0.00  0.00    +0.000 Cl
ATOM     21  C   UNL     1       2.935   6.977  18.533  0.00  0.00    +0.000 A 
ENDBRANCH   3  14
BRANCH  12  22
ATOM     22  C   UNL     1      -1.236  10.846  18.428  0.00  0.00    +0.000 A 
ATOM     23  C   UNL     1      -2.260  11.723  18.829  0.00  0.00    +0.000 A 
ATOM     24  C   UNL     1      -3.528  11.663  18.241  0.00  0.00    +0.000 A 
ATOM     25  C   UNL     1      -3.791  10.739  17.232  0.00  0.00    +0.000 A 
ATOM     26  C   UNL     1      -2.783   9.888  16.795  0.00  0.00    +0.000 A 
ATOM     27  C   UNL     1      -1.517   9.950  17.378  0.00  0.00    +0.000 A 
ENDBRANCH  12  22
TORSDOF 2
ENDMDL
MODEL 8
REMARK VINA RESULT:      -7.1      4.047      8.014
REMARK  Name = 
REMARK  2 active torsions:
REMARK  status: ('A' for Active; 'I' for Inactive)
REMARK    1  A    between atoms: N_3  and  C_4
REMARK    2  A    between atoms: C_20  and  C_21
REMARK                            x       y       z     vdW  Elec       q    Type
REMARK                         _______ _______ _______ _____ _____    ______ ____
ROOT
ATOM      1  O   UNL     1      -0.123   9.514  17.555  0.00  0.00    +0.000 OA
ATOM      2  C   UNL     1       0.261  10.024  18.603  0.00  0.00    +0.000 C 
ATOM      3  N   UNL     1       1.198   9.450  19.444  0.00  0.00    +0.000 N 
ATOM      4  N   UNL     1      -0.281  11.211  19.076  0.00  0.00    +0.000 N 
ATOM      5  C   UNL     1      -1.486  11.733  18.411  0.00  0.00    +0.000 C 
ATOM      6  C   UNL     1      -2.579  12.176  19.406  0.00  0.00    +0.000 C 
ATOM      7  C   UNL     1      -1.975  12.722  20.664  0.00  0.00    +0.000 A 
ATOM      8  S   UNL     1      -2.901  13.473  21.876  0.00  0.00    +0.000 S 
ATOM      9  C   UNL     1      -1.517  13.722  22.852  0.00  0.00    +0.000 A 
ATOM     10  C   UNL     1      -0.371  13.229  22.266  0.00  0.00    +0.000 A 
ATOM     11  C   UNL     1      -0.629  12.671  20.973  0.00  0.00    +0.000 A 
ATOM     12  C   UNL     1       0.395  12.109  20.026  0.00  0.00    +0.000 C 
ATOM     13  H   UNL     1       1.089   9.680  20.415  0.00  0.00    +0.000 HD
ENDROOT
BRANCH   3  14
ATOM     14  C   UNL     1       1.958   8.290  19.187  0.00  0.00    +0.000 A 
ATOM     15  C   UNL     1       2.811   8.154  18.091  0.00  0.00    +0.000 A 
ATOM     16  C   UNL     1       3.479   6.949  17.869  0.00  0.00    +0.000 A 
ATOM     17 CL   UNL     1       4.494   6.780  16.489  0.00  0.00    +0.000 Cl
ATOM     18  C   UNL     1       3.324   5.879  18.744  0.00  0.00    +0.000 A 
ATOM     19  C   UNL     1       2.505   6.029  19.858  0.00  0.00    +0.000 A 
ATOM     20 CL   UNL     1       2.307   4.718  20.956  0.00  0.00    +0.000 Cl
ATOM     21  C   UNL     1       1.830   7.228  20.089  0.00  0.00    +0.000 A 
ENDBRANCH   3  14
BRANCH  12  22
ATOM     22  C   UNL     1       1.125  13.281  19.372  0.00  0.00    +0.000 A 
ATOM     23  C   UNL     1       2.382  13.046  18.785  0.00  0.00    +0.000 A 
ATOM     24  C   UNL     1       3.131  14.097  18.246  0.00  0.00    +0.000 A 
ATOM     25  C   UNL     1       2.633  15.397  18.268  0.00  0.00    +0.000 A 
ATOM     26  C   UNL     1       1.379  15.647  18.809  0.00  0.00    +0.000 A 
ATOM     27  C   UNL     1       0.628  14.600  19.343  0.00  0.00    +0.000 A 
ENDBRANCH  12  22
TORSDOF 2
ENDMDL
MODEL 9
REMARK VINA RESULT:      -7.1      2.402      4.229
REMARK  Name = 
REMARK  2 active torsions:
REMARK  status: ('A' for Active; 'I' for Inactive)
REMARK    1  A    between atoms: N_3  and  C_4
REMARK    2  A    between atoms: C_20  and  C_21
REMARK                            x       y       z     vdW  Elec       q    Type
REMARK                         _______ _______ _______ _____ _____    ______ ____
ROOT
ATOM      1  O   UNL     1       1.695   8.715  17.175  0.00  0.00    +0.000 OA
ATOM      2  C   UNL     1       2.264   8.112  18.080  0.00  0.00    +0.000 C 
ATOM      3  N   UNL     1       2.087   8.390  19.424  0.00  0.00    +0.000 N 
ATOM      4  N   UNL     1       3.208   7.130  17.818  0.00  0.00    +0.000 N 
ATOM      5  C   UNL     1       3.682   6.978  16.432  0.00  0.00    +0.000 C 
ATOM      6  C   UNL     1       5.217   6.865  16.329  0.00  0.00    +0.000 C 
ATOM      7  C   UNL     1       5.788   6.164  17.523  0.00  0.00    +0.000 A 
ATOM      8  S   UNL     1       7.422   5.706  17.625  0.00  0.00    +0.000 S 
ATOM      9  C   UNL     1       7.200   5.066  19.198  0.00  0.00    +0.000 A 
ATOM     10  C   UNL     1       5.902   5.211  19.639  0.00  0.00    +0.000 A 
ATOM     11  C   UNL     1       5.066   5.825  18.653  0.00  0.00    +0.000 A 
ATOM     12  C   UNL     1       3.587   6.072  18.768  0.00  0.00    +0.000 C 
ATOM     13  H   UNL     1       2.885   8.197  20.002  0.00  0.00    +0.000 HD
ENDROOT
BRANCH   3  14
ATOM     14  C   UNL     1       1.148   9.283  19.980  0.00  0.00    +0.000 A 
ATOM     15  C   UNL     1       0.583  10.347  19.274  0.00  0.00    +0.000 A 
ATOM     16  C   UNL     1      -0.289  11.227  19.916  0.00  0.00    +0.000 A 
ATOM     17 CL   UNL     1      -0.944  12.560  19.046  0.00  0.00    +0.000 Cl
ATOM     18  C   UNL     1      -0.626  11.046  21.253  0.00  0.00    +0.000 A 
ATOM     19  C   UNL     1      -0.094   9.962  21.944  0.00  0.00    +0.000 A 
ATOM     20 CL   UNL     1      -0.506   9.718  23.598  0.00  0.00    +0.000 Cl
ATOM     21  C   UNL     1       0.782   9.077  21.315  0.00  0.00    +0.000 A 
ENDBRANCH   3  14
BRANCH  12  22
ATOM     22  C   UNL     1       2.868   4.741  18.547  0.00  0.00    +0.000 A 
ATOM     23  C   UNL     1       1.744   4.446  19.339  0.00  0.00    +0.000 A 
ATOM     24  C   UNL     1       1.098   3.210  19.238  0.00  0.00    +0.000 A 
ATOM     25  C   UNL     1       1.551   2.253  18.333  0.00  0.00    +0.000 A 
ATOM     26  C   UNL     1       2.637   2.537  17.514  0.00  0.00    +0.000 A 
ATOM     27  C   UNL     1       3.280   3.771  17.611  0.00  0.00    +0.000 A 
ENDBRANCH  12  22
TORSDOF 2
ENDMDL
