MODEL 1
REMARK VINA RESULT:      -7.9      0.000      0.000
REMARK  Name = 
REMARK  8 active torsions:
REMARK  status: ('A' for Active; 'I' for Inactive)
REMARK    1  A    between atoms: C_1  and  C_2
REMARK    2  A    between atoms: C_7  and  O_8
REMARK    3  A    between atoms: O_8  and  C_9
REMARK    4  A    between atoms: C_9  and  C_10
REMARK    5  A    between atoms: C_10  and  S_11
REMARK    6  A    between atoms: S_11  and  C_12
REMARK    7  A    between atoms: C_15  and  C_16
REMARK    8  A    between atoms: C_19  and  N_20
REMARK                            x       y       z     vdW  Elec       q    Type
REMARK                         _______ _______ _______ _____ _____    ______ ____
ROOT
ATOM      1  C   UNL     1       7.782   6.992  18.188  0.00  0.00    +0.000 A 
ATOM      2  N   UNL     1       7.216   7.589  17.160  0.00  0.00    +0.000 NA
ATOM      3  N   UNL     1       7.604   8.910  17.204  0.00  0.00    +0.000 NA
ATOM      4  C   UNL     1       8.384   9.037  18.258  0.00  0.00    +0.000 A 
ATOM      5  O   UNL     1       8.548   7.854  18.934  0.00  0.00    +0.000 OA
ENDROOT
BRANCH   4   6
ATOM      6  C   UNL     1       9.075  10.221  18.759  0.00  0.00    +0.000 A 
ATOM      7  C   UNL     1       9.483  11.213  17.849  0.00  0.00    +0.000 A 
ATOM      8  C   UNL     1      10.169  12.355  18.278  0.00  0.00    +0.000 A 
ATOM      9  C   UNL     1      10.458  12.512  19.638  0.00  0.00    +0.000 A 
ATOM     10  C   UNL     1      10.054  11.542  20.563  0.00  0.00    +0.000 A 
ATOM     11  C   UNL     1       9.364  10.404  20.121  0.00  0.00    +0.000 A 
BRANCH   9  12
ATOM     12  N   UNL     1      11.198  13.697  20.093  0.00  0.00    +0.000 N 
ATOM     13  O   UNL     1      10.640  14.446  20.908  0.00  0.00    +0.000 OA
ATOM     14  O   UNL     1      12.333  13.879  19.632  0.00  0.00    +0.000 OA
ENDBRANCH   9  12
ENDBRANCH   4   6
BRANCH   1  15
ATOM     15  S   UNL     1       7.640   5.293  18.537  0.00  0.00    +0.000 S 
BRANCH  15  16
ATOM     16  C   UNL     1       5.859   5.172  18.947  0.00  0.00    +0.000 C 
BRANCH  16  17
ATOM     17  C   UNL     1       5.074   4.615  17.761  0.00  0.00    +0.000 C 
BRANCH  17  18
ATOM     18  O   UNL     1       3.698   4.964  17.829  0.00  0.00    +0.000 OA
BRANCH  18  25
ATOM     19  C   UNL     1       3.267   1.805  18.057  0.00  0.00    +0.000 C 
ATOM     20  C   UNL     1       2.674   2.912  18.884  0.00  0.00    +0.000 A 
ATOM     21  C   UNL     1       1.798   2.488  19.910  0.00  0.00    +0.000 A 
ATOM     22  C   UNL     1       1.163   3.392  20.758  0.00  0.00    +0.000 A 
ATOM     23  C   UNL     1       1.382   4.750  20.596  0.00  0.00    +0.000 A 
ATOM     24  C   UNL     1       2.243   5.192  19.589  0.00  0.00    +0.000 A 
ATOM     25  C   UNL     1       2.900   4.295  18.728  0.00  0.00    +0.000 A 
ENDBRANCH  18  25
ENDBRANCH  17  18
ENDBRANCH  16  17
ENDBRANCH  15  16
ENDBRANCH   1  15
TORSDOF 7
ENDMDL
MODEL 2
REMARK VINA RESULT:      -7.8      1.096      1.280
REMARK  Name = 
REMARK  8 active torsions:
REMARK  status: ('A' for Active; 'I' for Inactive)
REMARK    1  A    between atoms: C_1  and  C_2
REMARK    2  A    between atoms: C_7  and  O_8
REMARK    3  A    between atoms: O_8  and  C_9
REMARK    4  A    between atoms: C_9  and  C_10
REMARK    5  A    between atoms: C_10  and  S_11
REMARK    6  A    between atoms: S_11  and  C_12
REMARK    7  A    between atoms: C_15  and  C_16
REMARK    8  A    between atoms: C_19  and  N_20
REMARK                            x       y       z     vdW  Elec       q    Type
REMARK                         _______ _______ _______ _____ _____    ______ ____
ROOT
ATOM      1  C   UNL     1       7.856   6.987  18.245  0.00  0.00    +0.000 A 
ATOM      2  N   UNL     1       7.172   7.448  17.220  0.00  0.00    +0.000 NA
ATOM      3  N   UNL     1       7.439   8.796  17.137  0.00  0.00    +0.000 NA
ATOM      4  C   UNL     1       8.272   9.074  18.120  0.00  0.00    +0.000 A 
ATOM      5  O   UNL     1       8.587   7.969  18.869  0.00  0.00    +0.000 OA
ENDROOT
BRANCH   4   6
ATOM      6  C   UNL     1       8.883  10.350  18.480  0.00  0.00    +0.000 A 
ATOM      7  C   UNL     1       8.605  11.488  17.700  0.00  0.00    +0.000 A 
ATOM      8  C   UNL     1       9.185  12.728  17.992  0.00  0.00    +0.000 A 
ATOM      9  C   UNL     1      10.061  12.839  19.077  0.00  0.00    +0.000 A 
ATOM     10  C   UNL     1      10.346  11.721  19.873  0.00  0.00    +0.000 A 
ATOM     11  C   UNL     1       9.756  10.486  19.572  0.00  0.00    +0.000 A 
BRANCH   9  12
ATOM     12  N   UNL     1      10.692  14.131  19.376  0.00  0.00    +0.000 N 
ATOM     13  O   UNL     1      11.723  14.123  20.064  0.00  0.00    +0.000 OA
ATOM     14  O   UNL     1      10.153  15.153  18.927  0.00  0.00    +0.000 OA
ENDBRANCH   9  12
ENDBRANCH   4   6
BRANCH   1  15
ATOM     15  S   UNL     1       7.893   5.316  18.730  0.00  0.00    +0.000 S 
BRANCH  15  16
ATOM     16  C   UNL     1       6.260   4.745  18.126  0.00  0.00    +0.000 C 
BRANCH  16  17
ATOM     17  C   UNL     1       5.224   4.808  19.247  0.00  0.00    +0.000 C 
BRANCH  17  18
ATOM     18  O   UNL     1       4.710   3.521  19.561  0.00  0.00    +0.000 OA
BRANCH  18  25
ATOM     19  C   UNL     1       2.776   3.326  17.023  0.00  0.00    +0.000 C 
ATOM     20  C   UNL     1       2.442   3.246  18.487  0.00  0.00    +0.000 A 
ATOM     21  C   UNL     1       1.071   3.058  18.777  0.00  0.00    +0.000 A 
ATOM     22  C   UNL     1       0.599   2.972  20.085  0.00  0.00    +0.000 A 
ATOM     23  C   UNL     1       1.489   3.079  21.141  0.00  0.00    +0.000 A 
ATOM     24  C   UNL     1       2.848   3.266  20.878  0.00  0.00    +0.000 A 
ATOM     25  C   UNL     1       3.345   3.348  19.565  0.00  0.00    +0.000 A 
ENDBRANCH  18  25
ENDBRANCH  17  18
ENDBRANCH  16  17
ENDBRANCH  15  16
ENDBRANCH   1  15
TORSDOF 7
ENDMDL
MODEL 3
REMARK VINA RESULT:      -7.7      0.829      1.408
REMARK  Name = 
REMARK  8 active torsions:
REMARK  status: ('A' for Active; 'I' for Inactive)
REMARK    1  A    between atoms: C_1  and  C_2
REMARK    2  A    between atoms: C_7  and  O_8
REMARK    3  A    between atoms: O_8  and  C_9
REMARK    4  A    between atoms: C_9  and  C_10
REMARK    5  A    between atoms: C_10  and  S_11
REMARK    6  A    between atoms: S_11  and  C_12
REMARK    7  A    between atoms: C_15  and  C_16
REMARK    8  A    between atoms: C_19  and  N_20
REMARK                            x       y       z     vdW  Elec       q    Type
REMARK                         _______ _______ _______ _____ _____    ______ ____
ROOT
ATOM      1  C   UNL     1       7.803   7.125  18.213  0.00  0.00    +0.000 A 
ATOM      2  N   UNL     1       7.230   7.678  17.164  0.00  0.00    +0.000 NA
ATOM      3  N   UNL     1       7.611   9.001  17.155  0.00  0.00    +0.000 NA
ATOM      4  C   UNL     1       8.393   9.174  18.201  0.00  0.00    +0.000 A 
ATOM      5  O   UNL     1       8.565   8.020  18.923  0.00  0.00    +0.000 OA
ENDROOT
BRANCH   4   6
ATOM      6  C   UNL     1       9.079  10.380  18.654  0.00  0.00    +0.000 A 
ATOM      7  C   UNL     1       9.675  10.392  19.928  0.00  0.00    +0.000 A 
ATOM      8  C   UNL     1      10.324  11.533  20.415  0.00  0.00    +0.000 A 
ATOM      9  C   UNL     1      10.380  12.684  19.622  0.00  0.00    +0.000 A 
ATOM     10  C   UNL     1       9.801  12.692  18.346  0.00  0.00    +0.000 A 
ATOM     11  C   UNL     1       9.156  11.542  17.869  0.00  0.00    +0.000 A 
BRANCH   9  12
ATOM     12  N   UNL     1      11.040  13.892  20.136  0.00  0.00    +0.000 N 
ATOM     13  O   UNL     1      12.164  14.168  19.691  0.00  0.00    +0.000 OA
ATOM     14  O   UNL     1      10.436  14.560  20.986  0.00  0.00    +0.000 OA
ENDBRANCH   9  12
ENDBRANCH   4   6
BRANCH   1  15
ATOM     15  S   UNL     1       7.671   5.440  18.629  0.00  0.00    +0.000 S 
BRANCH  15  16
ATOM     16  C   UNL     1       6.181   4.964  17.674  0.00  0.00    +0.000 C 
BRANCH  16  17
ATOM     17  C   UNL     1       4.916   5.242  18.485  0.00  0.00    +0.000 C 
BRANCH  17  18
ATOM     18  O   UNL     1       3.897   4.291  18.210  0.00  0.00    +0.000 OA
BRANCH  18  25
ATOM     19  C   UNL     1       4.662   1.954  20.253  0.00  0.00    +0.000 C 
ATOM     20  C   UNL     1       3.424   2.807  20.196  0.00  0.00    +0.000 A 
ATOM     21  C   UNL     1       2.462   2.528  21.194  0.00  0.00    +0.000 A 
ATOM     22  C   UNL     1       1.258   3.226  21.273  0.00  0.00    +0.000 A 
ATOM     23  C   UNL     1       0.982   4.218  20.347  0.00  0.00    +0.000 A 
ATOM     24  C   UNL     1       1.918   4.509  19.352  0.00  0.00    +0.000 A 
ATOM     25  C   UNL     1       3.141   3.822  19.260  0.00  0.00    +0.000 A 
ENDBRANCH  18  25
ENDBRANCH  17  18
ENDBRANCH  16  17
ENDBRANCH  15  16
ENDBRANCH   1  15
TORSDOF 7
ENDMDL
MODEL 4
REMARK VINA RESULT:      -7.7      6.105      8.877
REMARK  Name = 
REMARK  8 active torsions:
REMARK  status: ('A' for Active; 'I' for Inactive)
REMARK    1  A    between atoms: C_1  and  C_2
REMARK    2  A    between atoms: C_7  and  O_8
REMARK    3  A    between atoms: O_8  and  C_9
REMARK    4  A    between atoms: C_9  and  C_10
REMARK    5  A    between atoms: C_10  and  S_11
REMARK    6  A    between atoms: S_11  and  C_12
REMARK    7  A    between atoms: C_15  and  C_16
REMARK    8  A    between atoms: C_19  and  N_20
REMARK                            x       y       z     vdW  Elec       q    Type
REMARK                         _______ _______ _______ _____ _____    ______ ____
ROOT
ATOM      1  C   UNL     1       1.730   7.247  20.307  0.00  0.00    +0.000 A 
ATOM      2  N   UNL     1       1.630   6.008  20.741  0.00  0.00    +0.000 NA
ATOM      3  N   UNL     1       2.397   5.230  19.902  0.00  0.00    +0.000 NA
ATOM      4  C   UNL     1       2.918   6.045  19.008  0.00  0.00    +0.000 A 
ATOM      5  O   UNL     1       2.541   7.349  19.203  0.00  0.00    +0.000 OA
ENDROOT
BRANCH   4   6
ATOM      6  C   UNL     1       3.818   5.745  17.898  0.00  0.00    +0.000 A 
ATOM      7  C   UNL     1       4.161   4.405  17.636  0.00  0.00    +0.000 A 
ATOM      8  C   UNL     1       5.038   4.070  16.598  0.00  0.00    +0.000 A 
ATOM      9  C   UNL     1       5.587   5.085  15.807  0.00  0.00    +0.000 A 
ATOM     10  C   UNL     1       5.253   6.425  16.044  0.00  0.00    +0.000 A 
ATOM     11  C   UNL     1       4.371   6.747  17.084  0.00  0.00    +0.000 A 
BRANCH   9  12
ATOM     12  N   UNL     1       6.526   4.742  14.730  0.00  0.00    +0.000 N 
ATOM     13  O   UNL     1       6.216   3.812  13.970  0.00  0.00    +0.000 OA
ATOM     14  O   UNL     1       7.573   5.399  14.649  0.00  0.00    +0.000 OA
ENDBRANCH   9  12
ENDBRANCH   4   6
BRANCH   1  15
ATOM     15  S   UNL     1       0.981   8.619  21.073  0.00  0.00    +0.000 S 
BRANCH  15  16
ATOM     16  C   UNL     1       1.111   9.871  19.741  0.00  0.00    +0.000 C 
BRANCH  16  17
ATOM     17  C   UNL     1      -0.039   9.715  18.748  0.00  0.00    +0.000 C 
BRANCH  17  18
ATOM     18  O   UNL     1      -1.147  10.535  19.093  0.00  0.00    +0.000 OA
BRANCH  18  25
ATOM     19  C   UNL     1      -3.824  12.251  19.424  0.00  0.00    +0.000 C 
ATOM     20  C   UNL     1      -3.337  11.458  18.242  0.00  0.00    +0.000 A 
ATOM     21  C   UNL     1      -4.193  11.478  17.117  0.00  0.00    +0.000 A 
ATOM     22  C   UNL     1      -3.888  10.787  15.946  0.00  0.00    +0.000 A 
ATOM     23  C   UNL     1      -2.718  10.049  15.874  0.00  0.00    +0.000 A 
ATOM     24  C   UNL     1      -1.858  10.015  16.974  0.00  0.00    +0.000 A 
ATOM     25  C   UNL     1      -2.144  10.712  18.161  0.00  0.00    +0.000 A 
ENDBRANCH  18  25
ENDBRANCH  17  18
ENDBRANCH  16  17
ENDBRANCH  15  16
ENDBRANCH   1  15
TORSDOF 7
ENDMDL
MODEL 5
REMARK VINA RESULT:      -7.6      6.020      7.735
REMARK  Name = 
REMARK  8 active torsions:
REMARK  status: ('A' for Active; 'I' for Inactive)
REMARK    1  A    between atoms: C_1  and  C_2
REMARK    2  A    between atoms: C_7  and  O_8
REMARK    3  A    between atoms: O_8  and  C_9
REMARK    4  A    between atoms: C_9  and  C_10
REMARK    5  A    between atoms: C_10  and  S_11
REMARK    6  A    between atoms: S_11  and  C_12
REMARK    7  A    between atoms: C_15  and  C_16
REMARK    8  A    between atoms: C_19  and  N_20
REMARK                            x       y       z     vdW  Elec       q    Type
REMARK                         _______ _______ _______ _____ _____    ______ ____
ROOT
ATOM      1  C   UNL     1       3.102   3.368  18.938  0.00  0.00    +0.000 A 
ATOM      2  N   UNL     1       4.149   3.166  19.710  0.00  0.00    +0.000 NA
ATOM      3  N   UNL     1       5.264   3.396  18.936  0.00  0.00    +0.000 NA
ATOM      4  C   UNL     1       4.827   3.723  17.737  0.00  0.00    +0.000 A 
ATOM      5  O   UNL     1       3.457   3.731  17.662  0.00  0.00    +0.000 OA
ENDROOT
BRANCH   4   6
ATOM      6  C   UNL     1       5.586   4.080  16.542  0.00  0.00    +0.000 A 
ATOM      7  C   UNL     1       6.796   4.784  16.683  0.00  0.00    +0.000 A 
ATOM      8  C   UNL     1       7.547   5.168  15.566  0.00  0.00    +0.000 A 
ATOM      9  C   UNL     1       7.086   4.848  14.285  0.00  0.00    +0.000 A 
ATOM     10  C   UNL     1       5.888   4.140  14.120  0.00  0.00    +0.000 A 
ATOM     11  C   UNL     1       5.147   3.758  15.247  0.00  0.00    +0.000 A 
BRANCH   9  12
ATOM     12  N   UNL     1       7.857   5.268  13.107  0.00  0.00    +0.000 N 
ATOM     13  O   UNL     1       8.799   6.055  13.285  0.00  0.00    +0.000 OA
ATOM     14  O   UNL     1       7.518   4.815  12.005  0.00  0.00    +0.000 OA
ENDBRANCH   9  12
ENDBRANCH   4   6
BRANCH   1  15
ATOM     15  S   UNL     1       1.450   3.255  19.475  0.00  0.00    +0.000 S 
BRANCH  15  16
ATOM     16  C   UNL     1       1.388   4.624  20.692  0.00  0.00    +0.000 C 
BRANCH  16  17
ATOM     17  C   UNL     1       2.078   5.867  20.133  0.00  0.00    +0.000 C 
BRANCH  17  18
ATOM     18  O   UNL     1       1.716   7.037  20.853  0.00  0.00    +0.000 OA
BRANCH  18  25
ATOM     19  C   UNL     1      -0.133   9.473  21.785  0.00  0.00    +0.000 C 
ATOM     20  C   UNL     1       0.618   9.282  20.496  0.00  0.00    +0.000 A 
ATOM     21  C   UNL     1       0.481  10.336  19.564  0.00  0.00    +0.000 A 
ATOM     22  C   UNL     1       1.107  10.307  18.320  0.00  0.00    +0.000 A 
ATOM     23  C   UNL     1       1.884   9.214  17.972  0.00  0.00    +0.000 A 
ATOM     24  C   UNL     1       2.032   8.161  18.876  0.00  0.00    +0.000 A 
ATOM     25  C   UNL     1       1.415   8.175  20.140  0.00  0.00    +0.000 A 
ENDBRANCH  18  25
ENDBRANCH  17  18
ENDBRANCH  16  17
ENDBRANCH  15  16
ENDBRANCH   1  15
TORSDOF 7
ENDMDL
MODEL 6
REMARK VINA RESULT:      -7.5      0.857      1.606
REMARK  Name = 
REMARK  8 active torsions:
REMARK  status: ('A' for Active; 'I' for Inactive)
REMARK    1  A    between atoms: C_1  and  C_2
REMARK    2  A    between atoms: C_7  and  O_8
REMARK    3  A    between atoms: O_8  and  C_9
REMARK    4  A    between atoms: C_9  and  C_10
REMARK    5  A    between atoms: C_10  and  S_11
REMARK    6  A    between atoms: S_11  and  C_12
REMARK    7  A    between atoms: C_15  and  C_16
REMARK    8  A    between atoms: C_19  and  N_20
REMARK                            x       y       z     vdW  Elec       q    Type
REMARK                         _______ _______ _______ _____ _____    ______ ____
ROOT
ATOM      1  C   UNL     1       7.894   7.209  18.183  0.00  0.00    +0.000 A 
ATOM      2  N   UNL     1       7.455   7.759  17.071  0.00  0.00    +0.000 NA
ATOM      3  N   UNL     1       7.843   9.080  17.102  0.00  0.00    +0.000 NA
ATOM      4  C   UNL     1       8.494   9.254  18.234  0.00  0.00    +0.000 A 
ATOM      5  O   UNL     1       8.571   8.102  18.976  0.00  0.00    +0.000 OA
ENDROOT
BRANCH   4   6
ATOM      6  C   UNL     1       9.128  10.459  18.760  0.00  0.00    +0.000 A 
ATOM      7  C   UNL     1       9.380  11.536  17.891  0.00  0.00    +0.000 A 
ATOM      8  C   UNL     1      10.007  12.703  18.344  0.00  0.00    +0.000 A 
ATOM      9  C   UNL     1      10.392  12.800  19.685  0.00  0.00    +0.000 A 
ATOM     10  C   UNL     1      10.143  11.744  20.571  0.00  0.00    +0.000 A 
ATOM     11  C   UNL     1       9.512  10.582  20.105  0.00  0.00    +0.000 A 
BRANCH   9  12
ATOM     12  N   UNL     1      11.071  14.013  20.162  0.00  0.00    +0.000 N 
ATOM     13  O   UNL     1      10.758  14.445  21.282  0.00  0.00    +0.000 OA
ATOM     14  O   UNL     1      11.911  14.534  19.416  0.00  0.00    +0.000 OA
ENDBRANCH   9  12
ENDBRANCH   4   6
BRANCH   1  15
ATOM     15  S   UNL     1       7.703   5.527  18.587  0.00  0.00    +0.000 S 
BRANCH  15  16
ATOM     16  C   UNL     1       5.998   5.525  19.260  0.00  0.00    +0.000 C 
BRANCH  16  17
ATOM     17  C   UNL     1       5.154   4.453  18.573  0.00  0.00    +0.000 C 
BRANCH  17  18
ATOM     18  O   UNL     1       4.588   3.548  19.510  0.00  0.00    +0.000 OA
BRANCH  18  25
ATOM     19  C   UNL     1       2.233   5.362  20.685  0.00  0.00    +0.000 C 
ATOM     20  C   UNL     1       2.153   4.062  19.934  0.00  0.00    +0.000 A 
ATOM     21  C   UNL     1       0.843   3.575  19.721  0.00  0.00    +0.000 A 
ATOM     22  C   UNL     1       0.601   2.379  19.048  0.00  0.00    +0.000 A 
ATOM     23  C   UNL     1       1.668   1.633  18.576  0.00  0.00    +0.000 A 
ATOM     24  C   UNL     1       2.971   2.094  18.776  0.00  0.00    +0.000 A 
ATOM     25  C   UNL     1       3.236   3.302  19.446  0.00  0.00    +0.000 A 
ENDBRANCH  18  25
ENDBRANCH  17  18
ENDBRANCH  16  17
ENDBRANCH  15  16
ENDBRANCH   1  15
TORSDOF 7
ENDMDL
MODEL 7
REMARK VINA RESULT:      -7.5      1.441      2.292
REMARK  Name = 
REMARK  8 active torsions:
REMARK  status: ('A' for Active; 'I' for Inactive)
REMARK    1  A    between atoms: C_1  and  C_2
REMARK    2  A    between atoms: C_7  and  O_8
REMARK    3  A    between atoms: O_8  and  C_9
REMARK    4  A    between atoms: C_9  and  C_10
REMARK    5  A    between atoms: C_10  and  S_11
REMARK    6  A    between atoms: S_11  and  C_12
REMARK    7  A    between atoms: C_15  and  C_16
REMARK    8  A    between atoms: C_19  and  N_20
REMARK                            x       y       z     vdW  Elec       q    Type
REMARK                         _______ _______ _______ _____ _____    ______ ____
ROOT
ATOM      1  C   UNL     1       7.311   6.659  17.148  0.00  0.00    +0.000 A 
ATOM      2  N   UNL     1       7.781   6.198  18.287  0.00  0.00    +0.000 NA
ATOM      3  N   UNL     1       8.357   7.264  18.941  0.00  0.00    +0.000 NA
ATOM      4  C   UNL     1       8.204   8.311  18.157  0.00  0.00    +0.000 A 
ATOM      5  O   UNL     1       7.541   8.004  16.995  0.00  0.00    +0.000 OA
ENDROOT
BRANCH   4   6
ATOM      6  C   UNL     1       8.616   9.695  18.372  0.00  0.00    +0.000 A 
ATOM      7  C   UNL     1       9.421  10.006  19.483  0.00  0.00    +0.000 A 
ATOM      8  C   UNL     1       9.824  11.321  19.744  0.00  0.00    +0.000 A 
ATOM      9  C   UNL     1       9.416  12.347  18.885  0.00  0.00    +0.000 A 
ATOM     10  C   UNL     1       8.621  12.060  17.767  0.00  0.00    +0.000 A 
ATOM     11  C   UNL     1       8.228  10.739  17.516  0.00  0.00    +0.000 A 
BRANCH   9  12
ATOM     12  N   UNL     1       9.815  13.733  19.165  0.00  0.00    +0.000 N 
ATOM     13  O   UNL     1      11.028  13.989  19.193  0.00  0.00    +0.000 OA
ATOM     14  O   UNL     1       8.916  14.563  19.361  0.00  0.00    +0.000 OA
ENDBRANCH   9  12
ENDBRANCH   4   6
BRANCH   1  15
ATOM     15  S   UNL     1       6.439   5.701  15.986  0.00  0.00    +0.000 S 
BRANCH  15  16
ATOM     16  C   UNL     1       4.726   5.869  16.615  0.00  0.00    +0.000 C 
BRANCH  16  17
ATOM     17  C   UNL     1       4.199   4.519  17.097  0.00  0.00    +0.000 C 
BRANCH  17  18
ATOM     18  O   UNL     1       4.357   4.363  18.500  0.00  0.00    +0.000 OA
BRANCH  18  25
ATOM     19  C   UNL     1       2.429   6.576  19.768  0.00  0.00    +0.000 C 
ATOM     20  C   UNL     1       2.342   5.077  19.842  0.00  0.00    +0.000 A 
ATOM     21  C   UNL     1       1.245   4.579  20.583  0.00  0.00    +0.000 A 
ATOM     22  C   UNL     1       1.027   3.213  20.751  0.00  0.00    +0.000 A 
ATOM     23  C   UNL     1       1.910   2.307  20.187  0.00  0.00    +0.000 A 
ATOM     24  C   UNL     1       3.001   2.776  19.452  0.00  0.00    +0.000 A 
ATOM     25  C   UNL     1       3.233   4.150  19.264  0.00  0.00    +0.000 A 
ENDBRANCH  18  25
ENDBRANCH  17  18
ENDBRANCH  16  17
ENDBRANCH  15  16
ENDBRANCH   1  15
TORSDOF 7
ENDMDL
MODEL 8
REMARK VINA RESULT:      -7.5      1.482      1.705
REMARK  Name = 
REMARK  8 active torsions:
REMARK  status: ('A' for Active; 'I' for Inactive)
REMARK    1  A    between atoms: C_1  and  C_2
REMARK    2  A    between atoms: C_7  and  O_8
REMARK    3  A    between atoms: O_8  and  C_9
REMARK    4  A    between atoms: C_9  and  C_10
REMARK    5  A    between atoms: C_10  and  S_11
REMARK    6  A    between atoms: S_11  and  C_12
REMARK    7  A    between atoms: C_15  and  C_16
REMARK    8  A    between atoms: C_19  and  N_20
REMARK                            x       y       z     vdW  Elec       q    Type
REMARK                         _______ _______ _______ _____ _____    ______ ____
ROOT
ATOM      1  C   UNL     1       6.870   6.947  17.206  0.00  0.00    +0.000 A 
ATOM      2  N   UNL     1       7.591   6.322  18.112  0.00  0.00    +0.000 NA
ATOM      3  N   UNL     1       8.378   7.275  18.720  0.00  0.00    +0.000 NA
ATOM      4  C   UNL     1       8.087   8.424  18.144  0.00  0.00    +0.000 A 
ATOM      5  O   UNL     1       7.130   8.295  17.170  0.00  0.00    +0.000 OA
ENDROOT
BRANCH   4   6
ATOM      6  C   UNL     1       8.621   9.756  18.416  0.00  0.00    +0.000 A 
ATOM      7  C   UNL     1       8.274  10.820  17.563  0.00  0.00    +0.000 A 
ATOM      8  C   UNL     1       8.779  12.109  17.769  0.00  0.00    +0.000 A 
ATOM      9  C   UNL     1       9.646  12.345  18.841  0.00  0.00    +0.000 A 
ATOM     10  C   UNL     1       9.998  11.302  19.708  0.00  0.00    +0.000 A 
ATOM     11  C   UNL     1       9.483  10.016  19.493  0.00  0.00    +0.000 A 
BRANCH   9  12
ATOM     12  N   UNL     1      10.197  13.690  19.050  0.00  0.00    +0.000 N 
ATOM     13  O   UNL     1       9.841  14.586  18.270  0.00  0.00    +0.000 OA
ATOM     14  O   UNL     1      10.990  13.849  19.989  0.00  0.00    +0.000 OA
ENDBRANCH   9  12
ENDBRANCH   4   6
BRANCH   1  15
ATOM     15  S   UNL     1       5.672   6.178  16.204  0.00  0.00    +0.000 S 
BRANCH  15  16
ATOM     16  C   UNL     1       5.881   4.426  16.699  0.00  0.00    +0.000 C 
BRANCH  16  17
ATOM     17  C   UNL     1       4.522   3.782  16.971  0.00  0.00    +0.000 C 
BRANCH  17  18
ATOM     18  O   UNL     1       4.381   3.408  18.334  0.00  0.00    +0.000 OA
BRANCH  18  25
ATOM     19  C   UNL     1       1.670   1.928  19.157  0.00  0.00    +0.000 C 
ATOM     20  C   UNL     1       2.118   3.334  19.449  0.00  0.00    +0.000 A 
ATOM     21  C   UNL     1       1.201   4.109  20.196  0.00  0.00    +0.000 A 
ATOM     22  C   UNL     1       1.465   5.433  20.542  0.00  0.00    +0.000 A 
ATOM     23  C   UNL     1       2.654   6.019  20.141  0.00  0.00    +0.000 A 
ATOM     24  C   UNL     1       3.574   5.272  19.402  0.00  0.00    +0.000 A 
ATOM     25  C   UNL     1       3.330   3.933  19.049  0.00  0.00    +0.000 A 
ENDBRANCH  18  25
ENDBRANCH  17  18
ENDBRANCH  16  17
ENDBRANCH  15  16
ENDBRANCH   1  15
TORSDOF 7
ENDMDL
MODEL 9
REMARK VINA RESULT:      -7.5      0.963      1.488
REMARK  Name = 
REMARK  8 active torsions:
REMARK  status: ('A' for Active; 'I' for Inactive)
REMARK    1  A    between atoms: C_1  and  C_2
REMARK    2  A    between atoms: C_7  and  O_8
REMARK    3  A    between atoms: O_8  and  C_9
REMARK    4  A    between atoms: C_9  and  C_10
REMARK    5  A    between atoms: C_10  and  S_11
REMARK    6  A    between atoms: S_11  and  C_12
REMARK    7  A    between atoms: C_15  and  C_16
REMARK    8  A    between atoms: C_19  and  N_20
REMARK                            x       y       z     vdW  Elec       q    Type
REMARK                         _______ _______ _______ _____ _____    ______ ____
ROOT
ATOM      1  C   UNL     1       7.699   6.886  18.051  0.00  0.00    +0.000 A 
ATOM      2  N   UNL     1       7.062   7.522  17.089  0.00  0.00    +0.000 NA
ATOM      3  N   UNL     1       7.455   8.840  17.156  0.00  0.00    +0.000 NA
ATOM      4  C   UNL     1       8.307   8.927  18.157  0.00  0.00    +0.000 A 
ATOM      5  O   UNL     1       8.516   7.720  18.774  0.00  0.00    +0.000 OA
ENDROOT
BRANCH   4   6
ATOM      6  C   UNL     1       9.034  10.092  18.653  0.00  0.00    +0.000 A 
ATOM      7  C   UNL     1       9.145  10.290  20.041  0.00  0.00    +0.000 A 
ATOM      8  C   UNL     1       9.813  11.403  20.565  0.00  0.00    +0.000 A 
ATOM      9  C   UNL     1      10.378  12.339  19.692  0.00  0.00    +0.000 A 
ATOM     10  C   UNL     1      10.287  12.158  18.306  0.00  0.00    +0.000 A 
ATOM     11  C   UNL     1       9.619  11.037  17.794  0.00  0.00    +0.000 A 
BRANCH   9  12
ATOM     12  N   UNL     1      11.060  13.522  20.234  0.00  0.00    +0.000 N 
ATOM     13  O   UNL     1      10.548  14.084  21.213  0.00  0.00    +0.000 OA
ATOM     14  O   UNL     1      12.104  13.891  19.677  0.00  0.00    +0.000 OA
ENDBRANCH   9  12
ENDBRANCH   4   6
BRANCH   1  15
ATOM     15  S   UNL     1       7.579   5.175  18.344  0.00  0.00    +0.000 S 
BRANCH  15  16
ATOM     16  C   UNL     1       5.814   4.880  17.949  0.00  0.00    +0.000 C 
BRANCH  16  17
ATOM     17  C   UNL     1       4.924   5.849  18.725  0.00  0.00    +0.000 C 
BRANCH  17  18
ATOM     18  O   UNL     1       4.190   5.186  19.745  0.00  0.00    +0.000 OA
BRANCH  18  25
ATOM     19  C   UNL     1       4.532   2.061  20.325  0.00  0.00    +0.000 C 
ATOM     20  C   UNL     1       3.423   2.785  19.611  0.00  0.00    +0.000 A 
ATOM     21  C   UNL     1       2.384   1.957  19.127  0.00  0.00    +0.000 A 
ATOM     22  C   UNL     1       1.290   2.474  18.438  0.00  0.00    +0.000 A 
ATOM     23  C   UNL     1       1.211   3.838  18.207  0.00  0.00    +0.000 A 
ATOM     24  C   UNL     1       2.226   4.674  18.675  0.00  0.00    +0.000 A 
ATOM     25  C   UNL     1       3.334   4.173  19.380  0.00  0.00    +0.000 A 
ENDBRANCH  18  25
ENDBRANCH  17  18
ENDBRANCH  16  17
ENDBRANCH  15  16
ENDBRANCH   1  15
TORSDOF 7
ENDMDL
