MODEL 1
REMARK VINA RESULT:      -8.8      0.000      0.000
REMARK  Name = 
REMARK  4 active torsions:
REMARK  status: ('A' for Active; 'I' for Inactive)
REMARK    1  A    between atoms: C_2  and  C_20
REMARK    2  A    between atoms: N_3  and  C_4
REMARK    3  A    between atoms: C_4  and  C_13
REMARK    4  A    between atoms: C_5  and  C_6
REMARK                            x       y       z     vdW  Elec       q    Type
REMARK                         _______ _______ _______ _____ _____    ______ ____
ROOT
ATOM      1  C   UNL     1       3.097   6.501  18.406  0.00  0.00    +0.000 C 
ATOM      2  C   UNL     1       4.275   6.895  17.876  0.00  0.00    +0.000 C 
ENDROOT
BRANCH   2   3
ATOM      3  C   UNL     1       5.246   6.099  17.114  0.00  0.00    +0.000 A 
ATOM      4  C   UNL     1       5.113   6.037  15.721  0.00  0.00    +0.000 A 
ATOM      5  C   UNL     1       5.990   5.264  14.953  0.00  0.00    +0.000 A 
ATOM      6  C   UNL     1       7.012   4.542  15.567  0.00  0.00    +0.000 A 
ATOM      7  C   UNL     1       7.149   4.583  16.957  0.00  0.00    +0.000 A 
ATOM      8  C   UNL     1       6.268   5.348  17.726  0.00  0.00    +0.000 A 
ATOM      9 CL   UNL     1       6.459   5.298  19.447  0.00  0.00    +0.000 Cl
ENDBRANCH   2   3
BRANCH   1  10
ATOM     10  C   UNL     1       2.584   5.072  18.295  0.00  0.00    +0.000 C 
ATOM     11  O   UNL     1       2.567   4.486  17.214  0.00  0.00    +0.000 OA
ATOM     12  N   UNL     1       2.124   4.449  19.451  0.00  0.00    +0.000 N 
ATOM     13  C   UNL     1       2.123   4.902  20.833  0.00  0.00    +0.000 C 
ATOM     14  C   UNL     1       2.206   3.632  21.659  0.00  0.00    +0.000 C 
ATOM     15  C   UNL     1       1.606   2.543  20.780  0.00  0.00    +0.000 C 
ATOM     16  C   UNL     1       1.543   3.123  19.371  0.00  0.00    +0.000 C 
ENDBRANCH   1  10
BRANCH   1  19
ATOM     17  O   UNL     1       2.165   8.978  17.226  0.00  0.00    +0.000 OA
ATOM     18  C   UNL     1       1.816   8.598  18.337  0.00  0.00    +0.000 C 
ATOM     19  N   UNL     1       2.232   7.432  18.959  0.00  0.00    +0.000 N 
ATOM     20  H   UNL     1       2.175   7.412  19.969  0.00  0.00    +0.000 HD
BRANCH  18  21
ATOM     21  C   UNL     1       0.992   9.491  19.198  0.00  0.00    +0.000 A 
ATOM     22  C   UNL     1       0.287  10.568  18.647  0.00  0.00    +0.000 A 
ATOM     23  C   UNL     1      -0.502  11.374  19.467  0.00  0.00    +0.000 A 
ATOM     24  C   UNL     1      -0.590  11.108  20.834  0.00  0.00    +0.000 A 
ATOM     25  C   UNL     1       0.120  10.042  21.388  0.00  0.00    +0.000 A 
ATOM     26  C   UNL     1       0.915   9.234  20.573  0.00  0.00    +0.000 A 
ENDBRANCH  18  21
ENDBRANCH   1  19
TORSDOF 4
ENDMDL
MODEL 2
REMARK VINA RESULT:      -8.6      1.463      1.577
REMARK  Name = 
REMARK  4 active torsions:
REMARK  status: ('A' for Active; 'I' for Inactive)
REMARK    1  A    between atoms: C_2  and  C_20
REMARK    2  A    between atoms: N_3  and  C_4
REMARK    3  A    between atoms: C_4  and  C_13
REMARK    4  A    between atoms: C_5  and  C_6
REMARK                            x       y       z     vdW  Elec       q    Type
REMARK                         _______ _______ _______ _____ _____    ______ ____
ROOT
ATOM      1  C   UNL     1       3.798   6.227  18.390  0.00  0.00    +0.000 C 
ATOM      2  C   UNL     1       4.407   6.655  17.264  0.00  0.00    +0.000 C 
ENDROOT
BRANCH   2   3
ATOM      3  C   UNL     1       5.313   5.913  16.377  0.00  0.00    +0.000 A 
ATOM      4  C   UNL     1       4.758   5.152  15.340  0.00  0.00    +0.000 A 
ATOM      5  C   UNL     1       5.576   4.399  14.491  0.00  0.00    +0.000 A 
ATOM      6  C   UNL     1       6.959   4.396  14.667  0.00  0.00    +0.000 A 
ATOM      7  C   UNL     1       7.525   5.140  15.705  0.00  0.00    +0.000 A 
ATOM      8  C   UNL     1       6.709   5.886  16.559  0.00  0.00    +0.000 A 
ATOM      9 CL   UNL     1       7.477   6.729  17.864  0.00  0.00    +0.000 Cl
ENDBRANCH   2   3
BRANCH   1  10
ATOM     10  C   UNL     1       3.994   4.825  18.948  0.00  0.00    +0.000 C 
ATOM     11  O   UNL     1       4.991   4.537  19.605  0.00  0.00    +0.000 OA
ATOM     12  N   UNL     1       3.014   3.872  18.683  0.00  0.00    +0.000 N 
ATOM     13  C   UNL     1       1.730   3.995  18.012  0.00  0.00    +0.000 C 
ATOM     14  C   UNL     1       0.857   2.926  18.641  0.00  0.00    +0.000 C 
ATOM     15  C   UNL     1       1.825   1.859  19.137  0.00  0.00    +0.000 C 
ATOM     16  C   UNL     1       3.207   2.502  19.119  0.00  0.00    +0.000 C 
ENDBRANCH   1  10
BRANCH   1  19
ATOM     17  O   UNL     1       2.467   8.573  17.330  0.00  0.00    +0.000 OA
ATOM     18  C   UNL     1       2.238   8.127  18.449  0.00  0.00    +0.000 C 
ATOM     19  N   UNL     1       2.846   7.019  19.015  0.00  0.00    +0.000 N 
ATOM     20  H   UNL     1       2.851   6.972  20.026  0.00  0.00    +0.000 HD
BRANCH  18  21
ATOM     21  C   UNL     1       1.351   8.880  19.377  0.00  0.00    +0.000 A 
ATOM     22  C   UNL     1       0.587   9.961  18.920  0.00  0.00    +0.000 A 
ATOM     23  C   UNL     1      -0.260  10.634  19.800  0.00  0.00    +0.000 A 
ATOM     24  C   UNL     1      -0.347  10.231  21.133  0.00  0.00    +0.000 A 
ATOM     25  C   UNL     1       0.420   9.161  21.594  0.00  0.00    +0.000 A 
ATOM     26  C   UNL     1       1.274   8.486  20.719  0.00  0.00    +0.000 A 
ENDBRANCH  18  21
ENDBRANCH   1  19
TORSDOF 4
ENDMDL
MODEL 3
REMARK VINA RESULT:      -8.5      1.210      1.672
REMARK  Name = 
REMARK  4 active torsions:
REMARK  status: ('A' for Active; 'I' for Inactive)
REMARK    1  A    between atoms: C_2  and  C_20
REMARK    2  A    between atoms: N_3  and  C_4
REMARK    3  A    between atoms: C_4  and  C_13
REMARK    4  A    between atoms: C_5  and  C_6
REMARK                            x       y       z     vdW  Elec       q    Type
REMARK                         _______ _______ _______ _____ _____    ______ ____
ROOT
ATOM      1  C   UNL     1       3.102   6.251  18.811  0.00  0.00    +0.000 C 
ATOM      2  C   UNL     1       4.323   6.672  18.420  0.00  0.00    +0.000 C 
ENDROOT
BRANCH   2   3
ATOM      3  C   UNL     1       5.246   6.040  17.468  0.00  0.00    +0.000 A 
ATOM      4  C   UNL     1       4.868   5.966  16.121  0.00  0.00    +0.000 A 
ATOM      5  C   UNL     1       5.694   5.341  15.180  0.00  0.00    +0.000 A 
ATOM      6  C   UNL     1       6.909   4.784  15.574  0.00  0.00    +0.000 A 
ATOM      7  C   UNL     1       7.294   4.838  16.916  0.00  0.00    +0.000 A 
ATOM      8  C   UNL     1       6.465   5.454  17.858  0.00  0.00    +0.000 A 
ATOM      9 CL   UNL     1       6.977   5.424  19.513  0.00  0.00    +0.000 Cl
ENDBRANCH   2   3
BRANCH   1  10
ATOM     10  C   UNL     1       2.473   4.964  18.297  0.00  0.00    +0.000 C 
ATOM     11  O   UNL     1       1.606   4.985  17.426  0.00  0.00    +0.000 OA
ATOM     12  N   UNL     1       2.901   3.759  18.848  0.00  0.00    +0.000 N 
ATOM     13  C   UNL     1       3.953   3.481  19.812  0.00  0.00    +0.000 C 
ATOM     14  C   UNL     1       4.425   2.079  19.480  0.00  0.00    +0.000 C 
ATOM     15  C   UNL     1       3.235   1.402  18.814  0.00  0.00    +0.000 C 
ATOM     16  C   UNL     1       2.263   2.519  18.450  0.00  0.00    +0.000 C 
ENDBRANCH   1  10
BRANCH   1  19
ATOM     17  O   UNL     1       1.895   8.789  18.103  0.00  0.00    +0.000 OA
ATOM     18  C   UNL     1       1.745   8.265  19.201  0.00  0.00    +0.000 C 
ATOM     19  N   UNL     1       2.302   7.062  19.602  0.00  0.00    +0.000 N 
ATOM     20  H   UNL     1       2.410   6.923  20.599  0.00  0.00    +0.000 HD
BRANCH  18  21
ATOM     21  C   UNL     1       1.038   9.004  20.282  0.00  0.00    +0.000 A 
ATOM     22  C   UNL     1       1.189   8.631  21.623  0.00  0.00    +0.000 A 
ATOM     23  C   UNL     1       0.541   9.356  22.623  0.00  0.00    +0.000 A 
ATOM     24  C   UNL     1      -0.256  10.451  22.288  0.00  0.00    +0.000 A 
ATOM     25  C   UNL     1      -0.416  10.820  20.951  0.00  0.00    +0.000 A 
ATOM     26  C   UNL     1       0.227  10.095  19.946  0.00  0.00    +0.000 A 
ENDBRANCH  18  21
ENDBRANCH   1  19
TORSDOF 4
ENDMDL
MODEL 4
REMARK VINA RESULT:      -8.4      1.367      1.796
REMARK  Name = 
REMARK  4 active torsions:
REMARK  status: ('A' for Active; 'I' for Inactive)
REMARK    1  A    between atoms: C_2  and  C_20
REMARK    2  A    between atoms: N_3  and  C_4
REMARK    3  A    between atoms: C_4  and  C_13
REMARK    4  A    between atoms: C_5  and  C_6
REMARK                            x       y       z     vdW  Elec       q    Type
REMARK                         _______ _______ _______ _____ _____    ______ ____
ROOT
ATOM      1  C   UNL     1       3.565   6.495  18.462  0.00  0.00    +0.000 C 
ATOM      2  C   UNL     1       4.192   6.803  17.307  0.00  0.00    +0.000 C 
ENDROOT
BRANCH   2   3
ATOM      3  C   UNL     1       5.144   5.990  16.539  0.00  0.00    +0.000 A 
ATOM      4  C   UNL     1       4.643   4.960  15.732  0.00  0.00    +0.000 A 
ATOM      5  C   UNL     1       5.509   4.133  15.009  0.00  0.00    +0.000 A 
ATOM      6  C   UNL     1       6.888   4.325  15.082  0.00  0.00    +0.000 A 
ATOM      7  C   UNL     1       7.403   5.340  15.893  0.00  0.00    +0.000 A 
ATOM      8  C   UNL     1       6.539   6.160  16.623  0.00  0.00    +0.000 A 
ATOM      9 CL   UNL     1       7.253   7.353  17.658  0.00  0.00    +0.000 Cl
ENDBRANCH   2   3
BRANCH   1  10
ATOM     10  C   UNL     1       3.785   5.176  19.190  0.00  0.00    +0.000 C 
ATOM     11  O   UNL     1       4.698   5.044  20.003  0.00  0.00    +0.000 OA
ATOM     12  N   UNL     1       2.929   4.117  18.901  0.00  0.00    +0.000 N 
ATOM     13  C   UNL     1       1.748   4.058  18.055  0.00  0.00    +0.000 C 
ATOM     14  C   UNL     1       0.879   2.981  18.673  0.00  0.00    +0.000 C 
ATOM     15  C   UNL     1       1.844   2.059  19.406  0.00  0.00    +0.000 C 
ATOM     16  C   UNL     1       3.162   2.819  19.505  0.00  0.00    +0.000 C 
ENDBRANCH   1  10
BRANCH   1  19
ATOM     17  O   UNL     1       2.450   8.871  17.234  0.00  0.00    +0.000 OA
ATOM     18  C   UNL     1       2.076   8.446  18.321  0.00  0.00    +0.000 C 
ATOM     19  N   UNL     1       2.574   7.325  18.964  0.00  0.00    +0.000 N 
ATOM     20  H   UNL     1       2.458   7.289  19.968  0.00  0.00    +0.000 HD
BRANCH  18  21
ATOM     21  C   UNL     1       1.112   9.239  19.132  0.00  0.00    +0.000 A 
ATOM     22  C   UNL     1       1.097   9.139  20.529  0.00  0.00    +0.000 A 
ATOM     23  C   UNL     1       0.205   9.913  21.271  0.00  0.00    +0.000 A 
ATOM     24  C   UNL     1      -0.670  10.786  20.624  0.00  0.00    +0.000 A 
ATOM     25  C   UNL     1      -0.665  10.881  19.231  0.00  0.00    +0.000 A 
ATOM     26  C   UNL     1       0.223  10.104  18.483  0.00  0.00    +0.000 A 
ENDBRANCH  18  21
ENDBRANCH   1  19
TORSDOF 4
ENDMDL
MODEL 5
REMARK VINA RESULT:      -8.4      2.994      7.601
REMARK  Name = 
REMARK  4 active torsions:
REMARK  status: ('A' for Active; 'I' for Inactive)
REMARK    1  A    between atoms: C_2  and  C_20
REMARK    2  A    between atoms: N_3  and  C_4
REMARK    3  A    between atoms: C_4  and  C_13
REMARK    4  A    between atoms: C_5  and  C_6
REMARK                            x       y       z     vdW  Elec       q    Type
REMARK                         _______ _______ _______ _____ _____    ______ ____
ROOT
ATOM      1  C   UNL     1       4.597   4.367  17.119  0.00  0.00    +0.000 C 
ATOM      2  C   UNL     1       3.323   4.778  17.288  0.00  0.00    +0.000 C 
ENDROOT
BRANCH   2   3
ATOM      3  C   UNL     1       2.712   5.400  18.470  0.00  0.00    +0.000 A 
ATOM      4  C   UNL     1       2.730   6.797  18.574  0.00  0.00    +0.000 A 
ATOM      5  C   UNL     1       2.195   7.437  19.697  0.00  0.00    +0.000 A 
ATOM      6  C   UNL     1       1.635   6.689  20.731  0.00  0.00    +0.000 A 
ATOM      7  C   UNL     1       1.621   5.294  20.648  0.00  0.00    +0.000 A 
ATOM      8  C   UNL     1       2.164   4.654  19.531  0.00  0.00    +0.000 A 
ATOM      9 CL   UNL     1       2.172   2.921  19.528  0.00  0.00    +0.000 Cl
ENDBRANCH   2   3
BRANCH   1  10
ATOM     10  C   UNL     1       5.650   4.483  18.213  0.00  0.00    +0.000 C 
ATOM     11  O   UNL     1       5.859   3.556  18.992  0.00  0.00    +0.000 OA
ATOM     12  N   UNL     1       6.363   5.675  18.313  0.00  0.00    +0.000 N 
ATOM     13  C   UNL     1       6.350   6.859  17.469  0.00  0.00    +0.000 C 
ATOM     14  C   UNL     1       7.741   7.448  17.604  0.00  0.00    +0.000 C 
ATOM     15  C   UNL     1       8.244   6.981  18.963  0.00  0.00    +0.000 C 
ATOM     16  C   UNL     1       7.309   5.858  19.397  0.00  0.00    +0.000 C 
ENDBRANCH   1  10
BRANCH   1  19
ATOM     17  O   UNL     1       5.439   6.009  14.884  0.00  0.00    +0.000 OA
ATOM     18  C   UNL     1       5.436   4.784  14.846  0.00  0.00    +0.000 C 
ATOM     19  N   UNL     1       5.037   3.945  15.874  0.00  0.00    +0.000 N 
ATOM     20  H   UNL     1       4.739   3.015  15.610  0.00  0.00    +0.000 HD
BRANCH  18  21
ATOM     21  C   UNL     1       5.737   4.084  13.566  0.00  0.00    +0.000 A 
ATOM     22  C   UNL     1       7.041   4.051  13.056  0.00  0.00    +0.000 A 
ATOM     23  C   UNL     1       7.306   3.365  11.871  0.00  0.00    +0.000 A 
ATOM     24  C   UNL     1       6.274   2.712  11.195  0.00  0.00    +0.000 A 
ATOM     25  C   UNL     1       4.972   2.751  11.696  0.00  0.00    +0.000 A 
ATOM     26  C   UNL     1       4.700   3.441  12.879  0.00  0.00    +0.000 A 
ENDBRANCH  18  21
ENDBRANCH   1  19
TORSDOF 4
ENDMDL
MODEL 6
REMARK VINA RESULT:      -8.3      2.981      7.616
REMARK  Name = 
REMARK  4 active torsions:
REMARK  status: ('A' for Active; 'I' for Inactive)
REMARK    1  A    between atoms: C_2  and  C_20
REMARK    2  A    between atoms: N_3  and  C_4
REMARK    3  A    between atoms: C_4  and  C_13
REMARK    4  A    between atoms: C_5  and  C_6
REMARK                            x       y       z     vdW  Elec       q    Type
REMARK                         _______ _______ _______ _____ _____    ______ ____
ROOT
ATOM      1  C   UNL     1       4.676   4.397  17.190  0.00  0.00    +0.000 C 
ATOM      2  C   UNL     1       3.392   4.776  17.363  0.00  0.00    +0.000 C 
ENDROOT
BRANCH   2   3
ATOM      3  C   UNL     1       2.767   5.368  18.553  0.00  0.00    +0.000 A 
ATOM      4  C   UNL     1       2.217   4.510  19.515  0.00  0.00    +0.000 A 
ATOM      5  C   UNL     1       1.578   5.024  20.649  0.00  0.00    +0.000 A 
ATOM      6  C   UNL     1       1.481   6.402  20.836  0.00  0.00    +0.000 A 
ATOM      7  C   UNL     1       2.013   7.270  19.880  0.00  0.00    +0.000 A 
ATOM      8  C   UNL     1       2.643   6.757  18.742  0.00  0.00    +0.000 A 
ATOM      9 CL   UNL     1       3.220   7.894  17.568  0.00  0.00    +0.000 Cl
ENDBRANCH   2   3
BRANCH   1  10
ATOM     10  C   UNL     1       5.724   4.523  18.286  0.00  0.00    +0.000 C 
ATOM     11  O   UNL     1       5.928   3.605  19.078  0.00  0.00    +0.000 OA
ATOM     12  N   UNL     1       6.442   5.712  18.373  0.00  0.00    +0.000 N 
ATOM     13  C   UNL     1       6.438   6.885  17.514  0.00  0.00    +0.000 C 
ATOM     14  C   UNL     1       7.830   7.471  17.647  0.00  0.00    +0.000 C 
ATOM     15  C   UNL     1       8.327   7.019  19.014  0.00  0.00    +0.000 C 
ATOM     16  C   UNL     1       7.385   5.905  19.458  0.00  0.00    +0.000 C 
ENDBRANCH   1  10
BRANCH   1  19
ATOM     17  O   UNL     1       5.347   6.083  14.930  0.00  0.00    +0.000 OA
ATOM     18  C   UNL     1       5.440   4.861  14.899  0.00  0.00    +0.000 C 
ATOM     19  N   UNL     1       5.126   4.002  15.939  0.00  0.00    +0.000 N 
ATOM     20  H   UNL     1       4.897   3.049  15.686  0.00  0.00    +0.000 HD
BRANCH  18  21
ATOM     21  C   UNL     1       5.772   4.178  13.619  0.00  0.00    +0.000 A 
ATOM     22  C   UNL     1       7.058   4.269  13.071  0.00  0.00    +0.000 A 
ATOM     23  C   UNL     1       7.356   3.597  11.885  0.00  0.00    +0.000 A 
ATOM     24  C   UNL     1       6.376   2.835  11.248  0.00  0.00    +0.000 A 
ATOM     25  C   UNL     1       5.091   2.751  11.786  0.00  0.00    +0.000 A 
ATOM     26  C   UNL     1       4.786   3.425  12.970  0.00  0.00    +0.000 A 
ENDBRANCH  18  21
ENDBRANCH   1  19
TORSDOF 4
ENDMDL
MODEL 7
REMARK VINA RESULT:      -8.2      1.170      1.803
REMARK  Name = 
REMARK  4 active torsions:
REMARK  status: ('A' for Active; 'I' for Inactive)
REMARK    1  A    between atoms: C_2  and  C_20
REMARK    2  A    between atoms: N_3  and  C_4
REMARK    3  A    between atoms: C_4  and  C_13
REMARK    4  A    between atoms: C_5  and  C_6
REMARK                            x       y       z     vdW  Elec       q    Type
REMARK                         _______ _______ _______ _____ _____    ______ ____
ROOT
ATOM      1  C   UNL     1       2.935   6.556  18.561  0.00  0.00    +0.000 C 
ATOM      2  C   UNL     1       4.212   6.928  18.329  0.00  0.00    +0.000 C 
ENDROOT
BRANCH   2   3
ATOM      3  C   UNL     1       5.337   6.099  17.877  0.00  0.00    +0.000 A 
ATOM      4  C   UNL     1       6.116   5.447  18.842  0.00  0.00    +0.000 A 
ATOM      5  C   UNL     1       7.220   4.675  18.465  0.00  0.00    +0.000 A 
ATOM      6  C   UNL     1       7.561   4.545  17.120  0.00  0.00    +0.000 A 
ATOM      7  C   UNL     1       6.802   5.201  16.147  0.00  0.00    +0.000 A 
ATOM      8  C   UNL     1       5.704   5.980  16.523  0.00  0.00    +0.000 A 
ATOM      9 CL   UNL     1       4.851   6.816  15.268  0.00  0.00    +0.000 Cl
ENDBRANCH   2   3
BRANCH   1  10
ATOM     10  C   UNL     1       2.454   5.122  18.392  0.00  0.00    +0.000 C 
ATOM     11  O   UNL     1       2.430   4.588  17.285  0.00  0.00    +0.000 OA
ATOM     12  N   UNL     1       2.031   4.435  19.526  0.00  0.00    +0.000 N 
ATOM     13  C   UNL     1       2.045   4.821  20.927  0.00  0.00    +0.000 C 
ATOM     14  C   UNL     1       2.174   3.517  21.690  0.00  0.00    +0.000 C 
ATOM     15  C   UNL     1       1.584   2.455  20.772  0.00  0.00    +0.000 C 
ATOM     16  C   UNL     1       1.480   3.099  19.393  0.00  0.00    +0.000 C 
ENDBRANCH   1  10
BRANCH   1  19
ATOM     17  O   UNL     1       2.425   9.025  17.132  0.00  0.00    +0.000 OA
ATOM     18  C   UNL     1       1.767   8.671  18.103  0.00  0.00    +0.000 C 
ATOM     19  N   UNL     1       1.967   7.511  18.833  0.00  0.00    +0.000 N 
ATOM     20  H   UNL     1       1.624   7.510  19.785  0.00  0.00    +0.000 HD
BRANCH  18  21
ATOM     21  C   UNL     1       0.750   9.591  18.682  0.00  0.00    +0.000 A 
ATOM     22  C   UNL     1       0.907  10.113  19.972  0.00  0.00    +0.000 A 
ATOM     23  C   UNL     1      -0.043  10.997  20.483  0.00  0.00    +0.000 A 
ATOM     24  C   UNL     1      -1.146  11.362  19.711  0.00  0.00    +0.000 A 
ATOM     25  C   UNL     1      -1.311  10.836  18.429  0.00  0.00    +0.000 A 
ATOM     26  C   UNL     1      -0.366   9.946  17.914  0.00  0.00    +0.000 A 
ENDBRANCH  18  21
ENDBRANCH   1  19
TORSDOF 4
ENDMDL
MODEL 8
REMARK VINA RESULT:      -8.2      1.416      1.560
REMARK  Name = 
REMARK  4 active torsions:
REMARK  status: ('A' for Active; 'I' for Inactive)
REMARK    1  A    between atoms: C_2  and  C_20
REMARK    2  A    between atoms: N_3  and  C_4
REMARK    3  A    between atoms: C_4  and  C_13
REMARK    4  A    between atoms: C_5  and  C_6
REMARK                            x       y       z     vdW  Elec       q    Type
REMARK                         _______ _______ _______ _____ _____    ______ ____
ROOT
ATOM      1  C   UNL     1       3.208   6.575  18.368  0.00  0.00    +0.000 C 
ATOM      2  C   UNL     1       4.454   6.819  17.911  0.00  0.00    +0.000 C 
ENDROOT
BRANCH   2   3
ATOM      3  C   UNL     1       5.310   5.955  17.087  0.00  0.00    +0.000 A 
ATOM      4  C   UNL     1       4.903   5.666  15.778  0.00  0.00    +0.000 A 
ATOM      5  C   UNL     1       5.663   4.819  14.964  0.00  0.00    +0.000 A 
ATOM      6  C   UNL     1       6.841   4.251  15.448  0.00  0.00    +0.000 A 
ATOM      7  C   UNL     1       7.253   4.520  16.755  0.00  0.00    +0.000 A 
ATOM      8  C   UNL     1       6.489   5.358  17.572  0.00  0.00    +0.000 A 
ATOM      9 CL   UNL     1       7.027   5.592  19.203  0.00  0.00    +0.000 Cl
ENDBRANCH   2   3
BRANCH   1  10
ATOM     10  C   UNL     1       2.470   5.274  18.088  0.00  0.00    +0.000 C 
ATOM     11  O   UNL     1       1.554   5.227  17.270  0.00  0.00    +0.000 OA
ATOM     12  N   UNL     1       2.855   4.137  18.793  0.00  0.00    +0.000 N 
ATOM     13  C   UNL     1       3.945   3.930  19.732  0.00  0.00    +0.000 C 
ATOM     14  C   UNL     1       4.308   2.464  19.592  0.00  0.00    +0.000 C 
ATOM     15  C   UNL     1       3.039   1.783  19.099  0.00  0.00    +0.000 C 
ATOM     16  C   UNL     1       2.117   2.900  18.621  0.00  0.00    +0.000 C 
ENDBRANCH   1  10
BRANCH   1  19
ATOM     17  O   UNL     1       1.824   6.426  20.910  0.00  0.00    +0.000 OA
ATOM     18  C   UNL     1       1.854   7.444  20.228  0.00  0.00    +0.000 C 
ATOM     19  N   UNL     1       2.488   7.575  19.003  0.00  0.00    +0.000 N 
ATOM     20  H   UNL     1       2.146   8.307  18.393  0.00  0.00    +0.000 HD
BRANCH  18  21
ATOM     21  C   UNL     1       1.037   8.623  20.625  0.00  0.00    +0.000 A 
ATOM     22  C   UNL     1       0.709   9.615  19.693  0.00  0.00    +0.000 A 
ATOM     23  C   UNL     1      -0.082  10.697  20.080  0.00  0.00    +0.000 A 
ATOM     24  C   UNL     1      -0.545  10.791  21.393  0.00  0.00    +0.000 A 
ATOM     25  C   UNL     1      -0.211   9.809  22.327  0.00  0.00    +0.000 A 
ATOM     26  C   UNL     1       0.584   8.726  21.946  0.00  0.00    +0.000 A 
ENDBRANCH  18  21
ENDBRANCH   1  19
TORSDOF 4
ENDMDL
MODEL 9
REMARK VINA RESULT:      -8.1      3.995      5.852
REMARK  Name = 
REMARK  4 active torsions:
REMARK  status: ('A' for Active; 'I' for Inactive)
REMARK    1  A    between atoms: C_2  and  C_20
REMARK    2  A    between atoms: N_3  and  C_4
REMARK    3  A    between atoms: C_4  and  C_13
REMARK    4  A    between atoms: C_5  and  C_6
REMARK                            x       y       z     vdW  Elec       q    Type
REMARK                         _______ _______ _______ _____ _____    ______ ____
ROOT
ATOM      1  C   UNL     1       5.041   4.603  16.209  0.00  0.00    +0.000 C 
ATOM      2  C   UNL     1       5.304   3.854  15.118  0.00  0.00    +0.000 C 
ENDROOT
BRANCH   2   3
ATOM      3  C   UNL     1       6.157   4.183  13.967  0.00  0.00    +0.000 A 
ATOM      4  C   UNL     1       7.321   4.929  14.191  0.00  0.00    +0.000 A 
ATOM      5  C   UNL     1       8.148   5.300  13.125  0.00  0.00    +0.000 A 
ATOM      6  C   UNL     1       7.821   4.930  11.821  0.00  0.00    +0.000 A 
ATOM      7  C   UNL     1       6.656   4.197  11.581  0.00  0.00    +0.000 A 
ATOM      8  C   UNL     1       5.825   3.834  12.644  0.00  0.00    +0.000 A 
ATOM      9 CL   UNL     1       4.365   2.984  12.262  0.00  0.00    +0.000 Cl
ENDBRANCH   2   3
BRANCH   1  10
ATOM     10  C   UNL     1       5.616   5.999  16.406  0.00  0.00    +0.000 C 
ATOM     11  O   UNL     1       5.111   6.976  15.858  0.00  0.00    +0.000 OA
ATOM     12  N   UNL     1       6.739   6.136  17.217  0.00  0.00    +0.000 N 
ATOM     13  C   UNL     1       7.450   5.157  18.023  0.00  0.00    +0.000 C 
ATOM     14  C   UNL     1       8.046   5.953  19.167  0.00  0.00    +0.000 C 
ATOM     15  C   UNL     1       8.205   7.370  18.631  0.00  0.00    +0.000 C 
ATOM     16  C   UNL     1       7.371   7.435  17.356  0.00  0.00    +0.000 C 
ENDBRANCH   1  10
BRANCH   1  19
ATOM     17  O   UNL     1       2.734   5.723  17.559  0.00  0.00    +0.000 OA
ATOM     18  C   UNL     1       3.231   4.647  17.872  0.00  0.00    +0.000 C 
ATOM     19  N   UNL     1       4.336   4.064  17.274  0.00  0.00    +0.000 N 
ATOM     20  H   UNL     1       4.852   3.396  17.831  0.00  0.00    +0.000 HD
BRANCH  18  21
ATOM     21  C   UNL     1       2.740   3.931  19.082  0.00  0.00    +0.000 A 
ATOM     22  C   UNL     1       3.604   3.135  19.844  0.00  0.00    +0.000 A 
ATOM     23  C   UNL     1       3.129   2.497  20.990  0.00  0.00    +0.000 A 
ATOM     24  C   UNL     1       1.798   2.651  21.377  0.00  0.00    +0.000 A 
ATOM     25  C   UNL     1       0.931   3.436  20.613  0.00  0.00    +0.000 A 
ATOM     26  C   UNL     1       1.400   4.073  19.462  0.00  0.00    +0.000 A 
ENDBRANCH  18  21
ENDBRANCH   1  19
TORSDOF 4
ENDMDL
