MODEL 1
REMARK VINA RESULT:      -7.4      0.000      0.000
REMARK  Name = 
REMARK  5 active torsions:
REMARK  status: ('A' for Active; 'I' for Inactive)
REMARK    1  A    between atoms: C_2  and  C_3
REMARK    2  A    between atoms: C_3  and  C_4
REMARK    3  A    between atoms: C_4  and  C_5
REMARK    4  A    between atoms: N_10  and  S_11
REMARK    5  A    between atoms: S_11  and  C_14
REMARK                            x       y       z     vdW  Elec       q    Type
REMARK                         _______ _______ _______ _____ _____    ______ ____
ROOT
ATOM      1  O   UNL     1       8.205   7.011  18.797  0.00  0.00    +0.000 OA
ATOM      2  C   UNL     1       7.865   7.749  17.883  0.00  0.00    +0.000 C 
ATOM      3  N   UNL     1       7.188   7.286  16.747  0.00  0.00    +0.000 N 
ATOM      4  H   UNL     1       6.944   7.909  15.986  0.00  0.00    +0.000 HD
ENDROOT
BRANCH   3   5
ATOM      5  S   UNL     1       6.688   5.721  16.493  0.00  0.00    +0.000 S 
ATOM      6  O   UNL     1       6.069   5.740  15.183  0.00  0.00    +0.000 OA
ATOM      7  O   UNL     1       7.775   4.804  16.771  0.00  0.00    +0.000 OA
BRANCH   5   8
ATOM      8  C   UNL     1       5.402   5.446  17.666  0.00  0.00    +0.000 A 
ATOM      9  C   UNL     1       4.326   6.324  17.772  0.00  0.00    +0.000 A 
ATOM     10  C   UNL     1       3.346   6.089  18.739  0.00  0.00    +0.000 A 
ATOM     11  C   UNL     1       3.463   4.957  19.529  0.00  0.00    +0.000 A 
ATOM     12  N   UNL     1       4.471   4.063  19.402  0.00  0.00    +0.000 NA
ATOM     13  C   UNL     1       5.423   4.324  18.472  0.00  0.00    +0.000 A 
ENDBRANCH   5   8
ENDBRANCH   3   5
BRANCH   2  14
ATOM     14  C   UNL     1       8.207   9.231  17.885  0.00  0.00    +0.000 C 
BRANCH  14  15
ATOM     15  C   UNL     1       9.154   9.670  19.010  0.00  0.00    +0.000 C 
BRANCH  15  16
ATOM     16  C   UNL     1       9.424  11.179  19.001  0.00  0.00    +0.000 C 
ATOM     17  C   UNL     1      10.413  11.633  20.069  0.00  0.00    +0.000 C 
ATOM     18  C   UNL     1      11.740  11.543  19.367  0.00  0.00    +0.000 C 
ATOM     19  C   UNL     1      11.371  11.935  17.964  0.00  0.00    +0.000 C 
ATOM     20  O   UNL     1      10.027  11.511  17.743  0.00  0.00    +0.000 OA
ENDBRANCH  15  16
ENDBRANCH  14  15
ENDBRANCH   2  14
TORSDOF 5
ENDMDL
MODEL 2
REMARK VINA RESULT:      -7.2      0.702      1.130
REMARK  Name = 
REMARK  5 active torsions:
REMARK  status: ('A' for Active; 'I' for Inactive)
REMARK    1  A    between atoms: C_2  and  C_3
REMARK    2  A    between atoms: C_3  and  C_4
REMARK    3  A    between atoms: C_4  and  C_5
REMARK    4  A    between atoms: N_10  and  S_11
REMARK    5  A    between atoms: S_11  and  C_14
REMARK                            x       y       z     vdW  Elec       q    Type
REMARK                         _______ _______ _______ _____ _____    ______ ____
ROOT
ATOM      1  O   UNL     1       8.190   6.922  18.771  0.00  0.00    +0.000 OA
ATOM      2  C   UNL     1       7.836   7.643  17.848  0.00  0.00    +0.000 C 
ATOM      3  N   UNL     1       7.228   7.145  16.688  0.00  0.00    +0.000 N 
ATOM      4  H   UNL     1       6.972   7.756  15.921  0.00  0.00    +0.000 HD
ENDROOT
BRANCH   3   5
ATOM      5  S   UNL     1       6.835   5.554  16.412  0.00  0.00    +0.000 S 
ATOM      6  O   UNL     1       6.344   5.526  15.049  0.00  0.00    +0.000 OA
ATOM      7  O   UNL     1       7.935   4.697  16.806  0.00  0.00    +0.000 OA
BRANCH   5   8
ATOM      8  C   UNL     1       5.458   5.224  17.461  0.00  0.00    +0.000 A 
ATOM      9  C   UNL     1       5.539   4.273  18.476  0.00  0.00    +0.000 A 
ATOM     10  C   UNL     1       4.413   4.017  19.262  0.00  0.00    +0.000 A 
ATOM     11  C   UNL     1       3.267   4.757  19.027  0.00  0.00    +0.000 A 
ATOM     12  N   UNL     1       3.187   5.724  18.083  0.00  0.00    +0.000 NA
ATOM     13  C   UNL     1       4.285   5.940  17.317  0.00  0.00    +0.000 A 
ENDBRANCH   5   8
ENDBRANCH   3   5
BRANCH   2  14
ATOM     14  C   UNL     1       8.086   9.143  17.866  0.00  0.00    +0.000 C 
BRANCH  14  15
ATOM     15  C   UNL     1       9.110   9.611  18.909  0.00  0.00    +0.000 C 
BRANCH  15  16
ATOM     16  C   UNL     1       9.378  11.119  18.840  0.00  0.00    +0.000 C 
ATOM     17  C   UNL     1      10.170  11.657  20.026  0.00  0.00    +0.000 C 
ATOM     18  C   UNL     1      11.598  11.534  19.568  0.00  0.00    +0.000 C 
ATOM     19  C   UNL     1      11.474  11.824  18.099  0.00  0.00    +0.000 C 
ATOM     20  O   UNL     1      10.187  11.370  17.683  0.00  0.00    +0.000 OA
ENDBRANCH  15  16
ENDBRANCH  14  15
ENDBRANCH   2  14
TORSDOF 5
ENDMDL
MODEL 3
REMARK VINA RESULT:      -7.1      3.728      7.477
REMARK  Name = 
REMARK  5 active torsions:
REMARK  status: ('A' for Active; 'I' for Inactive)
REMARK    1  A    between atoms: C_2  and  C_3
REMARK    2  A    between atoms: C_3  and  C_4
REMARK    3  A    between atoms: C_4  and  C_5
REMARK    4  A    between atoms: N_10  and  S_11
REMARK    5  A    between atoms: S_11  and  C_14
REMARK                            x       y       z     vdW  Elec       q    Type
REMARK                         _______ _______ _______ _____ _____    ______ ____
ROOT
ATOM      1  O   UNL     1       3.539   5.310  17.564  0.00  0.00    +0.000 OA
ATOM      2  C   UNL     1       3.741   4.218  17.050  0.00  0.00    +0.000 C 
ATOM      3  N   UNL     1       4.746   4.003  16.098  0.00  0.00    +0.000 N 
ATOM      4  H   UNL     1       4.874   3.097  15.661  0.00  0.00    +0.000 HD
ENDROOT
BRANCH   3   5
ATOM      5  S   UNL     1       5.840   5.139  15.577  0.00  0.00    +0.000 S 
ATOM      6  O   UNL     1       6.732   4.415  14.693  0.00  0.00    +0.000 OA
ATOM      7  O   UNL     1       5.142   6.316  15.101  0.00  0.00    +0.000 OA
BRANCH   5   8
ATOM      8  C   UNL     1       6.775   5.576  17.005  0.00  0.00    +0.000 A 
ATOM      9  C   UNL     1       7.138   6.899  17.251  0.00  0.00    +0.000 A 
ATOM     10  C   UNL     1       7.910   7.198  18.375  0.00  0.00    +0.000 A 
ATOM     11  C   UNL     1       8.249   6.163  19.232  0.00  0.00    +0.000 A 
ATOM     12  N   UNL     1       7.859   4.881  19.039  0.00  0.00    +0.000 NA
ATOM     13  C   UNL     1       7.129   4.611  17.928  0.00  0.00    +0.000 A 
ENDBRANCH   5   8
ENDBRANCH   3   5
BRANCH   2  14
ATOM     14  C   UNL     1       2.868   3.014  17.368  0.00  0.00    +0.000 C 
BRANCH  14  15
ATOM     15  C   UNL     1       3.183   2.327  18.704  0.00  0.00    +0.000 C 
BRANCH  15  16
ATOM     16  C   UNL     1       1.997   2.349  19.675  0.00  0.00    +0.000 C 
ATOM     17  C   UNL     1       2.381   2.707  21.106  0.00  0.00    +0.000 C 
ATOM     18  C   UNL     1       2.239   4.204  21.135  0.00  0.00    +0.000 C 
ATOM     19  C   UNL     1       1.066   4.417  20.218  0.00  0.00    +0.000 C 
ATOM     20  O   UNL     1       1.093   3.376  19.244  0.00  0.00    +0.000 OA
ENDBRANCH  15  16
ENDBRANCH  14  15
ENDBRANCH   2  14
TORSDOF 5
ENDMDL
MODEL 4
REMARK VINA RESULT:      -7.0      5.220      7.955
REMARK  Name = 
REMARK  5 active torsions:
REMARK  status: ('A' for Active; 'I' for Inactive)
REMARK    1  A    between atoms: C_2  and  C_3
REMARK    2  A    between atoms: C_3  and  C_4
REMARK    3  A    between atoms: C_4  and  C_5
REMARK    4  A    between atoms: N_10  and  S_11
REMARK    5  A    between atoms: S_11  and  C_14
REMARK                            x       y       z     vdW  Elec       q    Type
REMARK                         _______ _______ _______ _____ _____    ______ ____
ROOT
ATOM      1  O   UNL     1       6.078   4.283  19.043  0.00  0.00    +0.000 OA
ATOM      2  C   UNL     1       5.279   3.972  18.170  0.00  0.00    +0.000 C 
ATOM      3  N   UNL     1       5.473   4.283  16.818  0.00  0.00    +0.000 N 
ATOM      4  H   UNL     1       4.782   4.044  16.116  0.00  0.00    +0.000 HD
ENDROOT
BRANCH   3   5
ATOM      5  S   UNL     1       6.811   5.039  16.185  0.00  0.00    +0.000 S 
ATOM      6  O   UNL     1       6.519   6.454  16.290  0.00  0.00    +0.000 OA
ATOM      7  O   UNL     1       8.014   4.498  16.785  0.00  0.00    +0.000 OA
BRANCH   5   8
ATOM      8  C   UNL     1       6.806   4.638  14.469  0.00  0.00    +0.000 A 
ATOM      9  C   UNL     1       5.893   3.726  13.946  0.00  0.00    +0.000 A 
ATOM     10  C   UNL     1       5.945   3.410  12.587  0.00  0.00    +0.000 A 
ATOM     11  C   UNL     1       6.884   4.055  11.800  0.00  0.00    +0.000 A 
ATOM     12  N   UNL     1       7.743   4.986  12.279  0.00  0.00    +0.000 NA
ATOM     13  C   UNL     1       7.688   5.260  13.606  0.00  0.00    +0.000 A 
ENDBRANCH   5   8
ENDBRANCH   3   5
BRANCH   2  14
ATOM     14  C   UNL     1       3.971   3.268  18.501  0.00  0.00    +0.000 C 
BRANCH  14  15
ATOM     15  C   UNL     1       3.922   2.625  19.894  0.00  0.00    +0.000 C 
BRANCH  15  16
ATOM     16  C   UNL     1       3.187   3.493  20.921  0.00  0.00    +0.000 C 
ATOM     17  C   UNL     1       1.997   4.252  20.344  0.00  0.00    +0.000 C 
ATOM     18  C   UNL     1       0.851   3.300  20.550  0.00  0.00    +0.000 C 
ATOM     19  C   UNL     1       1.222   2.654  21.856  0.00  0.00    +0.000 C 
ATOM     20  O   UNL     1       2.647   2.624  21.926  0.00  0.00    +0.000 OA
ENDBRANCH  15  16
ENDBRANCH  14  15
ENDBRANCH   2  14
TORSDOF 5
ENDMDL
MODEL 5
REMARK VINA RESULT:      -6.9      4.921      7.837
REMARK  Name = 
REMARK  5 active torsions:
REMARK  status: ('A' for Active; 'I' for Inactive)
REMARK    1  A    between atoms: C_2  and  C_3
REMARK    2  A    between atoms: C_3  and  C_4
REMARK    3  A    between atoms: C_4  and  C_5
REMARK    4  A    between atoms: N_10  and  S_11
REMARK    5  A    between atoms: S_11  and  C_14
REMARK                            x       y       z     vdW  Elec       q    Type
REMARK                         _______ _______ _______ _____ _____    ______ ____
ROOT
ATOM      1  O   UNL     1       5.995   4.272  19.008  0.00  0.00    +0.000 OA
ATOM      2  C   UNL     1       5.177   4.606  18.162  0.00  0.00    +0.000 C 
ATOM      3  N   UNL     1       5.545   5.071  16.892  0.00  0.00    +0.000 N 
ATOM      4  H   UNL     1       4.852   5.373  16.218  0.00  0.00    +0.000 HD
ENDROOT
BRANCH   3   5
ATOM      5  S   UNL     1       7.102   5.176  16.319  0.00  0.00    +0.000 S 
ATOM      6  O   UNL     1       7.424   6.587  16.385  0.00  0.00    +0.000 OA
ATOM      7  O   UNL     1       7.942   4.205  16.990  0.00  0.00    +0.000 OA
BRANCH   5   8
ATOM      8  C   UNL     1       7.000   4.751  14.612  0.00  0.00    +0.000 A 
ATOM      9  C   UNL     1       6.081   3.807  14.159  0.00  0.00    +0.000 A 
ATOM     10  C   UNL     1       6.057   3.473  12.803  0.00  0.00    +0.000 A 
ATOM     11  C   UNL     1       6.926   4.133  11.950  0.00  0.00    +0.000 A 
ATOM     12  N   UNL     1       7.787   5.093  12.362  0.00  0.00    +0.000 NA
ATOM     13  C   UNL     1       7.808   5.385  13.687  0.00  0.00    +0.000 A 
ENDBRANCH   5   8
ENDBRANCH   3   5
BRANCH   2  14
ATOM     14  C   UNL     1       3.683   4.596  18.449  0.00  0.00    +0.000 C 
BRANCH  14  15
ATOM     15  C   UNL     1       3.310   4.833  19.919  0.00  0.00    +0.000 C 
BRANCH  15  16
ATOM     16  C   UNL     1       2.736   3.581  20.593  0.00  0.00    +0.000 C 
ATOM     17  C   UNL     1       1.229   3.638  20.814  0.00  0.00    +0.000 C 
ATOM     18  C   UNL     1       0.675   3.031  19.554  0.00  0.00    +0.000 C 
ATOM     19  C   UNL     1       1.707   1.985  19.240  0.00  0.00    +0.000 C 
ATOM     20  O   UNL     1       2.962   2.468  19.718  0.00  0.00    +0.000 OA
ENDBRANCH  15  16
ENDBRANCH  14  15
ENDBRANCH   2  14
TORSDOF 5
ENDMDL
MODEL 6
REMARK VINA RESULT:      -6.9      1.334      1.608
REMARK  Name = 
REMARK  5 active torsions:
REMARK  status: ('A' for Active; 'I' for Inactive)
REMARK    1  A    between atoms: C_2  and  C_3
REMARK    2  A    between atoms: C_3  and  C_4
REMARK    3  A    between atoms: C_4  and  C_5
REMARK    4  A    between atoms: N_10  and  S_11
REMARK    5  A    between atoms: S_11  and  C_14
REMARK                            x       y       z     vdW  Elec       q    Type
REMARK                         _______ _______ _______ _____ _____    ______ ____
ROOT
ATOM      1  O   UNL     1       7.327   8.665  17.067  0.00  0.00    +0.000 OA
ATOM      2  C   UNL     1       8.024   8.303  18.004  0.00  0.00    +0.000 C 
ATOM      3  N   UNL     1       8.096   6.969  18.426  0.00  0.00    +0.000 N 
ATOM      4  H   UNL     1       8.655   6.697  19.226  0.00  0.00    +0.000 HD
ENDROOT
BRANCH   3   5
ATOM      5  S   UNL     1       7.326   5.686  17.701  0.00  0.00    +0.000 S 
ATOM      6  O   UNL     1       7.408   5.963  16.281  0.00  0.00    +0.000 OA
ATOM      7  O   UNL     1       7.840   4.439  18.230  0.00  0.00    +0.000 OA
BRANCH   5   8
ATOM      8  C   UNL     1       5.632   5.839  18.159  0.00  0.00    +0.000 A 
ATOM      9  C   UNL     1       4.741   6.576  17.382  0.00  0.00    +0.000 A 
ATOM     10  C   UNL     1       3.414   6.702  17.798  0.00  0.00    +0.000 A 
ATOM     11  C   UNL     1       3.025   6.046  18.954  0.00  0.00    +0.000 A 
ATOM     12  N   UNL     1       3.862   5.279  19.691  0.00  0.00    +0.000 NA
ATOM     13  C   UNL     1       5.152   5.190  19.280  0.00  0.00    +0.000 A 
ENDBRANCH   5   8
ENDBRANCH   3   5
BRANCH   2  14
ATOM     14  C   UNL     1       8.829   9.297  18.829  0.00  0.00    +0.000 C 
BRANCH  14  15
ATOM     15  C   UNL     1       9.020  10.671  18.173  0.00  0.00    +0.000 C 
BRANCH  15  16
ATOM     16  C   UNL     1      10.115  11.503  18.849  0.00  0.00    +0.000 C 
ATOM     17  C   UNL     1      11.357  11.699  17.988  0.00  0.00    +0.000 C 
ATOM     18  C   UNL     1      11.060  12.972  17.243  0.00  0.00    +0.000 C 
ATOM     19  C   UNL     1      10.292  13.755  18.271  0.00  0.00    +0.000 C 
ATOM     20  O   UNL     1       9.589  12.816  19.083  0.00  0.00    +0.000 OA
ENDBRANCH  15  16
ENDBRANCH  14  15
ENDBRANCH   2  14
TORSDOF 5
ENDMDL
MODEL 7
REMARK VINA RESULT:      -6.7      4.956      7.303
REMARK  Name = 
REMARK  5 active torsions:
REMARK  status: ('A' for Active; 'I' for Inactive)
REMARK    1  A    between atoms: C_2  and  C_3
REMARK    2  A    between atoms: C_3  and  C_4
REMARK    3  A    between atoms: C_4  and  C_5
REMARK    4  A    between atoms: N_10  and  S_11
REMARK    5  A    between atoms: S_11  and  C_14
REMARK                            x       y       z     vdW  Elec       q    Type
REMARK                         _______ _______ _______ _____ _____    ______ ____
ROOT
ATOM      1  O   UNL     1       7.332   6.015  16.108  0.00  0.00    +0.000 OA
ATOM      2  C   UNL     1       6.619   5.160  15.600  0.00  0.00    +0.000 C 
ATOM      3  N   UNL     1       5.574   4.533  16.293  0.00  0.00    +0.000 N 
ATOM      4  H   UNL     1       5.018   3.805  15.863  0.00  0.00    +0.000 HD
ENDROOT
BRANCH   3   5
ATOM      5  S   UNL     1       5.099   4.887  17.846  0.00  0.00    +0.000 S 
ATOM      6  O   UNL     1       6.151   4.349  18.684  0.00  0.00    +0.000 OA
ATOM      7  O   UNL     1       4.733   6.285  17.944  0.00  0.00    +0.000 OA
BRANCH   5   8
ATOM      8  C   UNL     1       3.664   3.905  18.130  0.00  0.00    +0.000 A 
ATOM      9  C   UNL     1       3.763   2.626  18.672  0.00  0.00    +0.000 A 
ATOM     10  C   UNL     1       2.604   1.867  18.848  0.00  0.00    +0.000 A 
ATOM     11  C   UNL     1       1.388   2.441  18.514  0.00  0.00    +0.000 A 
ATOM     12  N   UNL     1       1.267   3.702  18.038  0.00  0.00    +0.000 NA
ATOM     13  C   UNL     1       2.408   4.412  17.855  0.00  0.00    +0.000 A 
ENDBRANCH   5   8
ENDBRANCH   3   5
BRANCH   2  14
ATOM     14  C   UNL     1       6.855   4.666  14.181  0.00  0.00    +0.000 C 
BRANCH  14  15
ATOM     15  C   UNL     1       5.762   3.738  13.633  0.00  0.00    +0.000 C 
BRANCH  15  16
ATOM     16  C   UNL     1       5.767   3.657  12.103  0.00  0.00    +0.000 C 
ATOM     17  C   UNL     1       7.163   3.556  11.497  0.00  0.00    +0.000 C 
ATOM     18  C   UNL     1       7.399   2.071  11.428  0.00  0.00    +0.000 C 
ATOM     19  C   UNL     1       6.020   1.557  11.120  0.00  0.00    +0.000 C 
ATOM     20  O   UNL     1       5.088   2.452  11.724  0.00  0.00    +0.000 OA
ENDBRANCH  15  16
ENDBRANCH  14  15
ENDBRANCH   2  14
TORSDOF 5
ENDMDL
MODEL 8
REMARK VINA RESULT:      -6.7      3.862      7.600
REMARK  Name = 
REMARK  5 active torsions:
REMARK  status: ('A' for Active; 'I' for Inactive)
REMARK    1  A    between atoms: C_2  and  C_3
REMARK    2  A    between atoms: C_3  and  C_4
REMARK    3  A    between atoms: C_4  and  C_5
REMARK    4  A    between atoms: N_10  and  S_11
REMARK    5  A    between atoms: S_11  and  C_14
REMARK                            x       y       z     vdW  Elec       q    Type
REMARK                         _______ _______ _______ _____ _____    ______ ____
ROOT
ATOM      1  O   UNL     1       4.769   3.443  16.378  0.00  0.00    +0.000 OA
ATOM      2  C   UNL     1       3.752   3.735  16.992  0.00  0.00    +0.000 C 
ATOM      3  N   UNL     1       3.472   5.039  17.420  0.00  0.00    +0.000 N 
ATOM      4  H   UNL     1       2.639   5.252  17.955  0.00  0.00    +0.000 HD
ENDROOT
BRANCH   3   5
ATOM      5  S   UNL     1       4.410   6.377  17.114  0.00  0.00    +0.000 S 
ATOM      6  O   UNL     1       4.809   6.237  15.728  0.00  0.00    +0.000 OA
ATOM      7  O   UNL     1       3.724   7.573  17.556  0.00  0.00    +0.000 OA
BRANCH   5   8
ATOM      8  C   UNL     1       5.861   6.163  18.090  0.00  0.00    +0.000 A 
ATOM      9  C   UNL     1       7.026   6.876  17.813  0.00  0.00    +0.000 A 
ATOM     10  C   UNL     1       8.165   6.651  18.589  0.00  0.00    +0.000 A 
ATOM     11  C   UNL     1       8.075   5.752  19.640  0.00  0.00    +0.000 A 
ATOM     12  N   UNL     1       6.937   5.093  19.959  0.00  0.00    +0.000 NA
ATOM     13  C   UNL     1       5.850   5.310  19.177  0.00  0.00    +0.000 A 
ENDBRANCH   5   8
ENDBRANCH   3   5
BRANCH   2  14
ATOM     14  C   UNL     1       2.732   2.679  17.391  0.00  0.00    +0.000 C 
BRANCH  14  15
ATOM     15  C   UNL     1       2.811   2.231  18.856  0.00  0.00    +0.000 C 
BRANCH  15  16
ATOM     16  C   UNL     1       1.543   2.568  19.648  0.00  0.00    +0.000 C 
ATOM     17  C   UNL     1       1.726   2.502  21.160  0.00  0.00    +0.000 C 
ATOM     18  C   UNL     1       2.141   3.904  21.516  0.00  0.00    +0.000 C 
ATOM     19  C   UNL     1       1.344   4.716  20.533  0.00  0.00    +0.000 C 
ATOM     20  O   UNL     1       1.189   3.926  19.355  0.00  0.00    +0.000 OA
ENDBRANCH  15  16
ENDBRANCH  14  15
ENDBRANCH   2  14
TORSDOF 5
ENDMDL
MODEL 9
REMARK VINA RESULT:      -6.7      1.453      1.702
REMARK  Name = 
REMARK  5 active torsions:
REMARK  status: ('A' for Active; 'I' for Inactive)
REMARK    1  A    between atoms: C_2  and  C_3
REMARK    2  A    between atoms: C_3  and  C_4
REMARK    3  A    between atoms: C_4  and  C_5
REMARK    4  A    between atoms: N_10  and  S_11
REMARK    5  A    between atoms: S_11  and  C_14
REMARK                            x       y       z     vdW  Elec       q    Type
REMARK                         _______ _______ _______ _____ _____    ______ ____
ROOT
ATOM      1  O   UNL     1       7.503   8.713  17.066  0.00  0.00    +0.000 OA
ATOM      2  C   UNL     1       8.115   8.351  18.061  0.00  0.00    +0.000 C 
ATOM      3  N   UNL     1       8.118   7.022  18.507  0.00  0.00    +0.000 N 
ATOM      4  H   UNL     1       8.606   6.750  19.353  0.00  0.00    +0.000 HD
ENDROOT
BRANCH   3   5
ATOM      5  S   UNL     1       7.374   5.747  17.744  0.00  0.00    +0.000 S 
ATOM      6  O   UNL     1       7.484   6.049  16.331  0.00  0.00    +0.000 OA
ATOM      7  O   UNL     1       7.886   4.495  18.262  0.00  0.00    +0.000 OA
BRANCH   5   8
ATOM      8  C   UNL     1       5.669   5.880  18.167  0.00  0.00    +0.000 A 
ATOM      9  C   UNL     1       5.158   5.250  19.300  0.00  0.00    +0.000 A 
ATOM     10  C   UNL     1       3.794   5.351  19.581  0.00  0.00    +0.000 A 
ATOM     11  C   UNL     1       3.006   6.116  18.737  0.00  0.00    +0.000 A 
ATOM     12  N   UNL     1       3.495   6.781  17.664  0.00  0.00    +0.000 NA
ATOM     13  C   UNL     1       4.819   6.651  17.399  0.00  0.00    +0.000 A 
ENDBRANCH   5   8
ENDBRANCH   3   5
BRANCH   2  14
ATOM     14  C   UNL     1       8.879   9.338  18.931  0.00  0.00    +0.000 C 
BRANCH  14  15
ATOM     15  C   UNL     1       9.179  10.686  18.262  0.00  0.00    +0.000 C 
BRANCH  15  16
ATOM     16  C   UNL     1       9.367  11.821  19.275  0.00  0.00    +0.000 C 
ATOM     17  C   UNL     1      10.256  11.449  20.456  0.00  0.00    +0.000 C 
ATOM     18  C   UNL     1      11.631  11.841  19.987  0.00  0.00    +0.000 C 
ATOM     19  C   UNL     1      11.335  13.067  19.168  0.00  0.00    +0.000 C 
ATOM     20  O   UNL     1      10.034  12.900  18.608  0.00  0.00    +0.000 OA
ENDBRANCH  15  16
ENDBRANCH  14  15
ENDBRANCH   2  14
TORSDOF 5
ENDMDL
