MODEL 1
REMARK VINA RESULT:      -8.1      0.000      0.000
REMARK  Name = 
REMARK  7 active torsions:
REMARK  status: ('A' for Active; 'I' for Inactive)
REMARK    1  A    between atoms: C_1  and  C_2
REMARK    2  A    between atoms: C_2  and  C_3
REMARK    3  A    between atoms: C_2  and  C_4
REMARK    4  A    between atoms: C_2  and  C_5
REMARK    5  A    between atoms: C_8  and  C_9
REMARK    6  A    between atoms: C_9  and  C_11
REMARK    7  A    between atoms: C_17  and  C_18
REMARK                            x       y       z     vdW  Elec       q    Type
REMARK                         _______ _______ _______ _____ _____    ______ ____
ROOT
ATOM      1  C   UNL     1       3.623   5.258  19.348  0.00  0.00    +0.000 C 
ATOM      2  O   UNL     1       4.772   5.583  19.641  0.00  0.00    +0.000 OA
ATOM      3  N   UNL     1       3.289   4.303  18.406  0.00  0.00    +0.000 N 
ATOM      4  C   UNL     1       1.950   3.876  18.047  0.00  0.00    +0.000 C 
ATOM      5  C   UNL     1       2.048   2.363  18.024  0.00  0.00    +0.000 C 
ATOM      6  C   UNL     1       3.464   2.101  17.519  0.00  0.00    +0.000 C 
ATOM      7  C   UNL     1       4.276   3.322  17.984  0.00  0.00    +0.000 C 
ENDROOT
BRANCH   7   8
ATOM      8  C   UNL     1       5.144   3.907  16.914  0.00  0.00    +0.000 A 
ATOM      9  C   UNL     1       4.911   4.243  15.593  0.00  0.00    +0.000 A 
ATOM     10  C   UNL     1       6.129   4.702  15.039  0.00  0.00    +0.000 A 
ATOM     11  C   UNL     1       7.070   4.671  16.040  0.00  0.00    +0.000 A 
ATOM     12  N   UNL     1       6.459   4.225  17.182  0.00  0.00    +0.000 N 
ATOM     13  H   UNL     1       6.893   4.156  18.097  0.00  0.00    +0.000 HD
ENDBRANCH   7   8
BRANCH   1  14
ATOM     14  C   UNL     1       2.493   5.855  20.171  0.00  0.00    +0.000 C 
ATOM     15  O   UNL     1       2.014   5.178  21.077  0.00  0.00    +0.000 OA
BRANCH  14  19
ATOM     16  C   UNL     1       1.009   9.851  19.525  0.00  0.00    +0.000 A 
ATOM     17  C   UNL     1       0.849   9.182  20.750  0.00  0.00    +0.000 A 
ATOM     18  C   UNL     1       1.339   7.886  20.941  0.00  0.00    +0.000 A 
ATOM     19  C   UNL     1       2.027   7.230  19.918  0.00  0.00    +0.000 A 
ATOM     20  C   UNL     1       2.205   7.866  18.692  0.00  0.00    +0.000 A 
ATOM     21  C   UNL     1       1.688   9.158  18.499  0.00  0.00    +0.000 A 
BRANCH  16  23
ATOM     22  C   UNL     1      -0.771  11.338  18.381  0.00  0.00    +0.000 C 
ATOM     23  C   UNL     1       0.476  11.280  19.294  0.00  0.00    +0.000 C 
ATOM     24  C   UNL     1       1.562  12.154  18.631  0.00  0.00    +0.000 C 
ATOM     25  C   UNL     1       0.079  11.915  20.644  0.00  0.00    +0.000 C 
ENDBRANCH  16  23
ENDBRANCH  14  19
ENDBRANCH   1  14
TORSDOF 4
ENDMDL
MODEL 2
REMARK VINA RESULT:      -8.0      0.169      1.338
REMARK  Name = 
REMARK  7 active torsions:
REMARK  status: ('A' for Active; 'I' for Inactive)
REMARK    1  A    between atoms: C_1  and  C_2
REMARK    2  A    between atoms: C_2  and  C_3
REMARK    3  A    between atoms: C_2  and  C_4
REMARK    4  A    between atoms: C_2  and  C_5
REMARK    5  A    between atoms: C_8  and  C_9
REMARK    6  A    between atoms: C_9  and  C_11
REMARK    7  A    between atoms: C_17  and  C_18
REMARK                            x       y       z     vdW  Elec       q    Type
REMARK                         _______ _______ _______ _____ _____    ______ ____
ROOT
ATOM      1  C   UNL     1       3.617   5.157  19.466  0.00  0.00    +0.000 C 
ATOM      2  O   UNL     1       4.764   5.470  19.781  0.00  0.00    +0.000 OA
ATOM      3  N   UNL     1       3.291   4.243  18.481  0.00  0.00    +0.000 N 
ATOM      4  C   UNL     1       1.955   3.831  18.094  0.00  0.00    +0.000 C 
ATOM      5  C   UNL     1       2.055   2.320  18.008  0.00  0.00    +0.000 C 
ATOM      6  C   UNL     1       3.474   2.082  17.502  0.00  0.00    +0.000 C 
ATOM      7  C   UNL     1       4.282   3.282  18.025  0.00  0.00    +0.000 C 
ENDROOT
BRANCH   7   8
ATOM      8  C   UNL     1       5.157   3.913  16.987  0.00  0.00    +0.000 A 
ATOM      9  C   UNL     1       4.929   4.320  15.685  0.00  0.00    +0.000 A 
ATOM     10  C   UNL     1       6.152   4.794  15.157  0.00  0.00    +0.000 A 
ATOM     11  C   UNL     1       7.092   4.701  16.155  0.00  0.00    +0.000 A 
ATOM     12  N   UNL     1       6.475   4.202  17.272  0.00  0.00    +0.000 N 
ATOM     13  H   UNL     1       6.907   4.081  18.182  0.00  0.00    +0.000 HD
ENDBRANCH   7   8
BRANCH   1  14
ATOM     14  C   UNL     1       2.481   5.717  20.306  0.00  0.00    +0.000 C 
ATOM     15  O   UNL     1       2.030   5.021  21.211  0.00  0.00    +0.000 OA
BRANCH  14  19
ATOM     16  C   UNL     1       1.122   9.731  19.514  0.00  0.00    +0.000 A 
ATOM     17  C   UNL     1       1.783   8.960  18.543  0.00  0.00    +0.000 A 
ATOM     18  C   UNL     1       2.215   7.658  18.818  0.00  0.00    +0.000 A 
ATOM     19  C   UNL     1       1.975   7.081  20.068  0.00  0.00    +0.000 A 
ATOM     20  C   UNL     1       1.320   7.818  21.051  0.00  0.00    +0.000 A 
ATOM     21  C   UNL     1       0.911   9.134  20.776  0.00  0.00    +0.000 A 
BRANCH  16  23
ATOM     22  C   UNL     1       0.287  11.969  20.506  0.00  0.00    +0.000 C 
ATOM     23  C   UNL     1       0.637  11.168  19.229  0.00  0.00    +0.000 C 
ATOM     24  C   UNL     1      -0.633  11.139  18.352  0.00  0.00    +0.000 C 
ATOM     25  C   UNL     1       1.739  11.956  18.489  0.00  0.00    +0.000 C 
ENDBRANCH  16  23
ENDBRANCH  14  19
ENDBRANCH   1  14
TORSDOF 4
ENDMDL
MODEL 3
REMARK VINA RESULT:      -7.8      2.842      7.592
REMARK  Name = 
REMARK  7 active torsions:
REMARK  status: ('A' for Active; 'I' for Inactive)
REMARK    1  A    between atoms: C_1  and  C_2
REMARK    2  A    between atoms: C_2  and  C_3
REMARK    3  A    between atoms: C_2  and  C_4
REMARK    4  A    between atoms: C_2  and  C_5
REMARK    5  A    between atoms: C_8  and  C_9
REMARK    6  A    between atoms: C_9  and  C_11
REMARK    7  A    between atoms: C_17  and  C_18
REMARK                            x       y       z     vdW  Elec       q    Type
REMARK                         _______ _______ _______ _____ _____    ______ ____
ROOT
ATOM      1  C   UNL     1       5.308   4.735  18.752  0.00  0.00    +0.000 C 
ATOM      2  O   UNL     1       5.527   3.978  19.696  0.00  0.00    +0.000 OA
ATOM      3  N   UNL     1       4.137   5.446  18.565  0.00  0.00    +0.000 N 
ATOM      4  C   UNL     1       3.848   6.363  17.480  0.00  0.00    +0.000 C 
ATOM      5  C   UNL     1       3.244   7.567  18.175  0.00  0.00    +0.000 C 
ATOM      6  C   UNL     1       2.473   6.960  19.343  0.00  0.00    +0.000 C 
ATOM      7  C   UNL     1       3.236   5.668  19.684  0.00  0.00    +0.000 C 
ENDROOT
BRANCH   7   8
ATOM      8  C   UNL     1       2.347   4.476  19.861  0.00  0.00    +0.000 A 
ATOM      9  C   UNL     1       1.348   3.924  19.082  0.00  0.00    +0.000 A 
ATOM     10  C   UNL     1       0.801   2.827  19.786  0.00  0.00    +0.000 A 
ATOM     11  C   UNL     1       1.500   2.709  20.964  0.00  0.00    +0.000 A 
ATOM     12  N   UNL     1       2.459   3.687  20.987  0.00  0.00    +0.000 N 
ATOM     13  H   UNL     1       3.164   3.808  21.707  0.00  0.00    +0.000 HD
ENDBRANCH   7   8
BRANCH   1  14
ATOM     14  C   UNL     1       6.453   5.007  17.791  0.00  0.00    +0.000 C 
ATOM     15  O   UNL     1       7.463   5.552  18.230  0.00  0.00    +0.000 OA
BRANCH  14  19
ATOM     16  C   UNL     1       6.242   3.897  13.630  0.00  0.00    +0.000 A 
ATOM     17  C   UNL     1       7.144   4.866  14.101  0.00  0.00    +0.000 A 
ATOM     18  C   UNL     1       7.199   5.211  15.456  0.00  0.00    +0.000 A 
ATOM     19  C   UNL     1       6.368   4.578  16.383  0.00  0.00    +0.000 A 
ATOM     20  C   UNL     1       5.465   3.611  15.949  0.00  0.00    +0.000 A 
ATOM     21  C   UNL     1       5.397   3.287  14.584  0.00  0.00    +0.000 A 
BRANCH  16  23
ATOM     22  C   UNL     1       6.664   2.066  11.854  0.00  0.00    +0.000 C 
ATOM     23  C   UNL     1       6.166   3.502  12.141  0.00  0.00    +0.000 C 
ATOM     24  C   UNL     1       7.031   4.457  11.290  0.00  0.00    +0.000 C 
ATOM     25  C   UNL     1       4.705   3.581  11.651  0.00  0.00    +0.000 C 
ENDBRANCH  16  23
ENDBRANCH  14  19
ENDBRANCH   1  14
TORSDOF 4
ENDMDL
MODEL 4
REMARK VINA RESULT:      -7.6      2.796      7.555
REMARK  Name = 
REMARK  7 active torsions:
REMARK  status: ('A' for Active; 'I' for Inactive)
REMARK    1  A    between atoms: C_1  and  C_2
REMARK    2  A    between atoms: C_2  and  C_3
REMARK    3  A    between atoms: C_2  and  C_4
REMARK    4  A    between atoms: C_2  and  C_5
REMARK    5  A    between atoms: C_8  and  C_9
REMARK    6  A    between atoms: C_9  and  C_11
REMARK    7  A    between atoms: C_17  and  C_18
REMARK                            x       y       z     vdW  Elec       q    Type
REMARK                         _______ _______ _______ _____ _____    ______ ____
ROOT
ATOM      1  C   UNL     1       5.303   4.883  18.646  0.00  0.00    +0.000 C 
ATOM      2  O   UNL     1       5.569   4.074  19.533  0.00  0.00    +0.000 OA
ATOM      3  N   UNL     1       4.107   5.568  18.535  0.00  0.00    +0.000 N 
ATOM      4  C   UNL     1       3.761   6.542  17.519  0.00  0.00    +0.000 C 
ATOM      5  C   UNL     1       3.141   7.680  18.306  0.00  0.00    +0.000 C 
ATOM      6  C   UNL     1       2.420   6.975  19.451  0.00  0.00    +0.000 C 
ATOM      7  C   UNL     1       3.230   5.689  19.688  0.00  0.00    +0.000 C 
ENDROOT
BRANCH   7   8
ATOM      8  C   UNL     1       2.382   4.461  19.810  0.00  0.00    +0.000 A 
ATOM      9  C   UNL     1       1.320   3.974  19.070  0.00  0.00    +0.000 A 
ATOM     10  C   UNL     1       0.863   2.789  19.691  0.00  0.00    +0.000 A 
ATOM     11  C   UNL     1       1.676   2.557  20.776  0.00  0.00    +0.000 A 
ATOM     12  N   UNL     1       2.616   3.552  20.820  0.00  0.00    +0.000 N 
ATOM     13  H   UNL     1       3.386   3.609  21.479  0.00  0.00    +0.000 HD
ENDBRANCH   7   8
BRANCH   1  14
ATOM     14  C   UNL     1       6.413   5.252  17.677  0.00  0.00    +0.000 C 
ATOM     15  O   UNL     1       7.387   5.860  18.113  0.00  0.00    +0.000 OA
BRANCH  14  19
ATOM     16  C   UNL     1       6.159   3.906  13.588  0.00  0.00    +0.000 A 
ATOM     17  C   UNL     1       5.302   3.421  14.591  0.00  0.00    +0.000 A 
ATOM     18  C   UNL     1       5.399   3.871  15.912  0.00  0.00    +0.000 A 
ATOM     19  C   UNL     1       6.341   4.840  16.263  0.00  0.00    +0.000 A 
ATOM     20  C   UNL     1       7.204   5.344  15.292  0.00  0.00    +0.000 A 
ATOM     21  C   UNL     1       7.117   4.869  13.973  0.00  0.00    +0.000 A 
BRANCH  16  23
ATOM     22  C   UNL     1       4.652   3.553  11.517  0.00  0.00    +0.000 C 
ATOM     23  C   UNL     1       6.068   3.423  12.126  0.00  0.00    +0.000 C 
ATOM     24  C   UNL     1       6.465   1.934  12.030  0.00  0.00    +0.000 C 
ATOM     25  C   UNL     1       7.020   4.252  11.239  0.00  0.00    +0.000 C 
ENDBRANCH  16  23
ENDBRANCH  14  19
ENDBRANCH   1  14
TORSDOF 4
ENDMDL
MODEL 5
REMARK VINA RESULT:      -7.5      2.832      7.620
REMARK  Name = 
REMARK  7 active torsions:
REMARK  status: ('A' for Active; 'I' for Inactive)
REMARK    1  A    between atoms: C_1  and  C_2
REMARK    2  A    between atoms: C_2  and  C_3
REMARK    3  A    between atoms: C_2  and  C_4
REMARK    4  A    between atoms: C_2  and  C_5
REMARK    5  A    between atoms: C_8  and  C_9
REMARK    6  A    between atoms: C_9  and  C_11
REMARK    7  A    between atoms: C_17  and  C_18
REMARK                            x       y       z     vdW  Elec       q    Type
REMARK                         _______ _______ _______ _____ _____    ______ ____
ROOT
ATOM      1  C   UNL     1       5.314   4.792  18.757  0.00  0.00    +0.000 C 
ATOM      2  O   UNL     1       5.541   4.068  19.725  0.00  0.00    +0.000 OA
ATOM      3  N   UNL     1       4.136   5.486  18.550  0.00  0.00    +0.000 N 
ATOM      4  C   UNL     1       3.836   6.364  17.436  0.00  0.00    +0.000 C 
ATOM      5  C   UNL     1       3.224   7.586  18.094  0.00  0.00    +0.000 C 
ATOM      6  C   UNL     1       2.460   7.009  19.283  0.00  0.00    +0.000 C 
ATOM      7  C   UNL     1       3.236   5.736  19.664  0.00  0.00    +0.000 C 
ENDROOT
BRANCH   7   8
ATOM      8  C   UNL     1       2.358   4.543  19.882  0.00  0.00    +0.000 A 
ATOM      9  C   UNL     1       2.069   3.780  20.998  0.00  0.00    +0.000 A 
ATOM     10  C   UNL     1       1.214   2.727  20.596  0.00  0.00    +0.000 A 
ATOM     11  C   UNL     1       0.970   2.889  19.253  0.00  0.00    +0.000 A 
ATOM     12  N   UNL     1       1.635   4.012  18.834  0.00  0.00    +0.000 N 
ATOM     13  H   UNL     1       1.591   4.412  17.903  0.00  0.00    +0.000 HD
ENDBRANCH   7   8
BRANCH   1  14
ATOM     14  C   UNL     1       6.455   5.043  17.785  0.00  0.00    +0.000 C 
ATOM     15  O   UNL     1       7.473   5.582  18.210  0.00  0.00    +0.000 OA
BRANCH  14  19
ATOM     16  C   UNL     1       6.198   3.893  13.637  0.00  0.00    +0.000 A 
ATOM     17  C   UNL     1       7.101   4.871  14.088  0.00  0.00    +0.000 A 
ATOM     18  C   UNL     1       7.171   5.229  15.439  0.00  0.00    +0.000 A 
ATOM     19  C   UNL     1       6.355   4.600  16.382  0.00  0.00    +0.000 A 
ATOM     20  C   UNL     1       5.452   3.624  15.968  0.00  0.00    +0.000 A 
ATOM     21  C   UNL     1       5.369   3.287  14.607  0.00  0.00    +0.000 A 
BRANCH  16  23
ATOM     22  C   UNL     1       6.983   4.348  11.215  0.00  0.00    +0.000 C 
ATOM     23  C   UNL     1       6.107   3.483  12.153  0.00  0.00    +0.000 C 
ATOM     24  C   UNL     1       4.651   3.608  11.653  0.00  0.00    +0.000 C 
ATOM     25  C   UNL     1       6.569   2.020  11.983  0.00  0.00    +0.000 C 
ENDBRANCH  16  23
ENDBRANCH  14  19
ENDBRANCH   1  14
TORSDOF 4
ENDMDL
MODEL 6
REMARK VINA RESULT:      -7.2      4.080      6.215
REMARK  Name = 
REMARK  7 active torsions:
REMARK  status: ('A' for Active; 'I' for Inactive)
REMARK    1  A    between atoms: C_1  and  C_2
REMARK    2  A    between atoms: C_2  and  C_3
REMARK    3  A    between atoms: C_2  and  C_4
REMARK    4  A    between atoms: C_2  and  C_5
REMARK    5  A    between atoms: C_8  and  C_9
REMARK    6  A    between atoms: C_9  and  C_11
REMARK    7  A    between atoms: C_17  and  C_18
REMARK                            x       y       z     vdW  Elec       q    Type
REMARK                         _______ _______ _______ _____ _____    ______ ____
ROOT
ATOM      1  C   UNL     1       5.758   5.195  18.289  0.00  0.00    +0.000 C 
ATOM      2  O   UNL     1       5.978   4.379  19.183  0.00  0.00    +0.000 OA
ATOM      3  N   UNL     1       4.519   5.736  18.002  0.00  0.00    +0.000 N 
ATOM      4  C   UNL     1       4.221   6.713  16.973  0.00  0.00    +0.000 C 
ATOM      5  C   UNL     1       3.343   7.727  17.681  0.00  0.00    +0.000 C 
ATOM      6  C   UNL     1       2.541   6.882  18.666  0.00  0.00    +0.000 C 
ATOM      7  C   UNL     1       3.458   5.691  18.995  0.00  0.00    +0.000 C 
ENDROOT
BRANCH   7   8
ATOM      8  C   UNL     1       2.765   4.366  18.935  0.00  0.00    +0.000 A 
ATOM      9  C   UNL     1       1.814   3.840  18.080  0.00  0.00    +0.000 A 
ATOM     10  C   UNL     1       1.475   2.549  18.547  0.00  0.00    +0.000 A 
ATOM     11  C   UNL     1       2.249   2.299  19.655  0.00  0.00    +0.000 A 
ATOM     12  N   UNL     1       3.055   3.387  19.863  0.00  0.00    +0.000 N 
ATOM     13  H   UNL     1       3.774   3.463  20.574  0.00  0.00    +0.000 HD
ENDBRANCH   7   8
BRANCH   1  14
ATOM     14  C   UNL     1       6.955   5.744  17.530  0.00  0.00    +0.000 C 
ATOM     15  O   UNL     1       7.384   5.100  16.577  0.00  0.00    +0.000 OA
BRANCH  14  19
ATOM     16  C   UNL     1       8.687   9.579  18.468  0.00  0.00    +0.000 A 
ATOM     17  C   UNL     1       7.809   9.399  17.386  0.00  0.00    +0.000 A 
ATOM     18  C   UNL     1       7.255   8.147  17.099  0.00  0.00    +0.000 A 
ATOM     19  C   UNL     1       7.546   7.042  17.903  0.00  0.00    +0.000 A 
ATOM     20  C   UNL     1       8.410   7.188  18.984  0.00  0.00    +0.000 A 
ATOM     21  C   UNL     1       8.982   8.443  19.252  0.00  0.00    +0.000 A 
BRANCH  16  23
ATOM     22  C   UNL     1       8.518  12.148  18.216  0.00  0.00    +0.000 C 
ATOM     23  C   UNL     1       9.307  10.952  18.801  0.00  0.00    +0.000 C 
ATOM     24  C   UNL     1      10.742  11.040  18.240  0.00  0.00    +0.000 C 
ATOM     25  C   UNL     1       9.356  11.147  20.332  0.00  0.00    +0.000 C 
ENDBRANCH  16  23
ENDBRANCH  14  19
ENDBRANCH   1  14
TORSDOF 4
ENDMDL
MODEL 7
REMARK VINA RESULT:      -7.1      4.083      6.204
REMARK  Name = 
REMARK  7 active torsions:
REMARK  status: ('A' for Active; 'I' for Inactive)
REMARK    1  A    between atoms: C_1  and  C_2
REMARK    2  A    between atoms: C_2  and  C_3
REMARK    3  A    between atoms: C_2  and  C_4
REMARK    4  A    between atoms: C_2  and  C_5
REMARK    5  A    between atoms: C_8  and  C_9
REMARK    6  A    between atoms: C_9  and  C_11
REMARK    7  A    between atoms: C_17  and  C_18
REMARK                            x       y       z     vdW  Elec       q    Type
REMARK                         _______ _______ _______ _____ _____    ______ ____
ROOT
ATOM      1  C   UNL     1       5.755   5.257  18.428  0.00  0.00    +0.000 C 
ATOM      2  O   UNL     1       5.989   4.509  19.376  0.00  0.00    +0.000 OA
ATOM      3  N   UNL     1       4.515   5.791  18.131  0.00  0.00    +0.000 N 
ATOM      4  C   UNL     1       4.202   6.691  17.038  0.00  0.00    +0.000 C 
ATOM      5  C   UNL     1       3.353   7.766  17.689  0.00  0.00    +0.000 C 
ATOM      6  C   UNL     1       2.567   7.008  18.755  0.00  0.00    +0.000 C 
ATOM      7  C   UNL     1       3.480   5.834  19.151  0.00  0.00    +0.000 C 
ENDROOT
BRANCH   7   8
ATOM      8  C   UNL     1       2.770   4.517  19.208  0.00  0.00    +0.000 A 
ATOM      9  C   UNL     1       1.803   3.935  18.411  0.00  0.00    +0.000 A 
ATOM     10  C   UNL     1       1.455   2.691  18.986  0.00  0.00    +0.000 A 
ATOM     11  C   UNL     1       2.242   2.522  20.101  0.00  0.00    +0.000 A 
ATOM     12  N   UNL     1       3.062   3.614  20.209  0.00  0.00    +0.000 N 
ATOM     13  H   UNL     1       3.791   3.740  20.903  0.00  0.00    +0.000 HD
ENDBRANCH   7   8
BRANCH   1  14
ATOM     14  C   UNL     1       6.939   5.732  17.602  0.00  0.00    +0.000 C 
ATOM     15  O   UNL     1       7.351   5.003  16.704  0.00  0.00    +0.000 OA
BRANCH  14  19
ATOM     16  C   UNL     1       8.683   9.581  18.459  0.00  0.00    +0.000 A 
ATOM     17  C   UNL     1       8.950   8.447  19.244  0.00  0.00    +0.000 A 
ATOM     18  C   UNL     1       8.376   7.206  18.949  0.00  0.00    +0.000 A 
ATOM     19  C   UNL     1       7.536   7.058  17.843  0.00  0.00    +0.000 A 
ATOM     20  C   UNL     1       7.254   8.162  17.042  0.00  0.00    +0.000 A 
ATOM     21  C   UNL     1       7.814   9.411  17.359  0.00  0.00    +0.000 A 
BRANCH  16  23
ATOM     22  C   UNL     1       8.578  12.137  18.083  0.00  0.00    +0.000 C 
ATOM     23  C   UNL     1       9.307  10.958  18.767  0.00  0.00    +0.000 C 
ATOM     24  C   UNL     1      10.775  10.997  18.290  0.00  0.00    +0.000 C 
ATOM     25  C   UNL     1       9.269  11.222  20.287  0.00  0.00    +0.000 C 
ENDBRANCH  16  23
ENDBRANCH  14  19
ENDBRANCH   1  14
TORSDOF 4
ENDMDL
MODEL 8
REMARK VINA RESULT:      -7.1      3.333      8.194
REMARK  Name = 
REMARK  7 active torsions:
REMARK  status: ('A' for Active; 'I' for Inactive)
REMARK    1  A    between atoms: C_1  and  C_2
REMARK    2  A    between atoms: C_2  and  C_3
REMARK    3  A    between atoms: C_2  and  C_4
REMARK    4  A    between atoms: C_2  and  C_5
REMARK    5  A    between atoms: C_8  and  C_9
REMARK    6  A    between atoms: C_9  and  C_11
REMARK    7  A    between atoms: C_17  and  C_18
REMARK                            x       y       z     vdW  Elec       q    Type
REMARK                         _______ _______ _______ _____ _____    ______ ____
ROOT
ATOM      1  C   UNL     1      -0.266  10.271  20.034  0.00  0.00    +0.000 C 
ATOM      2  O   UNL     1      -1.355   9.879  20.451  0.00  0.00    +0.000 OA
ATOM      3  N   UNL     1      -0.092  11.313  19.141  0.00  0.00    +0.000 N 
ATOM      4  C   UNL     1       1.172  11.819  18.642  0.00  0.00    +0.000 C 
ATOM      5  C   UNL     1       1.031  13.324  18.765  0.00  0.00    +0.000 C 
ATOM      6  C   UNL     1      -0.447  13.572  18.482  0.00  0.00    +0.000 C 
ATOM      7  C   UNL     1      -1.154  12.286  18.945  0.00  0.00    +0.000 C 
ENDROOT
BRANCH   7   8
ATOM      8  C   UNL     1      -2.146  11.759  17.956  0.00  0.00    +0.000 A 
ATOM      9  C   UNL     1      -3.452  11.320  18.076  0.00  0.00    +0.000 A 
ATOM     10  C   UNL     1      -3.880  10.871  16.806  0.00  0.00    +0.000 A 
ATOM     11  C   UNL     1      -2.841  11.077  15.929  0.00  0.00    +0.000 A 
ATOM     12  N   UNL     1      -1.808  11.650  16.623  0.00  0.00    +0.000 N 
ATOM     13  H   UNL     1      -0.932  11.969  16.223  0.00  0.00    +0.000 HD
ENDBRANCH   7   8
BRANCH   1  14
ATOM     14  C   UNL     1       0.982   9.653  20.640  0.00  0.00    +0.000 C 
ATOM     15  O   UNL     1       1.476  10.191  21.627  0.00  0.00    +0.000 OA
BRANCH  14  19
ATOM     16  C   UNL     1       2.587   6.060  18.877  0.00  0.00    +0.000 A 
ATOM     17  C   UNL     1       2.554   7.283  18.186  0.00  0.00    +0.000 A 
ATOM     18  C   UNL     1       2.031   8.439  18.775  0.00  0.00    +0.000 A 
ATOM     19  C   UNL     1       1.548   8.409  20.086  0.00  0.00    +0.000 A 
ATOM     20  C   UNL     1       1.569   7.214  20.799  0.00  0.00    +0.000 A 
ATOM     21  C   UNL     1       2.072   6.051  20.192  0.00  0.00    +0.000 A 
BRANCH  16  23
ATOM     22  C   UNL     1       3.888   3.858  19.255  0.00  0.00    +0.000 C 
ATOM     23  C   UNL     1       3.160   4.776  18.244  0.00  0.00    +0.000 C 
ATOM     24  C   UNL     1       4.182   5.133  17.142  0.00  0.00    +0.000 C 
ATOM     25  C   UNL     1       2.020   3.945  17.618  0.00  0.00    +0.000 C 
ENDBRANCH  16  23
ENDBRANCH  14  19
ENDBRANCH   1  14
TORSDOF 4
ENDMDL
MODEL 9
REMARK VINA RESULT:      -7.0      4.071      6.256
REMARK  Name = 
REMARK  7 active torsions:
REMARK  status: ('A' for Active; 'I' for Inactive)
REMARK    1  A    between atoms: C_1  and  C_2
REMARK    2  A    between atoms: C_2  and  C_3
REMARK    3  A    between atoms: C_2  and  C_4
REMARK    4  A    between atoms: C_2  and  C_5
REMARK    5  A    between atoms: C_8  and  C_9
REMARK    6  A    between atoms: C_9  and  C_11
REMARK    7  A    between atoms: C_17  and  C_18
REMARK                            x       y       z     vdW  Elec       q    Type
REMARK                         _______ _______ _______ _____ _____    ______ ____
ROOT
ATOM      1  C   UNL     1       5.877   5.112  18.497  0.00  0.00    +0.000 C 
ATOM      2  O   UNL     1       6.147   4.380  19.447  0.00  0.00    +0.000 OA
ATOM      3  N   UNL     1       4.609   5.569  18.189  0.00  0.00    +0.000 N 
ATOM      4  C   UNL     1       4.251   6.448  17.092  0.00  0.00    +0.000 C 
ATOM      5  C   UNL     1       3.333   7.471  17.734  0.00  0.00    +0.000 C 
ATOM      6  C   UNL     1       2.585   6.667  18.795  0.00  0.00    +0.000 C 
ATOM      7  C   UNL     1       3.564   5.551  19.200  0.00  0.00    +0.000 C 
ENDROOT
BRANCH   7   8
ATOM      8  C   UNL     1       2.935   4.194  19.253  0.00  0.00    +0.000 A 
ATOM      9  C   UNL     1       1.823   3.697  19.907  0.00  0.00    +0.000 A 
ATOM     10  C   UNL     1       1.743   2.311  19.640  0.00  0.00    +0.000 A 
ATOM     11  C   UNL     1       2.786   1.996  18.801  0.00  0.00    +0.000 A 
ATOM     12  N   UNL     1       3.482   3.146  18.541  0.00  0.00    +0.000 N 
ATOM     13  H   UNL     1       4.268   3.231  17.905  0.00  0.00    +0.000 HD
ENDBRANCH   7   8
BRANCH   1  14
ATOM     14  C   UNL     1       7.036   5.658  17.680  0.00  0.00    +0.000 C 
ATOM     15  O   UNL     1       7.455   4.983  16.743  0.00  0.00    +0.000 OA
BRANCH  14  19
ATOM     16  C   UNL     1       8.690   9.575  18.392  0.00  0.00    +0.000 A 
ATOM     17  C   UNL     1       7.805   9.318  17.332  0.00  0.00    +0.000 A 
ATOM     18  C   UNL     1       7.277   8.041  17.118  0.00  0.00    +0.000 A 
ATOM     19  C   UNL     1       7.601   6.987  17.975  0.00  0.00    +0.000 A 
ATOM     20  C   UNL     1       8.473   7.209  19.038  0.00  0.00    +0.000 A 
ATOM     21  C   UNL     1       9.019   8.489  19.232  0.00  0.00    +0.000 A 
BRANCH  16  23
ATOM     22  C   UNL     1      10.744  11.129  18.164  0.00  0.00    +0.000 C 
ATOM     23  C   UNL     1       9.282  10.977  18.645  0.00  0.00    +0.000 C 
ATOM     24  C   UNL     1       9.268  11.298  20.156  0.00  0.00    +0.000 C 
ATOM     25  C   UNL     1       8.447  12.041  17.901  0.00  0.00    +0.000 C 
ENDBRANCH  16  23
ENDBRANCH  14  19
ENDBRANCH   1  14
TORSDOF 4
ENDMDL
