MODEL 1
REMARK VINA RESULT:      -8.8      0.000      0.000
REMARK  Name = 
REMARK  6 active torsions:
REMARK  status: ('A' for Active; 'I' for Inactive)
REMARK    1  A    between atoms: C_2  and  C_3
REMARK    2  A    between atoms: C_3  and  C_4
REMARK    3  A    between atoms: C_15  and  C_17
REMARK    4  A    between atoms: C_17  and  O_18
REMARK    5  A    between atoms: O_18  and  C_19
REMARK    6  A    between atoms: N_26  and  C_27
REMARK                            x       y       z     vdW  Elec       q    Type
REMARK                         _______ _______ _______ _____ _____    ______ ____
ROOT
ATOM      1  C   UNL     1       3.538   4.646  17.541  0.00  0.00    +0.000 C 
ATOM      2  C   UNL     1       2.634   3.517  17.030  0.00  0.00    +0.000 C 
ATOM      3  O   UNL     1       2.599   3.175  15.849  0.00  0.00    +0.000 OA
ATOM      4  N   UNL     1       1.995   2.777  17.989  0.00  0.00    +0.000 N 
ATOM      5  C   UNL     1       2.008   3.125  19.345  0.00  0.00    +0.000 A 
ATOM      6  C   UNL     1       1.501   2.220  20.277  0.00  0.00    +0.000 A 
ATOM      7  C   UNL     1       1.535   2.532  21.635  0.00  0.00    +0.000 A 
ATOM      8  C   UNL     1       2.105   3.734  22.054  0.00  0.00    +0.000 A 
ATOM      9  C   UNL     1       2.600   4.638  21.116  0.00  0.00    +0.000 A 
ATOM     10  C   UNL     1       2.506   4.378  19.749  0.00  0.00    +0.000 A 
ATOM     11  N   UNL     1       2.940   5.294  18.741  0.00  0.00    +0.000 N 
ATOM     12  C   UNL     1       2.862   6.687  18.775  0.00  0.00    +0.000 C 
ATOM     13  O   UNL     1       3.330   7.370  17.855  0.00  0.00    +0.000 OA
ATOM     14  H   UNL     1       1.540   1.929  17.674  0.00  0.00    +0.000 HD
ENDROOT
BRANCH   1  15
ATOM     15  C   UNL     1       4.939   4.131  17.898  0.00  0.00    +0.000 C 
BRANCH  15  17
ATOM     16  O   UNL     1       7.144   4.234  17.047  0.00  0.00    +0.000 OA
ATOM     17  C   UNL     1       5.946   4.233  16.777  0.00  0.00    +0.000 C 
ATOM     18  N   UNL     1       5.389   4.379  15.522  0.00  0.00    +0.000 N 
ATOM     19  H   UNL     1       4.395   4.563  15.461  0.00  0.00    +0.000 HD
BRANCH  18  20
ATOM     20  C   UNL     1       6.098   4.393  14.298  0.00  0.00    +0.000 A 
ATOM     21  C   UNL     1       7.182   5.241  14.051  0.00  0.00    +0.000 A 
ATOM     22  C   UNL     1       7.860   5.195  12.829  0.00  0.00    +0.000 A 
ATOM     23  C   UNL     1       7.459   4.302  11.841  0.00  0.00    +0.000 A 
ATOM     24  C   UNL     1       6.380   3.452  12.075  0.00  0.00    +0.000 A 
ATOM     25  C   UNL     1       5.708   3.492  13.302  0.00  0.00    +0.000 A 
ENDBRANCH  18  20
ENDBRANCH  15  17
ENDBRANCH   1  15
BRANCH  12  26
ATOM     26  C   UNL     1       2.143   7.395  19.931  0.00  0.00    +0.000 C 
BRANCH  26  27
ATOM     27  O   UNL     1       1.543   8.576  19.403  0.00  0.00    +0.000 OA
BRANCH  27  28
ATOM     28  C   UNL     1       0.823   9.372  20.249  0.00  0.00    +0.000 A 
ATOM     29  C   UNL     1       0.569  10.732  20.082  0.00  0.00    +0.000 A 
ATOM     30  C   UNL     1      -0.180  11.427  21.040  0.00  0.00    +0.000 A 
ATOM     31  C   UNL     1      -0.672  10.761  22.161  0.00  0.00    +0.000 A 
ATOM     32 CL   UNL     1      -1.564  11.628  23.349  0.00  0.00    +0.000 Cl
ATOM     33  C   UNL     1      -0.438   9.400  22.327  0.00  0.00    +0.000 A 
ATOM     34  C   UNL     1       0.308   8.709  21.370  0.00  0.00    +0.000 A 
ENDBRANCH  27  28
ENDBRANCH  26  27
ENDBRANCH  12  26
TORSDOF 6
ENDMDL
MODEL 2
REMARK VINA RESULT:      -8.5      0.270      1.226
REMARK  Name = 
REMARK  6 active torsions:
REMARK  status: ('A' for Active; 'I' for Inactive)
REMARK    1  A    between atoms: C_2  and  C_3
REMARK    2  A    between atoms: C_3  and  C_4
REMARK    3  A    between atoms: C_15  and  C_17
REMARK    4  A    between atoms: C_17  and  O_18
REMARK    5  A    between atoms: O_18  and  C_19
REMARK    6  A    between atoms: N_26  and  C_27
REMARK                            x       y       z     vdW  Elec       q    Type
REMARK                         _______ _______ _______ _____ _____    ______ ____
ROOT
ATOM      1  C   UNL     1       3.448   4.682  17.600  0.00  0.00    +0.000 C 
ATOM      2  C   UNL     1       2.522   3.577  17.078  0.00  0.00    +0.000 C 
ATOM      3  O   UNL     1       2.461   3.265  15.890  0.00  0.00    +0.000 OA
ATOM      4  N   UNL     1       1.890   2.821  18.030  0.00  0.00    +0.000 N 
ATOM      5  C   UNL     1       1.931   3.135  19.394  0.00  0.00    +0.000 A 
ATOM      6  C   UNL     1       1.430   2.213  20.312  0.00  0.00    +0.000 A 
ATOM      7  C   UNL     1       1.493   2.491  21.677  0.00  0.00    +0.000 A 
ATOM      8  C   UNL     1       2.084   3.675  22.115  0.00  0.00    +0.000 A 
ATOM      9  C   UNL     1       2.573   4.596  21.190  0.00  0.00    +0.000 A 
ATOM     10  C   UNL     1       2.453   4.372  19.819  0.00  0.00    +0.000 A 
ATOM     11  N   UNL     1       2.880   5.307  18.827  0.00  0.00    +0.000 N 
ATOM     12  C   UNL     1       2.819   6.700  18.897  0.00  0.00    +0.000 C 
ATOM     13  O   UNL     1       3.279   7.400  17.985  0.00  0.00    +0.000 OA
ATOM     14  H   UNL     1       1.420   1.987  17.702  0.00  0.00    +0.000 HD
ENDROOT
BRANCH   1  15
ATOM     15  C   UNL     1       4.849   4.142  17.920  0.00  0.00    +0.000 C 
BRANCH  15  17
ATOM     16  O   UNL     1       7.031   4.381  17.038  0.00  0.00    +0.000 OA
ATOM     17  C   UNL     1       5.836   4.258  16.782  0.00  0.00    +0.000 C 
ATOM     18  N   UNL     1       5.262   4.272  15.527  0.00  0.00    +0.000 N 
ATOM     19  H   UNL     1       4.255   4.364  15.466  0.00  0.00    +0.000 HD
BRANCH  18  20
ATOM     20  C   UNL     1       5.960   4.268  14.297  0.00  0.00    +0.000 A 
ATOM     21  C   UNL     1       5.594   3.467  13.211  0.00  0.00    +0.000 A 
ATOM     22  C   UNL     1       6.308   3.521  12.011  0.00  0.00    +0.000 A 
ATOM     23  C   UNL     1       7.397   4.377  11.884  0.00  0.00    +0.000 A 
ATOM     24  C   UNL     1       7.771   5.182  12.959  0.00  0.00    +0.000 A 
ATOM     25  C   UNL     1       7.051   5.133  14.157  0.00  0.00    +0.000 A 
ENDBRANCH  18  20
ENDBRANCH  15  17
ENDBRANCH   1  15
BRANCH  12  26
ATOM     26  C   UNL     1       2.130   7.387  20.082  0.00  0.00    +0.000 C 
BRANCH  26  27
ATOM     27  O   UNL     1       1.415   8.510  19.570  0.00  0.00    +0.000 OA
BRANCH  27  28
ATOM     28  C   UNL     1       0.784   9.336  20.457  0.00  0.00    +0.000 A 
ATOM     29  C   UNL     1       0.133   8.944  21.626  0.00  0.00    +0.000 A 
ATOM     30  C   UNL     1      -0.483   9.904  22.438  0.00  0.00    +0.000 A 
ATOM     31  C   UNL     1      -0.447  11.252  22.081  0.00  0.00    +0.000 A 
ATOM     32 CL   UNL     1      -1.233  12.420  23.068  0.00  0.00    +0.000 Cl
ATOM     33  C   UNL     1       0.216  11.652  20.925  0.00  0.00    +0.000 A 
ATOM     34  C   UNL     1       0.830  10.694  20.117  0.00  0.00    +0.000 A 
ENDBRANCH  27  28
ENDBRANCH  26  27
ENDBRANCH  12  26
TORSDOF 6
ENDMDL
MODEL 3
REMARK VINA RESULT:      -8.4      1.140      1.432
REMARK  Name = 
REMARK  6 active torsions:
REMARK  status: ('A' for Active; 'I' for Inactive)
REMARK    1  A    between atoms: C_2  and  C_3
REMARK    2  A    between atoms: C_3  and  C_4
REMARK    3  A    between atoms: C_15  and  C_17
REMARK    4  A    between atoms: C_17  and  O_18
REMARK    5  A    between atoms: O_18  and  C_19
REMARK    6  A    between atoms: N_26  and  C_27
REMARK                            x       y       z     vdW  Elec       q    Type
REMARK                         _______ _______ _______ _____ _____    ______ ____
ROOT
ATOM      1  C   UNL     1       3.534   4.736  17.523  0.00  0.00    +0.000 C 
ATOM      2  C   UNL     1       2.710   3.542  17.025  0.00  0.00    +0.000 C 
ATOM      3  O   UNL     1       2.722   3.167  15.854  0.00  0.00    +0.000 OA
ATOM      4  N   UNL     1       2.093   2.791  17.991  0.00  0.00    +0.000 N 
ATOM      5  C   UNL     1       2.053   3.177  19.336  0.00  0.00    +0.000 A 
ATOM      6  C   UNL     1       1.579   2.269  20.282  0.00  0.00    +0.000 A 
ATOM      7  C   UNL     1       1.563   2.619  21.631  0.00  0.00    +0.000 A 
ATOM      8  C   UNL     1       2.052   3.864  22.028  0.00  0.00    +0.000 A 
ATOM      9  C   UNL     1       2.515   4.769  21.075  0.00  0.00    +0.000 A 
ATOM     10  C   UNL     1       2.469   4.468  19.714  0.00  0.00    +0.000 A 
ATOM     11  N   UNL     1       2.871   5.380  18.691  0.00  0.00    +0.000 N 
ATOM     12  C   UNL     1       2.711   6.766  18.684  0.00  0.00    +0.000 C 
ATOM     13  O   UNL     1       3.160   7.450  17.754  0.00  0.00    +0.000 OA
ATOM     14  H   UNL     1       1.696   1.911  17.690  0.00  0.00    +0.000 HD
ENDROOT
BRANCH   1  15
ATOM     15  C   UNL     1       4.954   4.314  17.925  0.00  0.00    +0.000 C 
BRANCH  15  17
ATOM     16  O   UNL     1       7.148   4.217  17.047  0.00  0.00    +0.000 OA
ATOM     17  C   UNL     1       5.952   4.324  16.791  0.00  0.00    +0.000 C 
ATOM     18  N   UNL     1       5.396   4.518  15.543  0.00  0.00    +0.000 N 
ATOM     19  H   UNL     1       4.421   4.790  15.494  0.00  0.00    +0.000 HD
BRANCH  18  20
ATOM     20  C   UNL     1       6.088   4.467  14.310  0.00  0.00    +0.000 A 
ATOM     21  C   UNL     1       7.218   5.242  14.034  0.00  0.00    +0.000 A 
ATOM     22  C   UNL     1       7.876   5.134  12.806  0.00  0.00    +0.000 A 
ATOM     23  C   UNL     1       7.408   4.250  11.839  0.00  0.00    +0.000 A 
ATOM     24  C   UNL     1       6.283   3.471  12.102  0.00  0.00    +0.000 A 
ATOM     25  C   UNL     1       5.631   3.574  13.336  0.00  0.00    +0.000 A 
ENDBRANCH  18  20
ENDBRANCH  15  17
ENDBRANCH   1  15
BRANCH  12  26
ATOM     26  C   UNL     1       1.926   7.462  19.803  0.00  0.00    +0.000 C 
BRANCH  26  27
ATOM     27  O   UNL     1       2.034   8.868  19.593  0.00  0.00    +0.000 OA
BRANCH  27  28
ATOM     28  C   UNL     1       0.885   9.604  19.519  0.00  0.00    +0.000 A 
ATOM     29  C   UNL     1       0.300  10.320  20.561  0.00  0.00    +0.000 A 
ATOM     30  C   UNL     1      -0.891  11.025  20.342  0.00  0.00    +0.000 A 
ATOM     31  C   UNL     1      -1.491  11.012  19.084  0.00  0.00    +0.000 A 
ATOM     32 CL   UNL     1      -2.969  11.854  18.832  0.00  0.00    +0.000 Cl
ATOM     33  C   UNL     1      -0.903  10.314  18.034  0.00  0.00    +0.000 A 
ATOM     34  C   UNL     1       0.284   9.612  18.255  0.00  0.00    +0.000 A 
ENDBRANCH  27  28
ENDBRANCH  26  27
ENDBRANCH  12  26
TORSDOF 6
ENDMDL
MODEL 4
REMARK VINA RESULT:      -8.4      3.534      8.304
REMARK  Name = 
REMARK  6 active torsions:
REMARK  status: ('A' for Active; 'I' for Inactive)
REMARK    1  A    between atoms: C_2  and  C_3
REMARK    2  A    between atoms: C_3  and  C_4
REMARK    3  A    between atoms: C_15  and  C_17
REMARK    4  A    between atoms: C_17  and  O_18
REMARK    5  A    between atoms: O_18  and  C_19
REMARK    6  A    between atoms: N_26  and  C_27
REMARK                            x       y       z     vdW  Elec       q    Type
REMARK                         _______ _______ _______ _____ _____    ______ ____
ROOT
ATOM      1  C   UNL     1       2.817   6.846  19.233  0.00  0.00    +0.000 C 
ATOM      2  C   UNL     1       1.937   6.685  20.479  0.00  0.00    +0.000 C 
ATOM      3  O   UNL     1       1.670   7.621  21.231  0.00  0.00    +0.000 OA
ATOM      4  N   UNL     1       1.307   5.476  20.620  0.00  0.00    +0.000 N 
ATOM      5  C   UNL     1       1.578   4.383  19.788  0.00  0.00    +0.000 A 
ATOM      6  C   UNL     1       0.759   3.257  19.871  0.00  0.00    +0.000 A 
ATOM      7  C   UNL     1       0.989   2.170  19.029  0.00  0.00    +0.000 A 
ATOM      8  C   UNL     1       2.017   2.230  18.088  0.00  0.00    +0.000 A 
ATOM      9  C   UNL     1       2.836   3.355  18.019  0.00  0.00    +0.000 A 
ATOM     10  C   UNL     1       2.671   4.421  18.903  0.00  0.00    +0.000 A 
ATOM     11  N   UNL     1       3.519   5.571  18.918  0.00  0.00    +0.000 N 
ATOM     12  C   UNL     1       4.893   5.611  18.673  0.00  0.00    +0.000 C 
ATOM     13  O   UNL     1       5.502   6.689  18.662  0.00  0.00    +0.000 OA
ATOM     14  H   UNL     1       0.596   5.421  21.337  0.00  0.00    +0.000 HD
ENDROOT
BRANCH   1  15
ATOM     15  C   UNL     1       1.993   7.275  18.011  0.00  0.00    +0.000 C 
BRANCH  15  17
ATOM     16  O   UNL     1       2.540   9.396  17.117  0.00  0.00    +0.000 OA
ATOM     17  C   UNL     1       1.808   8.769  17.878  0.00  0.00    +0.000 C 
ATOM     18  N   UNL     1       0.836   9.299  18.702  0.00  0.00    +0.000 N 
ATOM     19  H   UNL     1       0.446   8.704  19.423  0.00  0.00    +0.000 HD
BRANCH  18  20
ATOM     20  C   UNL     1       0.394  10.643  18.703  0.00  0.00    +0.000 A 
ATOM     21  C   UNL     1       1.220  11.721  19.032  0.00  0.00    +0.000 A 
ATOM     22  C   UNL     1       0.734  13.031  18.993  0.00  0.00    +0.000 A 
ATOM     23  C   UNL     1      -0.586  13.276  18.626  0.00  0.00    +0.000 A 
ATOM     24  C   UNL     1      -1.419  12.210  18.295  0.00  0.00    +0.000 A 
ATOM     25  C   UNL     1      -0.929  10.900  18.326  0.00  0.00    +0.000 A 
ENDBRANCH  18  20
ENDBRANCH  15  17
ENDBRANCH   1  15
BRANCH  12  26
ATOM     26  C   UNL     1       5.682   4.312  18.468  0.00  0.00    +0.000 C 
BRANCH  26  27
ATOM     27  O   UNL     1       6.770   4.604  17.594  0.00  0.00    +0.000 OA
BRANCH  27  28
ATOM     28  C   UNL     1       6.603   4.390  16.255  0.00  0.00    +0.000 A 
ATOM     29  C   UNL     1       5.649   3.561  15.668  0.00  0.00    +0.000 A 
ATOM     30  C   UNL     1       5.600   3.429  14.275  0.00  0.00    +0.000 A 
ATOM     31  C   UNL     1       6.503   4.126  13.473  0.00  0.00    +0.000 A 
ATOM     32 CL   UNL     1       6.457   3.934  11.765  0.00  0.00    +0.000 Cl
ATOM     33  C   UNL     1       7.447   4.969  14.051  0.00  0.00    +0.000 A 
ATOM     34  C   UNL     1       7.493   5.100  15.440  0.00  0.00    +0.000 A 
ENDBRANCH  27  28
ENDBRANCH  26  27
ENDBRANCH  12  26
TORSDOF 6
ENDMDL
MODEL 5
REMARK VINA RESULT:      -8.4      1.115      1.572
REMARK  Name = 
REMARK  6 active torsions:
REMARK  status: ('A' for Active; 'I' for Inactive)
REMARK    1  A    between atoms: C_2  and  C_3
REMARK    2  A    between atoms: C_3  and  C_4
REMARK    3  A    between atoms: C_15  and  C_17
REMARK    4  A    between atoms: C_17  and  O_18
REMARK    5  A    between atoms: O_18  and  C_19
REMARK    6  A    between atoms: N_26  and  C_27
REMARK                            x       y       z     vdW  Elec       q    Type
REMARK                         _______ _______ _______ _____ _____    ______ ____
ROOT
ATOM      1  C   UNL     1       3.498   4.677  17.510  0.00  0.00    +0.000 C 
ATOM      2  C   UNL     1       2.645   3.503  17.014  0.00  0.00    +0.000 C 
ATOM      3  O   UNL     1       2.632   3.138  15.840  0.00  0.00    +0.000 OA
ATOM      4  N   UNL     1       2.027   2.757  17.982  0.00  0.00    +0.000 N 
ATOM      5  C   UNL     1       2.015   3.131  19.332  0.00  0.00    +0.000 A 
ATOM      6  C   UNL     1       1.537   2.225  20.277  0.00  0.00    +0.000 A 
ATOM      7  C   UNL     1       1.547   2.564  21.629  0.00  0.00    +0.000 A 
ATOM      8  C   UNL     1       2.065   3.795  22.029  0.00  0.00    +0.000 A 
ATOM      9  C   UNL     1       2.532   4.699  21.077  0.00  0.00    +0.000 A 
ATOM     10  C   UNL     1       2.460   4.411  19.714  0.00  0.00    +0.000 A 
ATOM     11  N   UNL     1       2.865   5.324  18.693  0.00  0.00    +0.000 N 
ATOM     12  C   UNL     1       2.731   6.713  18.699  0.00  0.00    +0.000 C 
ATOM     13  O   UNL     1       3.180   7.396  17.769  0.00  0.00    +0.000 OA
ATOM     14  H   UNL     1       1.609   1.886  17.680  0.00  0.00    +0.000 HD
ENDROOT
BRANCH   1  15
ATOM     15  C   UNL     1       4.916   4.225  17.888  0.00  0.00    +0.000 C 
BRANCH  15  17
ATOM     16  O   UNL     1       7.108   4.268  17.002  0.00  0.00    +0.000 OA
ATOM     17  C   UNL     1       5.907   4.264  16.748  0.00  0.00    +0.000 C 
ATOM     18  N   UNL     1       5.334   4.351  15.496  0.00  0.00    +0.000 N 
ATOM     19  H   UNL     1       4.340   4.540  15.440  0.00  0.00    +0.000 HD
BRANCH  18  20
ATOM     20  C   UNL     1       6.025   4.299  14.263  0.00  0.00    +0.000 A 
ATOM     21  C   UNL     1       5.653   3.458  13.211  0.00  0.00    +0.000 A 
ATOM     22  C   UNL     1       6.360   3.465  12.005  0.00  0.00    +0.000 A 
ATOM     23  C   UNL     1       7.450   4.314  11.840  0.00  0.00    +0.000 A 
ATOM     24  C   UNL     1       7.830   5.159  12.881  0.00  0.00    +0.000 A 
ATOM     25  C   UNL     1       7.116   5.157  14.084  0.00  0.00    +0.000 A 
ENDBRANCH  18  20
ENDBRANCH  15  17
ENDBRANCH   1  15
BRANCH  12  26
ATOM     26  C   UNL     1       1.976   7.414  19.835  0.00  0.00    +0.000 C 
BRANCH  26  27
ATOM     27  O   UNL     1       2.064   8.818  19.607  0.00  0.00    +0.000 OA
BRANCH  27  28
ATOM     28  C   UNL     1       0.911   9.511  19.368  0.00  0.00    +0.000 A 
ATOM     29  C   UNL     1       0.264   9.632  18.139  0.00  0.00    +0.000 A 
ATOM     30  C   UNL     1      -0.912  10.385  18.040  0.00  0.00    +0.000 A 
ATOM     31  C   UNL     1      -1.439  11.014  19.167  0.00  0.00    +0.000 A 
ATOM     32 CL   UNL     1      -2.866  11.964  19.030  0.00  0.00    +0.000 Cl
ATOM     33  C   UNL     1      -0.809  10.883  20.401  0.00  0.00    +0.000 A 
ATOM     34  C   UNL     1       0.364  10.131  20.497  0.00  0.00    +0.000 A 
ENDBRANCH  27  28
ENDBRANCH  26  27
ENDBRANCH  12  26
TORSDOF 6
ENDMDL
MODEL 6
REMARK VINA RESULT:      -8.3      3.443      8.424
REMARK  Name = 
REMARK  6 active torsions:
REMARK  status: ('A' for Active; 'I' for Inactive)
REMARK    1  A    between atoms: C_2  and  C_3
REMARK    2  A    between atoms: C_3  and  C_4
REMARK    3  A    between atoms: C_15  and  C_17
REMARK    4  A    between atoms: C_17  and  O_18
REMARK    5  A    between atoms: O_18  and  C_19
REMARK    6  A    between atoms: N_26  and  C_27
REMARK                            x       y       z     vdW  Elec       q    Type
REMARK                         _______ _______ _______ _____ _____    ______ ____
ROOT
ATOM      1  C   UNL     1       2.921   6.947  19.149  0.00  0.00    +0.000 C 
ATOM      2  C   UNL     1       2.066   6.787  20.412  0.00  0.00    +0.000 C 
ATOM      3  O   UNL     1       1.821   7.722  21.173  0.00  0.00    +0.000 OA
ATOM      4  N   UNL     1       1.430   5.583  20.561  0.00  0.00    +0.000 N 
ATOM      5  C   UNL     1       1.676   4.491  19.720  0.00  0.00    +0.000 A 
ATOM      6  C   UNL     1       0.851   3.370  19.815  0.00  0.00    +0.000 A 
ATOM      7  C   UNL     1       1.056   2.286  18.964  0.00  0.00    +0.000 A 
ATOM      8  C   UNL     1       2.064   2.342  18.003  0.00  0.00    +0.000 A 
ATOM      9  C   UNL     1       2.890   3.461  17.921  0.00  0.00    +0.000 A 
ATOM     10  C   UNL     1       2.751   4.525  18.812  0.00  0.00    +0.000 A 
ATOM     11  N   UNL     1       3.608   5.668  18.815  0.00  0.00    +0.000 N 
ATOM     12  C   UNL     1       4.976   5.700  18.542  0.00  0.00    +0.000 C 
ATOM     13  O   UNL     1       5.593   6.773  18.522  0.00  0.00    +0.000 OA
ATOM     14  H   UNL     1       0.733   5.530  21.292  0.00  0.00    +0.000 HD
ENDROOT
BRANCH   1  15
ATOM     15  C   UNL     1       2.075   7.387  17.946  0.00  0.00    +0.000 C 
BRANCH  15  17
ATOM     16  O   UNL     1       2.314   9.631  17.237  0.00  0.00    +0.000 OA
ATOM     17  C   UNL     1       1.695   8.849  17.953  0.00  0.00    +0.000 C 
ATOM     18  N   UNL     1       0.691   9.174  18.843  0.00  0.00    +0.000 N 
ATOM     19  H   UNL     1       0.405   8.471  19.514  0.00  0.00    +0.000 HD
BRANCH  18  20
ATOM     20  C   UNL     1       0.079  10.442  18.975  0.00  0.00    +0.000 A 
ATOM     21  C   UNL     1      -1.035  10.837  18.227  0.00  0.00    +0.000 A 
ATOM     22  C   UNL     1      -1.612  12.096  18.417  0.00  0.00    +0.000 A 
ATOM     23  C   UNL     1      -1.080  12.974  19.355  0.00  0.00    +0.000 A 
ATOM     24  C   UNL     1       0.029  12.592  20.106  0.00  0.00    +0.000 A 
ATOM     25  C   UNL     1       0.601  11.329  19.922  0.00  0.00    +0.000 A 
ENDBRANCH  18  20
ENDBRANCH  15  17
ENDBRANCH   1  15
BRANCH  12  26
ATOM     26  C   UNL     1       5.752   4.396  18.316  0.00  0.00    +0.000 C 
BRANCH  26  27
ATOM     27  O   UNL     1       6.864   4.699  17.477  0.00  0.00    +0.000 OA
BRANCH  27  28
ATOM     28  C   UNL     1       6.735   4.502  16.131  0.00  0.00    +0.000 A 
ATOM     29  C   UNL     1       7.490   5.117  15.134  0.00  0.00    +0.000 A 
ATOM     30  C   UNL     1       7.239   4.825  13.787  0.00  0.00    +0.000 A 
ATOM     31  C   UNL     1       6.237   3.919  13.442  0.00  0.00    +0.000 A 
ATOM     32 CL   UNL     1       5.915   3.590  11.785  0.00  0.00    +0.000 Cl
ATOM     33  C   UNL     1       5.492   3.288  14.432  0.00  0.00    +0.000 A 
ATOM     34  C   UNL     1       5.743   3.580  15.774  0.00  0.00    +0.000 A 
ENDBRANCH  27  28
ENDBRANCH  26  27
ENDBRANCH  12  26
TORSDOF 6
ENDMDL
MODEL 7
REMARK VINA RESULT:      -8.2      3.975      7.425
REMARK  Name = 
REMARK  6 active torsions:
REMARK  status: ('A' for Active; 'I' for Inactive)
REMARK    1  A    between atoms: C_2  and  C_3
REMARK    2  A    between atoms: C_3  and  C_4
REMARK    3  A    between atoms: C_15  and  C_17
REMARK    4  A    between atoms: C_17  and  O_18
REMARK    5  A    between atoms: O_18  and  C_19
REMARK    6  A    between atoms: N_26  and  C_27
REMARK                            x       y       z     vdW  Elec       q    Type
REMARK                         _______ _______ _______ _____ _____    ______ ____
ROOT
ATOM      1  C   UNL     1      -0.173   9.672  19.552  0.00  0.00    +0.000 C 
ATOM      2  C   UNL     1      -0.381   9.473  21.058  0.00  0.00    +0.000 C 
ATOM      3  O   UNL     1      -0.254   8.381  21.610  0.00  0.00    +0.000 OA
ATOM      4  N   UNL     1      -0.540  10.614  21.800  0.00  0.00    +0.000 N 
ATOM      5  C   UNL     1      -0.689  11.879  21.217  0.00  0.00    +0.000 A 
ATOM      6  C   UNL     1      -0.650  13.006  22.037  0.00  0.00    +0.000 A 
ATOM      7  C   UNL     1      -0.761  14.276  21.474  0.00  0.00    +0.000 A 
ATOM      8  C   UNL     1      -0.879  14.411  20.091  0.00  0.00    +0.000 A 
ATOM      9  C   UNL     1      -0.927  13.280  19.279  0.00  0.00    +0.000 A 
ATOM     10  C   UNL     1      -0.894  11.998  19.829  0.00  0.00    +0.000 A 
ATOM     11  N   UNL     1      -1.002  10.804  19.052  0.00  0.00    +0.000 N 
ATOM     12  C   UNL     1      -1.779  10.606  17.910  0.00  0.00    +0.000 C 
ATOM     13  O   UNL     1      -1.738   9.533  17.294  0.00  0.00    +0.000 OA
ATOM     14  H   UNL     1      -0.504  10.506  22.805  0.00  0.00    +0.000 HD
ENDROOT
BRANCH   1  15
ATOM     15  C   UNL     1       1.299   9.945  19.216  0.00  0.00    +0.000 C 
BRANCH  15  17
ATOM     16  O   UNL     1       2.054   9.246  17.086  0.00  0.00    +0.000 OA
ATOM     17  C   UNL     1       1.919   8.944  18.269  0.00  0.00    +0.000 C 
ATOM     18  N   UNL     1       2.225   7.728  18.844  0.00  0.00    +0.000 N 
ATOM     19  H   UNL     1       1.880   7.543  19.778  0.00  0.00    +0.000 HD
BRANCH  18  20
ATOM     20  C   UNL     1       2.903   6.659  18.211  0.00  0.00    +0.000 A 
ATOM     21  C   UNL     1       4.152   6.799  17.600  0.00  0.00    +0.000 A 
ATOM     22  C   UNL     1       4.785   5.702  17.009  0.00  0.00    +0.000 A 
ATOM     23  C   UNL     1       4.174   4.453  17.022  0.00  0.00    +0.000 A 
ATOM     24  C   UNL     1       2.929   4.300  17.629  0.00  0.00    +0.000 A 
ATOM     25  C   UNL     1       2.300   5.397  18.227  0.00  0.00    +0.000 A 
ENDBRANCH  18  20
ENDBRANCH  15  17
ENDBRANCH   1  15
BRANCH  12  26
ATOM     26  C   UNL     1      -2.742  11.699  17.429  0.00  0.00    +0.000 C 
BRANCH  26  27
ATOM     27  O   UNL     1      -4.059  11.152  17.455  0.00  0.00    +0.000 OA
BRANCH  27  28
ATOM     28  C   UNL     1      -4.866  11.453  18.516  0.00  0.00    +0.000 A 
ATOM     29  C   UNL     1      -4.561  12.325  19.559  0.00  0.00    +0.000 A 
ATOM     30  C   UNL     1      -5.486  12.531  20.591  0.00  0.00    +0.000 A 
ATOM     31  C   UNL     1      -6.712  11.866  20.576  0.00  0.00    +0.000 A 
ATOM     32 CL   UNL     1      -7.828  12.101  21.862  0.00  0.00    +0.000 Cl
ATOM     33  C   UNL     1      -7.030  11.008  19.529  0.00  0.00    +0.000 A 
ATOM     34  C   UNL     1      -6.107  10.805  18.501  0.00  0.00    +0.000 A 
ENDBRANCH  27  28
ENDBRANCH  26  27
ENDBRANCH  12  26
TORSDOF 6
ENDMDL
MODEL 8
REMARK VINA RESULT:      -8.1      4.692     10.126
REMARK  Name = 
REMARK  6 active torsions:
REMARK  status: ('A' for Active; 'I' for Inactive)
REMARK    1  A    between atoms: C_2  and  C_3
REMARK    2  A    between atoms: C_3  and  C_4
REMARK    3  A    between atoms: C_15  and  C_17
REMARK    4  A    between atoms: C_17  and  O_18
REMARK    5  A    between atoms: O_18  and  C_19
REMARK    6  A    between atoms: N_26  and  C_27
REMARK                            x       y       z     vdW  Elec       q    Type
REMARK                         _______ _______ _______ _____ _____    ______ ____
ROOT
ATOM      1  C   UNL     1      -0.523  10.763  18.223  0.00  0.00    +0.000 C 
ATOM      2  C   UNL     1      -0.671  12.197  18.746  0.00  0.00    +0.000 C 
ATOM      3  O   UNL     1      -0.808  13.167  18.001  0.00  0.00    +0.000 OA
ATOM      4  N   UNL     1      -0.825  12.332  20.100  0.00  0.00    +0.000 N 
ATOM      5  C   UNL     1      -0.678  11.258  20.987  0.00  0.00    +0.000 A 
ATOM      6  C   UNL     1      -1.041  11.434  22.322  0.00  0.00    +0.000 A 
ATOM      7  C   UNL     1      -0.935  10.368  23.214  0.00  0.00    +0.000 A 
ATOM      8  C   UNL     1      -0.498   9.125  22.758  0.00  0.00    +0.000 A 
ATOM      9  C   UNL     1      -0.128   8.960  21.425  0.00  0.00    +0.000 A 
ATOM     10  C   UNL     1      -0.154  10.033  20.533  0.00  0.00    +0.000 A 
ATOM     11  N   UNL     1       0.272   9.937  19.173  0.00  0.00    +0.000 N 
ATOM     12  C   UNL     1       1.323   9.169  18.668  0.00  0.00    +0.000 C 
ATOM     13  O   UNL     1       1.552   9.132  17.452  0.00  0.00    +0.000 OA
ATOM     14  H   UNL     1      -1.095  13.248  20.433  0.00  0.00    +0.000 HD
ENDROOT
BRANCH   1  15
ATOM     15  C   UNL     1      -1.889  10.097  18.006  0.00  0.00    +0.000 C 
BRANCH  15  17
ATOM     16  O   UNL     1      -3.053  11.582  16.579  0.00  0.00    +0.000 OA
ATOM     17  C   UNL     1      -3.009  11.061  17.690  0.00  0.00    +0.000 C 
ATOM     18  N   UNL     1      -3.864  11.308  18.745  0.00  0.00    +0.000 N 
ATOM     19  H   UNL     1      -3.599  10.969  19.662  0.00  0.00    +0.000 HD
BRANCH  18  20
ATOM     20  C   UNL     1      -5.045  12.085  18.689  0.00  0.00    +0.000 A 
ATOM     21  C   UNL     1      -5.238  13.241  19.450  0.00  0.00    +0.000 A 
ATOM     22  C   UNL     1      -6.419  13.982  19.337  0.00  0.00    +0.000 A 
ATOM     23  C   UNL     1      -7.420  13.572  18.462  0.00  0.00    +0.000 A 
ATOM     24  C   UNL     1      -7.238  12.421  17.698  0.00  0.00    +0.000 A 
ATOM     25  C   UNL     1      -6.054  11.685  17.805  0.00  0.00    +0.000 A 
ENDBRANCH  18  20
ENDBRANCH  15  17
ENDBRANCH   1  15
BRANCH  12  26
ATOM     26  C   UNL     1       2.248   8.401  19.620  0.00  0.00    +0.000 C 
BRANCH  26  27
ATOM     27  O   UNL     1       2.833   7.332  18.879  0.00  0.00    +0.000 OA
BRANCH  27  28
ATOM     28  C   UNL     1       2.302   6.081  19.016  0.00  0.00    +0.000 A 
ATOM     29  C   UNL     1       1.837   5.509  20.199  0.00  0.00    +0.000 A 
ATOM     30  C   UNL     1       1.324   4.206  20.191  0.00  0.00    +0.000 A 
ATOM     31  C   UNL     1       1.277   3.479  19.003  0.00  0.00    +0.000 A 
ATOM     32 CL   UNL     1       0.676   1.868  19.008  0.00  0.00    +0.000 Cl
ATOM     33  C   UNL     1       1.723   4.048  17.815  0.00  0.00    +0.000 A 
ATOM     34  C   UNL     1       2.233   5.348  17.824  0.00  0.00    +0.000 A 
ENDBRANCH  27  28
ENDBRANCH  26  27
ENDBRANCH  12  26
TORSDOF 6
ENDMDL
MODEL 9
REMARK VINA RESULT:      -8.0      1.069      1.500
REMARK  Name = 
REMARK  6 active torsions:
REMARK  status: ('A' for Active; 'I' for Inactive)
REMARK    1  A    between atoms: C_2  and  C_3
REMARK    2  A    between atoms: C_3  and  C_4
REMARK    3  A    between atoms: C_15  and  C_17
REMARK    4  A    between atoms: C_17  and  O_18
REMARK    5  A    between atoms: O_18  and  C_19
REMARK    6  A    between atoms: N_26  and  C_27
REMARK                            x       y       z     vdW  Elec       q    Type
REMARK                         _______ _______ _______ _____ _____    ______ ____
ROOT
ATOM      1  C   UNL     1       3.525   4.648  17.494  0.00  0.00    +0.000 C 
ATOM      2  C   UNL     1       2.611   3.513  17.015  0.00  0.00    +0.000 C 
ATOM      3  O   UNL     1       2.565   3.145  15.843  0.00  0.00    +0.000 OA
ATOM      4  N   UNL     1       1.973   2.799  17.995  0.00  0.00    +0.000 N 
ATOM      5  C   UNL     1       1.997   3.178  19.343  0.00  0.00    +0.000 A 
ATOM      6  C   UNL     1       1.490   2.298  20.298  0.00  0.00    +0.000 A 
ATOM      7  C   UNL     1       1.535   2.641  21.649  0.00  0.00    +0.000 A 
ATOM      8  C   UNL     1       2.115   3.848  22.036  0.00  0.00    +0.000 A 
ATOM      9  C   UNL     1       2.610   4.727  21.074  0.00  0.00    +0.000 A 
ATOM     10  C   UNL     1       2.506   4.437  19.714  0.00  0.00    +0.000 A 
ATOM     11  N   UNL     1       2.939   5.327  18.683  0.00  0.00    +0.000 N 
ATOM     12  C   UNL     1       2.869   6.721  18.686  0.00  0.00    +0.000 C 
ATOM     13  O   UNL     1       3.336   7.380  17.747  0.00  0.00    +0.000 OA
ATOM     14  H   UNL     1       1.511   1.948  17.702  0.00  0.00    +0.000 HD
ENDROOT
BRANCH   1  15
ATOM     15  C   UNL     1       4.925   4.132  17.854  0.00  0.00    +0.000 C 
BRANCH  15  17
ATOM     16  O   UNL     1       7.133   4.272  17.018  0.00  0.00    +0.000 OA
ATOM     17  C   UNL     1       5.937   4.246  16.739  0.00  0.00    +0.000 C 
ATOM     18  N   UNL     1       5.387   4.372  15.480  0.00  0.00    +0.000 N 
ATOM     19  H   UNL     1       4.390   4.536  15.410  0.00  0.00    +0.000 HD
BRANCH  18  20
ATOM     20  C   UNL     1       6.104   4.392  14.261  0.00  0.00    +0.000 A 
ATOM     21  C   UNL     1       7.203   5.225  14.032  0.00  0.00    +0.000 A 
ATOM     22  C   UNL     1       7.888   5.185  12.814  0.00  0.00    +0.000 A 
ATOM     23  C   UNL     1       7.479   4.312  11.811  0.00  0.00    +0.000 A 
ATOM     24  C   UNL     1       6.386   3.476  12.027  0.00  0.00    +0.000 A 
ATOM     25  C   UNL     1       5.706   3.511  13.249  0.00  0.00    +0.000 A 
ENDBRANCH  18  20
ENDBRANCH  15  17
ENDBRANCH   1  15
BRANCH  12  26
ATOM     26  C   UNL     1       2.163   7.460  19.830  0.00  0.00    +0.000 C 
BRANCH  26  27
ATOM     27  O   UNL     1       1.135   8.262  19.252  0.00  0.00    +0.000 OA
BRANCH  27  28
ATOM     28  C   UNL     1       1.096   9.591  19.564  0.00  0.00    +0.000 A 
ATOM     29  C   UNL     1       0.690  10.139  20.780  0.00  0.00    +0.000 A 
ATOM     30  C   UNL     1       0.693  11.528  20.956  0.00  0.00    +0.000 A 
ATOM     31  C   UNL     1       1.102  12.365  19.918  0.00  0.00    +0.000 A 
ATOM     32 CL   UNL     1       1.073  14.071  20.133  0.00  0.00    +0.000 Cl
ATOM     33  C   UNL     1       1.526  11.825  18.709  0.00  0.00    +0.000 A 
ATOM     34  C   UNL     1       1.523  10.440  18.535  0.00  0.00    +0.000 A 
ENDBRANCH  27  28
ENDBRANCH  26  27
ENDBRANCH  12  26
TORSDOF 6
ENDMDL
