MODEL 1
REMARK VINA RESULT:      -7.5      0.000      0.000
REMARK  Name = 
REMARK  10 active torsions:
REMARK  status: ('A' for Active; 'I' for Inactive)
REMARK    1  A    between atoms: C_1  and  C_2
REMARK    2  A    between atoms: C_2  and  C_3
REMARK    3  A    between atoms: C_3  and  C_4
REMARK    4  A    between atoms: C_4  and  C_5
REMARK    5  A    between atoms: C_5  and  C_7
REMARK    6  A    between atoms: C_8  and  C_9
REMARK    7  A    between atoms: C_16  and  C_17
REMARK    8  A    between atoms: C_16  and  C_18
REMARK    9  A    between atoms: C_20  and  C_21
REMARK   10  A    between atoms: C_24  and  C_25
REMARK                            x       y       z     vdW  Elec       q    Type
REMARK                         _______ _______ _______ _____ _____    ______ ____
ROOT
ATOM      1  C   UNL     1       6.751   6.431  18.270  0.00  0.00    +0.000 C 
ATOM      2  C   UNL     1       6.973   5.612  19.333  0.00  0.00    +0.000 C 
ATOM      3  C   UNL     1       8.257   5.475  20.114  0.00  0.00    +0.000 C 
ATOM      4  N   UNL     1       5.940   4.794  19.792  0.00  0.00    +0.000 N 
ATOM      5  C   UNL     1       4.611   5.006  19.473  0.00  0.00    +0.000 C 
ATOM      6  C   UNL     1       4.298   5.830  18.459  0.00  0.00    +0.000 C 
ATOM      7  C   UNL     1       2.891   6.250  18.239  0.00  0.00    +0.000 C 
ATOM      8  O   UNL     1       2.612   7.093  17.388  0.00  0.00    +0.000 OA
ATOM      9  C   UNL     1       1.830   5.712  19.178  0.00  0.00    +0.000 C 
ATOM     10  C   UNL     1       2.164   4.305  19.696  0.00  0.00    +0.000 C 
ATOM     11  C   UNL     1       1.154   3.905  20.784  0.00  0.00    +0.000 C 
ATOM     12  C   UNL     1       2.061   3.281  18.543  0.00  0.00    +0.000 C 
ATOM     13  C   UNL     1       3.579   4.303  20.315  0.00  0.00    +0.000 C 
ATOM     14  C   UNL     1       5.391   6.386  17.562  0.00  0.00    +0.000 C 
ATOM     15  H   UNL     1       6.139   4.220  20.609  0.00  0.00    +0.000 HD
ENDROOT
BRANCH  14  16
ATOM     16  C   UNL     1       5.437   5.550  16.276  0.00  0.00    +0.000 A 
ATOM     17  C   UNL     1       5.667   4.172  16.340  0.00  0.00    +0.000 A 
ATOM     18  C   UNL     1       5.870   3.430  15.171  0.00  0.00    +0.000 A 
ATOM     19  C   UNL     1       5.830   4.025  13.897  0.00  0.00    +0.000 A 
ATOM     20  C   UNL     1       5.562   5.400  13.844  0.00  0.00    +0.000 A 
ATOM     21  C   UNL     1       5.382   6.151  15.008  0.00  0.00    +0.000 A 
BRANCH  19  22
ATOM     22  C   UNL     1       6.102   3.244  12.668  0.00  0.00    +0.000 A 
ATOM     23  C   UNL     1       5.084   2.522  12.022  0.00  0.00    +0.000 A 
ATOM     24  C   UNL     1       5.343   1.738  10.896  0.00  0.00    +0.000 A 
ATOM     25  C   UNL     1       6.630   1.673  10.375  0.00  0.00    +0.000 A 
ATOM     26  C   UNL     1       7.655   2.395  10.976  0.00  0.00    +0.000 A 
ATOM     27  C   UNL     1       7.394   3.165  12.112  0.00  0.00    +0.000 A 
ENDBRANCH  19  22
ENDBRANCH  14  16
BRANCH   1  28
ATOM     28  C   UNL     1       7.789   7.347  17.680  0.00  0.00    +0.000 C 
ATOM     29  O   UNL     1       8.163   7.217  16.515  0.00  0.00    +0.000 OA
BRANCH  28  30
ATOM     30  C   UNL     1       8.356   8.445  18.574  0.00  0.00    +0.000 C 
BRANCH  30  31
ATOM     31  C   UNL     1       8.300   9.830  17.935  0.00  0.00    +0.000 C 
BRANCH  31  33
ATOM     32  C   UNL     1       9.457  10.705  19.993  0.00  0.00    +0.000 C 
ATOM     33  C   UNL     1       9.416  10.726  18.474  0.00  0.00    +0.000 C 
ENDBRANCH  31  33
ENDBRANCH  30  31
ENDBRANCH  28  30
ENDBRANCH   1  28
TORSDOF 6
ENDMDL
MODEL 2
REMARK VINA RESULT:      -7.4      3.029      6.547
REMARK  Name = 
REMARK  10 active torsions:
REMARK  status: ('A' for Active; 'I' for Inactive)
REMARK    1  A    between atoms: C_1  and  C_2
REMARK    2  A    between atoms: C_2  and  C_3
REMARK    3  A    between atoms: C_3  and  C_4
REMARK    4  A    between atoms: C_4  and  C_5
REMARK    5  A    between atoms: C_5  and  C_7
REMARK    6  A    between atoms: C_8  and  C_9
REMARK    7  A    between atoms: C_16  and  C_17
REMARK    8  A    between atoms: C_16  and  C_18
REMARK    9  A    between atoms: C_20  and  C_21
REMARK   10  A    between atoms: C_24  and  C_25
REMARK                            x       y       z     vdW  Elec       q    Type
REMARK                         _______ _______ _______ _____ _____    ______ ____
ROOT
ATOM      1  C   UNL     1       5.583   5.282  18.148  0.00  0.00    +0.000 C 
ATOM      2  C   UNL     1       5.446   4.512  17.035  0.00  0.00    +0.000 C 
ATOM      3  C   UNL     1       6.433   4.385  15.901  0.00  0.00    +0.000 C 
ATOM      4  N   UNL     1       4.296   3.739  16.877  0.00  0.00    +0.000 N 
ATOM      5  C   UNL     1       3.447   3.428  17.923  0.00  0.00    +0.000 C 
ATOM      6  C   UNL     1       3.536   4.114  19.074  0.00  0.00    +0.000 C 
ATOM      7  C   UNL     1       2.800   3.657  20.280  0.00  0.00    +0.000 C 
ATOM      8  O   UNL     1       2.967   4.210  21.366  0.00  0.00    +0.000 OA
ATOM      9  C   UNL     1       1.942   2.413  20.165  0.00  0.00    +0.000 C 
ATOM     10  C   UNL     1       1.344   2.241  18.761  0.00  0.00    +0.000 C 
ATOM     11  C   UNL     1       0.653   0.872  18.661  0.00  0.00    +0.000 C 
ATOM     12  C   UNL     1       0.284   3.336  18.501  0.00  0.00    +0.000 C 
ATOM     13  C   UNL     1       2.471   2.300  17.707  0.00  0.00    +0.000 C 
ATOM     14  C   UNL     1       4.439   5.332  19.169  0.00  0.00    +0.000 C 
ATOM     15  H   UNL     1       4.248   3.154  16.045  0.00  0.00    +0.000 HD
ENDROOT
BRANCH  14  16
ATOM     16  C   UNL     1       3.576   6.591  19.008  0.00  0.00    +0.000 A 
ATOM     17  C   UNL     1       2.759   7.023  20.057  0.00  0.00    +0.000 A 
ATOM     18  C   UNL     1       1.851   8.071  19.866  0.00  0.00    +0.000 A 
ATOM     19  C   UNL     1       1.737   8.741  18.634  0.00  0.00    +0.000 A 
ATOM     20  C   UNL     1       2.588   8.322  17.602  0.00  0.00    +0.000 A 
ATOM     21  C   UNL     1       3.479   7.261  17.778  0.00  0.00    +0.000 A 
BRANCH  19  22
ATOM     22  C   UNL     1       0.735   9.810  18.424  0.00  0.00    +0.000 A 
ATOM     23  C   UNL     1       0.984  11.134  18.827  0.00  0.00    +0.000 A 
ATOM     24  C   UNL     1       0.023  12.136  18.684  0.00  0.00    +0.000 A 
ATOM     25  C   UNL     1      -1.209  11.842  18.112  0.00  0.00    +0.000 A 
ATOM     26  C   UNL     1      -1.478  10.548  17.679  0.00  0.00    +0.000 A 
ATOM     27  C   UNL     1      -0.519   9.545  17.840  0.00  0.00    +0.000 A 
ENDBRANCH  19  22
ENDBRANCH  14  16
BRANCH   1  28
ATOM     28  C   UNL     1       6.771   6.165  18.423  0.00  0.00    +0.000 C 
ATOM     29  O   UNL     1       7.566   5.899  19.323  0.00  0.00    +0.000 OA
BRANCH  28  30
ATOM     30  C   UNL     1       6.958   7.396  17.541  0.00  0.00    +0.000 C 
BRANCH  30  31
ATOM     31  C   UNL     1       8.226   8.181  17.865  0.00  0.00    +0.000 C 
BRANCH  31  33
ATOM     32  C   UNL     1       9.114  10.466  18.440  0.00  0.00    +0.000 C 
ATOM     33  C   UNL     1       7.958   9.687  17.836  0.00  0.00    +0.000 C 
ENDBRANCH  31  33
ENDBRANCH  30  31
ENDBRANCH  28  30
ENDBRANCH   1  28
TORSDOF 6
ENDMDL
MODEL 3
REMARK VINA RESULT:      -7.2      8.170     10.576
REMARK  Name = 
REMARK  10 active torsions:
REMARK  status: ('A' for Active; 'I' for Inactive)
REMARK    1  A    between atoms: C_1  and  C_2
REMARK    2  A    between atoms: C_2  and  C_3
REMARK    3  A    between atoms: C_3  and  C_4
REMARK    4  A    between atoms: C_4  and  C_5
REMARK    5  A    between atoms: C_5  and  C_7
REMARK    6  A    between atoms: C_8  and  C_9
REMARK    7  A    between atoms: C_16  and  C_17
REMARK    8  A    between atoms: C_16  and  C_18
REMARK    9  A    between atoms: C_20  and  C_21
REMARK   10  A    between atoms: C_24  and  C_25
REMARK                            x       y       z     vdW  Elec       q    Type
REMARK                         _______ _______ _______ _____ _____    ______ ____
ROOT
ATOM      1  C   UNL     1      -0.333  15.433  20.255  0.00  0.00    +0.000 C 
ATOM      2  C   UNL     1      -0.058  15.875  21.511  0.00  0.00    +0.000 C 
ATOM      3  C   UNL     1       0.822  17.043  21.883  0.00  0.00    +0.000 C 
ATOM      4  N   UNL     1      -0.623  15.219  22.605  0.00  0.00    +0.000 N 
ATOM      5  C   UNL     1      -1.714  14.376  22.498  0.00  0.00    +0.000 C 
ATOM      6  C   UNL     1      -2.081  13.919  21.289  0.00  0.00    +0.000 C 
ATOM      7  C   UNL     1      -3.369  13.202  21.116  0.00  0.00    +0.000 C 
ATOM      8  O   UNL     1      -3.766  12.883  19.996  0.00  0.00    +0.000 OA
ATOM      9  C   UNL     1      -4.240  12.993  22.339  0.00  0.00    +0.000 C 
ATOM     10  C   UNL     1      -3.417  12.840  23.626  0.00  0.00    +0.000 C 
ATOM     11  C   UNL     1      -4.359  12.828  24.840  0.00  0.00    +0.000 C 
ATOM     12  C   UNL     1      -2.644  11.502  23.602  0.00  0.00    +0.000 C 
ATOM     13  C   UNL     1      -2.450  14.036  23.768  0.00  0.00    +0.000 C 
ATOM     14  C   UNL     1      -1.205  14.183  20.076  0.00  0.00    +0.000 C 
ATOM     15  H   UNL     1      -0.416  15.602  23.526  0.00  0.00    +0.000 HD
ENDROOT
BRANCH  14  16
ATOM     16  C   UNL     1      -0.366  12.929  19.799  0.00  0.00    +0.000 A 
ATOM     17  C   UNL     1      -0.491  12.253  18.581  0.00  0.00    +0.000 A 
ATOM     18  C   UNL     1       0.147  11.023  18.382  0.00  0.00    +0.000 A 
ATOM     19  C   UNL     1       0.947  10.431  19.375  0.00  0.00    +0.000 A 
ATOM     20  C   UNL     1       1.095  11.137  20.578  0.00  0.00    +0.000 A 
ATOM     21  C   UNL     1       0.441  12.353  20.792  0.00  0.00    +0.000 A 
BRANCH  19  22
ATOM     22  C   UNL     1       1.572   9.103  19.178  0.00  0.00    +0.000 A 
ATOM     23  C   UNL     1       1.539   8.124  20.186  0.00  0.00    +0.000 A 
ATOM     24  C   UNL     1       2.175   6.891  20.029  0.00  0.00    +0.000 A 
ATOM     25  C   UNL     1       2.844   6.598  18.847  0.00  0.00    +0.000 A 
ATOM     26  C   UNL     1       2.874   7.536  17.820  0.00  0.00    +0.000 A 
ATOM     27  C   UNL     1       2.251   8.775  17.988  0.00  0.00    +0.000 A 
ENDBRANCH  19  22
ENDBRANCH  14  16
BRANCH   1  28
ATOM     28  C   UNL     1       0.226  16.051  19.001  0.00  0.00    +0.000 C 
ATOM     29  O   UNL     1      -0.510  16.582  18.172  0.00  0.00    +0.000 OA
BRANCH  28  30
ATOM     30  C   UNL     1       1.737  16.000  18.800  0.00  0.00    +0.000 C 
BRANCH  30  31
ATOM     31  C   UNL     1       2.204  14.751  18.058  0.00  0.00    +0.000 C 
BRANCH  31  33
ATOM     32  C   UNL     1       3.411  14.596  20.262  0.00  0.00    +0.000 C 
ATOM     33  C   UNL     1       3.153  13.922  18.925  0.00  0.00    +0.000 C 
ENDBRANCH  31  33
ENDBRANCH  30  31
ENDBRANCH  28  30
ENDBRANCH   1  28
TORSDOF 6
ENDMDL
MODEL 4
REMARK VINA RESULT:      -7.2      9.172     12.338
REMARK  Name = 
REMARK  10 active torsions:
REMARK  status: ('A' for Active; 'I' for Inactive)
REMARK    1  A    between atoms: C_1  and  C_2
REMARK    2  A    between atoms: C_2  and  C_3
REMARK    3  A    between atoms: C_3  and  C_4
REMARK    4  A    between atoms: C_4  and  C_5
REMARK    5  A    between atoms: C_5  and  C_7
REMARK    6  A    between atoms: C_8  and  C_9
REMARK    7  A    between atoms: C_16  and  C_17
REMARK    8  A    between atoms: C_16  and  C_18
REMARK    9  A    between atoms: C_20  and  C_21
REMARK   10  A    between atoms: C_24  and  C_25
REMARK                            x       y       z     vdW  Elec       q    Type
REMARK                         _______ _______ _______ _____ _____    ______ ____
ROOT
ATOM      1  C   UNL     1      -2.918  14.078  22.015  0.00  0.00    +0.000 C 
ATOM      2  C   UNL     1      -3.544  14.801  21.048  0.00  0.00    +0.000 C 
ATOM      3  C   UNL     1      -5.034  14.923  20.836  0.00  0.00    +0.000 C 
ATOM      4  N   UNL     1      -2.779  15.524  20.132  0.00  0.00    +0.000 N 
ATOM      5  C   UNL     1      -1.450  15.841  20.345  0.00  0.00    +0.000 C 
ATOM      6  C   UNL     1      -0.763  15.202  21.306  0.00  0.00    +0.000 C 
ATOM      7  C   UNL     1       0.587  15.675  21.706  0.00  0.00    +0.000 C 
ATOM      8  O   UNL     1       1.174  15.169  22.661  0.00  0.00    +0.000 OA
ATOM      9  C   UNL     1       1.163  16.881  20.990  0.00  0.00    +0.000 C 
ATOM     10  C   UNL     1       0.690  16.979  19.532  0.00  0.00    +0.000 C 
ATOM     11  C   UNL     1       1.149  18.317  18.932  0.00  0.00    +0.000 C 
ATOM     12  C   UNL     1       1.313  15.837  18.698  0.00  0.00    +0.000 C 
ATOM     13  C   UNL     1      -0.853  16.923  19.483  0.00  0.00    +0.000 C 
ATOM     14  C   UNL     1      -1.385  14.023  22.034  0.00  0.00    +0.000 C 
ATOM     15  H   UNL     1      -3.288  16.076  19.445  0.00  0.00    +0.000 HD
ENDROOT
BRANCH  14  16
ATOM     16  C   UNL     1      -0.846  12.728  21.412  0.00  0.00    +0.000 A 
ATOM     17  C   UNL     1      -0.511  11.642  22.226  0.00  0.00    +0.000 A 
ATOM     18  C   UNL     1       0.129  10.520  21.687  0.00  0.00    +0.000 A 
ATOM     19  C   UNL     1       0.440  10.427  20.319  0.00  0.00    +0.000 A 
ATOM     20  C   UNL     1       0.065  11.506  19.506  0.00  0.00    +0.000 A 
ATOM     21  C   UNL     1      -0.552  12.639  20.042  0.00  0.00    +0.000 A 
BRANCH  19  22
ATOM     22  C   UNL     1       1.168   9.262  19.766  0.00  0.00    +0.000 A 
ATOM     23  C   UNL     1       1.550   9.213  18.414  0.00  0.00    +0.000 A 
ATOM     24  C   UNL     1       2.186   8.095  17.872  0.00  0.00    +0.000 A 
ATOM     25  C   UNL     1       2.475   7.000  18.679  0.00  0.00    +0.000 A 
ATOM     26  C   UNL     1       2.133   7.027  20.027  0.00  0.00    +0.000 A 
ATOM     27  C   UNL     1       1.482   8.141  20.560  0.00  0.00    +0.000 A 
ENDBRANCH  19  22
ENDBRANCH  14  16
BRANCH   1  28
ATOM     28  C   UNL     1      -3.636  13.251  23.048  0.00  0.00    +0.000 C 
ATOM     29  O   UNL     1      -4.263  12.241  22.731  0.00  0.00    +0.000 OA
BRANCH  28  30
ATOM     30  C   UNL     1      -3.552  13.705  24.502  0.00  0.00    +0.000 C 
BRANCH  30  31
ATOM     31  C   UNL     1      -3.885  15.183  24.690  0.00  0.00    +0.000 C 
BRANCH  31  33
ATOM     32  C   UNL     1      -1.684  15.424  25.890  0.00  0.00    +0.000 C 
ATOM     33  C   UNL     1      -2.610  16.015  24.841  0.00  0.00    +0.000 C 
ENDBRANCH  31  33
ENDBRANCH  30  31
ENDBRANCH  28  30
ENDBRANCH   1  28
TORSDOF 6
ENDMDL
MODEL 5
REMARK VINA RESULT:      -7.2      0.563      1.093
REMARK  Name = 
REMARK  10 active torsions:
REMARK  status: ('A' for Active; 'I' for Inactive)
REMARK    1  A    between atoms: C_1  and  C_2
REMARK    2  A    between atoms: C_2  and  C_3
REMARK    3  A    between atoms: C_3  and  C_4
REMARK    4  A    between atoms: C_4  and  C_5
REMARK    5  A    between atoms: C_5  and  C_7
REMARK    6  A    between atoms: C_8  and  C_9
REMARK    7  A    between atoms: C_16  and  C_17
REMARK    8  A    between atoms: C_16  and  C_18
REMARK    9  A    between atoms: C_20  and  C_21
REMARK   10  A    between atoms: C_24  and  C_25
REMARK                            x       y       z     vdW  Elec       q    Type
REMARK                         _______ _______ _______ _____ _____    ______ ____
ROOT
ATOM      1  C   UNL     1       6.904   6.482  18.350  0.00  0.00    +0.000 C 
ATOM      2  C   UNL     1       7.134   5.619  19.376  0.00  0.00    +0.000 C 
ATOM      3  C   UNL     1       8.402   5.497  20.185  0.00  0.00    +0.000 C 
ATOM      4  N   UNL     1       6.126   4.736  19.764  0.00  0.00    +0.000 N 
ATOM      5  C   UNL     1       4.798   4.908  19.418  0.00  0.00    +0.000 C 
ATOM      6  C   UNL     1       4.476   5.770  18.439  0.00  0.00    +0.000 C 
ATOM      7  C   UNL     1       3.058   6.140  18.201  0.00  0.00    +0.000 C 
ATOM      8  O   UNL     1       2.764   7.014  17.385  0.00  0.00    +0.000 OA
ATOM      9  C   UNL     1       1.997   5.510  19.081  0.00  0.00    +0.000 C 
ATOM     10  C   UNL     1       2.378   4.094  19.536  0.00  0.00    +0.000 C 
ATOM     11  C   UNL     1       1.359   3.596  20.573  0.00  0.00    +0.000 C 
ATOM     12  C   UNL     1       2.350   3.127  18.330  0.00  0.00    +0.000 C 
ATOM     13  C   UNL     1       3.776   4.120  20.194  0.00  0.00    +0.000 C 
ATOM     14  C   UNL     1       5.567   6.417  17.602  0.00  0.00    +0.000 C 
ATOM     15  H   UNL     1       6.328   4.130  20.556  0.00  0.00    +0.000 HD
ENDROOT
BRANCH  14  16
ATOM     16  C   UNL     1       5.683   5.651  16.277  0.00  0.00    +0.000 A 
ATOM     17  C   UNL     1       5.212   6.221  15.091  0.00  0.00    +0.000 A 
ATOM     18  C   UNL     1       5.166   5.472  13.910  0.00  0.00    +0.000 A 
ATOM     19  C   UNL     1       5.606   4.137  13.861  0.00  0.00    +0.000 A 
ATOM     20  C   UNL     1       6.111   3.588  15.048  0.00  0.00    +0.000 A 
ATOM     21  C   UNL     1       6.136   4.323  16.235  0.00  0.00    +0.000 A 
BRANCH  19  22
ATOM     22  C   UNL     1       5.501   3.332  12.622  0.00  0.00    +0.000 A 
ATOM     23  C   UNL     1       4.336   3.349  11.836  0.00  0.00    +0.000 A 
ATOM     24  C   UNL     1       4.208   2.551  10.698  0.00  0.00    +0.000 A 
ATOM     25  C   UNL     1       5.256   1.727  10.305  0.00  0.00    +0.000 A 
ATOM     26  C   UNL     1       6.433   1.705  11.047  0.00  0.00    +0.000 A 
ATOM     27  C   UNL     1       6.549   2.493  12.194  0.00  0.00    +0.000 A 
ENDBRANCH  19  22
ENDBRANCH  14  16
BRANCH   1  28
ATOM     28  C   UNL     1       7.917   7.471  17.837  0.00  0.00    +0.000 C 
ATOM     29  O   UNL     1       8.229   7.501  16.647  0.00  0.00    +0.000 OA
BRANCH  28  30
ATOM     30  C   UNL     1       8.536   8.437  18.841  0.00  0.00    +0.000 C 
BRANCH  30  31
ATOM     31  C   UNL     1       8.642   9.866  18.315  0.00  0.00    +0.000 C 
BRANCH  31  33
ATOM     32  C   UNL     1      10.656  11.377  18.292  0.00  0.00    +0.000 C 
ATOM     33  C   UNL     1       9.617  10.688  19.160  0.00  0.00    +0.000 C 
ENDBRANCH  31  33
ENDBRANCH  30  31
ENDBRANCH  28  30
ENDBRANCH   1  28
TORSDOF 6
ENDMDL
MODEL 6
REMARK VINA RESULT:      -7.0      8.433     10.866
REMARK  Name = 
REMARK  10 active torsions:
REMARK  status: ('A' for Active; 'I' for Inactive)
REMARK    1  A    between atoms: C_1  and  C_2
REMARK    2  A    between atoms: C_2  and  C_3
REMARK    3  A    between atoms: C_3  and  C_4
REMARK    4  A    between atoms: C_4  and  C_5
REMARK    5  A    between atoms: C_5  and  C_7
REMARK    6  A    between atoms: C_8  and  C_9
REMARK    7  A    between atoms: C_16  and  C_17
REMARK    8  A    between atoms: C_16  and  C_18
REMARK    9  A    between atoms: C_20  and  C_21
REMARK   10  A    between atoms: C_24  and  C_25
REMARK                            x       y       z     vdW  Elec       q    Type
REMARK                         _______ _______ _______ _____ _____    ______ ____
ROOT
ATOM      1  C   UNL     1      -0.603  15.676  20.510  0.00  0.00    +0.000 C 
ATOM      2  C   UNL     1      -0.343  16.064  21.788  0.00  0.00    +0.000 C 
ATOM      3  C   UNL     1       0.503  17.237  22.219  0.00  0.00    +0.000 C 
ATOM      4  N   UNL     1      -0.890  15.338  22.846  0.00  0.00    +0.000 N 
ATOM      5  C   UNL     1      -1.955  14.470  22.694  0.00  0.00    +0.000 C 
ATOM      6  C   UNL     1      -2.307  14.063  21.463  0.00  0.00    +0.000 C 
ATOM      7  C   UNL     1      -3.574  13.318  21.251  0.00  0.00    +0.000 C 
ATOM      8  O   UNL     1      -3.959  13.043  20.116  0.00  0.00    +0.000 OA
ATOM      9  C   UNL     1      -4.440  13.023  22.459  0.00  0.00    +0.000 C 
ATOM     10  C   UNL     1      -3.614  12.831  23.740  0.00  0.00    +0.000 C 
ATOM     11  C   UNL     1      -4.558  12.731  24.950  0.00  0.00    +0.000 C 
ATOM     12  C   UNL     1      -2.803  11.519  23.653  0.00  0.00    +0.000 C 
ATOM     13  C   UNL     1      -2.683  14.047  23.943  0.00  0.00    +0.000 C 
ATOM     14  C   UNL     1      -1.438  14.412  20.267  0.00  0.00    +0.000 C 
ATOM     15  H   UNL     1      -0.696  15.681  23.785  0.00  0.00    +0.000 HD
ENDROOT
BRANCH  14  16
ATOM     16  C   UNL     1      -0.562  13.197  19.931  0.00  0.00    +0.000 A 
ATOM     17  C   UNL     1      -0.690  12.558  18.695  0.00  0.00    +0.000 A 
ATOM     18  C   UNL     1      -0.015  11.358  18.441  0.00  0.00    +0.000 A 
ATOM     19  C   UNL     1       0.827  10.763  19.397  0.00  0.00    +0.000 A 
ATOM     20  C   UNL     1       0.977  11.434  20.619  0.00  0.00    +0.000 A 
ATOM     21  C   UNL     1       0.287  12.618  20.888  0.00  0.00    +0.000 A 
BRANCH  19  22
ATOM     22  C   UNL     1       1.494   9.465  19.143  0.00  0.00    +0.000 A 
ATOM     23  C   UNL     1       2.085   9.180  17.900  0.00  0.00    +0.000 A 
ATOM     24  C   UNL     1       2.665   7.939  17.632  0.00  0.00    +0.000 A 
ATOM     25  C   UNL     1       2.686   6.954  18.614  0.00  0.00    +0.000 A 
ATOM     26  C   UNL     1       2.131   7.214  19.863  0.00  0.00    +0.000 A 
ATOM     27  C   UNL     1       1.537   8.452  20.119  0.00  0.00    +0.000 A 
ENDBRANCH  19  22
ENDBRANCH  14  16
BRANCH   1  28
ATOM     28  C   UNL     1      -0.060  16.371  19.290  0.00  0.00    +0.000 C 
ATOM     29  O   UNL     1      -0.804  16.724  18.376  0.00  0.00    +0.000 OA
BRANCH  28  30
ATOM     30  C   UNL     1       1.442  16.628  19.231  0.00  0.00    +0.000 C 
BRANCH  30  31
ATOM     31  C   UNL     1       2.277  15.363  19.421  0.00  0.00    +0.000 C 
BRANCH  31  33
ATOM     32  C   UNL     1       3.166  13.291  18.301  0.00  0.00    +0.000 C 
ATOM     33  C   UNL     1       2.408  14.593  18.106  0.00  0.00    +0.000 C 
ENDBRANCH  31  33
ENDBRANCH  30  31
ENDBRANCH  28  30
ENDBRANCH   1  28
TORSDOF 6
ENDMDL
MODEL 7
REMARK VINA RESULT:      -7.0      3.157      6.662
REMARK  Name = 
REMARK  10 active torsions:
REMARK  status: ('A' for Active; 'I' for Inactive)
REMARK    1  A    between atoms: C_1  and  C_2
REMARK    2  A    between atoms: C_2  and  C_3
REMARK    3  A    between atoms: C_3  and  C_4
REMARK    4  A    between atoms: C_4  and  C_5
REMARK    5  A    between atoms: C_5  and  C_7
REMARK    6  A    between atoms: C_8  and  C_9
REMARK    7  A    between atoms: C_16  and  C_17
REMARK    8  A    between atoms: C_16  and  C_18
REMARK    9  A    between atoms: C_20  and  C_21
REMARK   10  A    between atoms: C_24  and  C_25
REMARK                            x       y       z     vdW  Elec       q    Type
REMARK                         _______ _______ _______ _____ _____    ______ ____
ROOT
ATOM      1  C   UNL     1       5.395   5.380  18.153  0.00  0.00    +0.000 C 
ATOM      2  C   UNL     1       5.299   4.575  17.061  0.00  0.00    +0.000 C 
ATOM      3  C   UNL     1       6.288   4.477  15.924  0.00  0.00    +0.000 C 
ATOM      4  N   UNL     1       4.195   3.732  16.928  0.00  0.00    +0.000 N 
ATOM      5  C   UNL     1       3.370   3.399  17.986  0.00  0.00    +0.000 C 
ATOM      6  C   UNL     1       3.424   4.117  19.120  0.00  0.00    +0.000 C 
ATOM      7  C   UNL     1       2.720   3.649  20.341  0.00  0.00    +0.000 C 
ATOM      8  O   UNL     1       2.859   4.238  21.412  0.00  0.00    +0.000 OA
ATOM      9  C   UNL     1       1.936   2.354  20.261  0.00  0.00    +0.000 C 
ATOM     10  C   UNL     1       1.344   2.112  18.865  0.00  0.00    +0.000 C 
ATOM     11  C   UNL     1       0.734   0.702  18.802  0.00  0.00    +0.000 C 
ATOM     12  C   UNL     1       0.221   3.136  18.584  0.00  0.00    +0.000 C 
ATOM     13  C   UNL     1       2.462   2.211  17.803  0.00  0.00    +0.000 C 
ATOM     14  C   UNL     1       4.254   5.388  19.179  0.00  0.00    +0.000 C 
ATOM     15  H   UNL     1       4.179   3.125  16.112  0.00  0.00    +0.000 HD
ENDROOT
BRANCH  14  16
ATOM     16  C   UNL     1       3.318   6.590  18.991  0.00  0.00    +0.000 A 
ATOM     17  C   UNL     1       3.355   7.333  17.808  0.00  0.00    +0.000 A 
ATOM     18  C   UNL     1       2.624   8.521  17.691  0.00  0.00    +0.000 A 
ATOM     19  C   UNL     1       1.814   9.001  18.735  0.00  0.00    +0.000 A 
ATOM     20  C   UNL     1       1.756   8.227  19.903  0.00  0.00    +0.000 A 
ATOM     21  C   UNL     1       2.502   7.053  20.035  0.00  0.00    +0.000 A 
BRANCH  19  22
ATOM     22  C   UNL     1       1.088  10.287  18.625  0.00  0.00    +0.000 A 
ATOM     23  C   UNL     1      -0.311  10.327  18.502  0.00  0.00    +0.000 A 
ATOM     24  C   UNL     1      -0.998  11.531  18.340  0.00  0.00    +0.000 A 
ATOM     25  C   UNL     1      -0.300  12.733  18.318  0.00  0.00    +0.000 A 
ATOM     26  C   UNL     1       1.084  12.730  18.463  0.00  0.00    +0.000 A 
ATOM     27  C   UNL     1       1.767  11.521  18.607  0.00  0.00    +0.000 A 
ENDBRANCH  19  22
ENDBRANCH  14  16
BRANCH   1  28
ATOM     28  C   UNL     1       6.531   6.337  18.400  0.00  0.00    +0.000 C 
ATOM     29  O   UNL     1       7.357   6.128  19.286  0.00  0.00    +0.000 OA
BRANCH  28  30
ATOM     30  C   UNL     1       6.623   7.570  17.507  0.00  0.00    +0.000 C 
BRANCH  30  31
ATOM     31  C   UNL     1       8.032   8.153  17.430  0.00  0.00    +0.000 C 
BRANCH  31  33
ATOM     32  C   UNL     1       9.061   9.793  19.040  0.00  0.00    +0.000 C 
ATOM     33  C   UNL     1       8.051   9.602  17.922  0.00  0.00    +0.000 C 
ENDBRANCH  31  33
ENDBRANCH  30  31
ENDBRANCH  28  30
ENDBRANCH   1  28
TORSDOF 6
ENDMDL
MODEL 8
REMARK VINA RESULT:      -7.0      7.812     11.296
REMARK  Name = 
REMARK  10 active torsions:
REMARK  status: ('A' for Active; 'I' for Inactive)
REMARK    1  A    between atoms: C_1  and  C_2
REMARK    2  A    between atoms: C_2  and  C_3
REMARK    3  A    between atoms: C_3  and  C_4
REMARK    4  A    between atoms: C_4  and  C_5
REMARK    5  A    between atoms: C_5  and  C_7
REMARK    6  A    between atoms: C_8  and  C_9
REMARK    7  A    between atoms: C_16  and  C_17
REMARK    8  A    between atoms: C_16  and  C_18
REMARK    9  A    between atoms: C_20  and  C_21
REMARK   10  A    between atoms: C_24  and  C_25
REMARK                            x       y       z     vdW  Elec       q    Type
REMARK                         _______ _______ _______ _____ _____    ______ ____
ROOT
ATOM      1  C   UNL     1      -1.650  13.153  21.822  0.00  0.00    +0.000 C 
ATOM      2  C   UNL     1      -2.298  13.821  20.830  0.00  0.00    +0.000 C 
ATOM      3  C   UNL     1      -3.783  14.068  20.731  0.00  0.00    +0.000 C 
ATOM      4  N   UNL     1      -1.561  14.356  19.773  0.00  0.00    +0.000 N 
ATOM      5  C   UNL     1      -0.195  14.560  19.833  0.00  0.00    +0.000 C 
ATOM      6  C   UNL     1       0.521  13.968  20.803  0.00  0.00    +0.000 C 
ATOM      7  C   UNL     1       1.939  14.345  21.027  0.00  0.00    +0.000 C 
ATOM      8  O   UNL     1       2.566  13.894  21.985  0.00  0.00    +0.000 OA
ATOM      9  C   UNL     1       2.550  15.399  20.125  0.00  0.00    +0.000 C 
ATOM     10  C   UNL     1       1.951  15.378  18.711  0.00  0.00    +0.000 C 
ATOM     11  C   UNL     1       2.469  16.587  17.916  0.00  0.00    +0.000 C 
ATOM     12  C   UNL     1       2.386  14.093  17.972  0.00  0.00    +0.000 C 
ATOM     13  C   UNL     1       0.411  15.472  18.799  0.00  0.00    +0.000 C 
ATOM     14  C   UNL     1      -0.133  12.947  21.719  0.00  0.00    +0.000 C 
ATOM     15  H   UNL     1      -2.082  14.875  19.069  0.00  0.00    +0.000 HD
ENDROOT
BRANCH  14  16
ATOM     16  C   UNL     1       0.226  11.542  21.215  0.00  0.00    +0.000 A 
ATOM     17  C   UNL     1       0.569  10.536  22.122  0.00  0.00    +0.000 A 
ATOM     18  C   UNL     1       1.051   9.303  21.668  0.00  0.00    +0.000 A 
ATOM     19  C   UNL     1       1.190   9.019  20.298  0.00  0.00    +0.000 A 
ATOM     20  C   UNL     1       0.807  10.022  19.398  0.00  0.00    +0.000 A 
ATOM     21  C   UNL     1       0.348  11.264  19.845  0.00  0.00    +0.000 A 
BRANCH  19  22
ATOM     22  C   UNL     1       1.755   7.733  19.826  0.00  0.00    +0.000 A 
ATOM     23  C   UNL     1       2.394   7.631  18.579  0.00  0.00    +0.000 A 
ATOM     24  C   UNL     1       2.878   6.411  18.102  0.00  0.00    +0.000 A 
ATOM     25  C   UNL     1       2.753   5.263  18.875  0.00  0.00    +0.000 A 
ATOM     26  C   UNL     1       2.147   5.335  20.125  0.00  0.00    +0.000 A 
ATOM     27  C   UNL     1       1.649   6.554  20.590  0.00  0.00    +0.000 A 
ENDBRANCH  19  22
ENDBRANCH  14  16
BRANCH   1  28
ATOM     28  C   UNL     1      -2.337  12.524  23.005  0.00  0.00    +0.000 C 
ATOM     29  O   UNL     1      -2.583  11.319  23.030  0.00  0.00    +0.000 OA
BRANCH  28  30
ATOM     30  C   UNL     1      -2.711  13.433  24.172  0.00  0.00    +0.000 C 
BRANCH  30  31
ATOM     31  C   UNL     1      -4.191  13.804  24.196  0.00  0.00    +0.000 C 
BRANCH  31  33
ATOM     32  C   UNL     1      -6.441  12.693  23.990  0.00  0.00    +0.000 C 
ATOM     33  C   UNL     1      -5.049  12.601  24.591  0.00  0.00    +0.000 C 
ENDBRANCH  31  33
ENDBRANCH  30  31
ENDBRANCH  28  30
ENDBRANCH   1  28
TORSDOF 6
ENDMDL
MODEL 9
REMARK VINA RESULT:      -6.9      8.405     11.601
REMARK  Name = 
REMARK  10 active torsions:
REMARK  status: ('A' for Active; 'I' for Inactive)
REMARK    1  A    between atoms: C_1  and  C_2
REMARK    2  A    between atoms: C_2  and  C_3
REMARK    3  A    between atoms: C_3  and  C_4
REMARK    4  A    between atoms: C_4  and  C_5
REMARK    5  A    between atoms: C_5  and  C_7
REMARK    6  A    between atoms: C_8  and  C_9
REMARK    7  A    between atoms: C_16  and  C_17
REMARK    8  A    between atoms: C_16  and  C_18
REMARK    9  A    between atoms: C_20  and  C_21
REMARK   10  A    between atoms: C_24  and  C_25
REMARK                            x       y       z     vdW  Elec       q    Type
REMARK                         _______ _______ _______ _____ _____    ______ ____
ROOT
ATOM      1  C   UNL     1      -2.044  13.662  22.029  0.00  0.00    +0.000 C 
ATOM      2  C   UNL     1      -2.672  14.332  21.026  0.00  0.00    +0.000 C 
ATOM      3  C   UNL     1      -4.156  14.573  20.894  0.00  0.00    +0.000 C 
ATOM      4  N   UNL     1      -1.913  14.876  19.989  0.00  0.00    +0.000 N 
ATOM      5  C   UNL     1      -0.550  15.086  20.082  0.00  0.00    +0.000 C 
ATOM      6  C   UNL     1       0.146  14.492  21.065  0.00  0.00    +0.000 C 
ATOM      7  C   UNL     1       1.557  14.874  21.324  0.00  0.00    +0.000 C 
ATOM      8  O   UNL     1       2.164  14.420  22.294  0.00  0.00    +0.000 OA
ATOM      9  C   UNL     1       2.184  15.935  20.442  0.00  0.00    +0.000 C 
ATOM     10  C   UNL     1       1.618  15.919  19.014  0.00  0.00    +0.000 C 
ATOM     11  C   UNL     1       2.149  17.135  18.238  0.00  0.00    +0.000 C 
ATOM     12  C   UNL     1       2.076  14.640  18.279  0.00  0.00    +0.000 C 
ATOM     13  C   UNL     1       0.076  16.006  19.067  0.00  0.00    +0.000 C 
ATOM     14  C   UNL     1      -0.525  13.462  21.960  0.00  0.00    +0.000 C 
ATOM     15  H   UNL     1      -2.420  15.396  19.276  0.00  0.00    +0.000 HD
ENDROOT
BRANCH  14  16
ATOM     16  C   UNL     1      -0.148  12.062  21.457  0.00  0.00    +0.000 A 
ATOM     17  C   UNL     1      -0.005  11.005  22.361  0.00  0.00    +0.000 A 
ATOM     18  C   UNL     1       0.492   9.768  21.935  0.00  0.00    +0.000 A 
ATOM     19  C   UNL     1       0.846   9.531  20.595  0.00  0.00    +0.000 A 
ATOM     20  C   UNL     1       0.663  10.587  19.692  0.00  0.00    +0.000 A 
ATOM     21  C   UNL     1       0.190  11.832  20.114  0.00  0.00    +0.000 A 
BRANCH  19  22
ATOM     22  C   UNL     1       1.425   8.238  20.163  0.00  0.00    +0.000 A 
ATOM     23  C   UNL     1       2.105   8.115  18.939  0.00  0.00    +0.000 A 
ATOM     24  C   UNL     1       2.604   6.888  18.499  0.00  0.00    +0.000 A 
ATOM     25  C   UNL     1       2.452   5.752  19.286  0.00  0.00    +0.000 A 
ATOM     26  C   UNL     1       1.806   5.845  20.514  0.00  0.00    +0.000 A 
ATOM     27  C   UNL     1       1.294   7.072  20.942  0.00  0.00    +0.000 A 
ENDBRANCH  19  22
ENDBRANCH  14  16
BRANCH   1  28
ATOM     28  C   UNL     1      -2.756  13.023  23.192  0.00  0.00    +0.000 C 
ATOM     29  O   UNL     1      -3.378  11.971  23.056  0.00  0.00    +0.000 OA
BRANCH  28  30
ATOM     30  C   UNL     1      -2.671  13.724  24.545  0.00  0.00    +0.000 C 
BRANCH  30  31
ATOM     31  C   UNL     1      -3.107  15.186  24.494  0.00  0.00    +0.000 C 
BRANCH  31  33
ATOM     32  C   UNL     1      -1.394  16.788  23.580  0.00  0.00    +0.000 C 
ATOM     33  C   UNL     1      -1.940  16.116  24.828  0.00  0.00    +0.000 C 
ENDBRANCH  31  33
ENDBRANCH  30  31
ENDBRANCH  28  30
ENDBRANCH   1  28
TORSDOF 6
ENDMDL
