MODEL 1
REMARK VINA RESULT:      -8.7      0.000      0.000
REMARK  Name = 
REMARK  8 active torsions:
REMARK  status: ('A' for Active; 'I' for Inactive)
REMARK    1  A    between atoms: C_1  and  N_2
REMARK    2  A    between atoms: N_2  and  C_3
REMARK    3  A    between atoms: N_2  and  C_4
REMARK    4  A    between atoms: C_4  and  C_5
REMARK    5  A    between atoms: C_13  and  C_14
REMARK    6  A    between atoms: C_17  and  O_18
REMARK    7  A    between atoms: O_18  and  C_19
REMARK    8  A    between atoms: C_25  and  C_26
REMARK                            x       y       z     vdW  Elec       q    Type
REMARK                         _______ _______ _______ _____ _____    ______ ____
ROOT
ATOM      1  C   UNL     1       6.336   4.152  14.131  0.00  0.00    +0.000 A 
ATOM      2  C   UNL     1       6.916   5.344  14.567  0.00  0.00    +0.000 A 
ATOM      3  C   UNL     1       6.720   5.724  15.879  0.00  0.00    +0.000 A 
ATOM      4  N   UNL     1       5.975   5.020  16.756  0.00  0.00    +0.000 NA
ATOM      5  C   UNL     1       5.420   3.859  16.340  0.00  0.00    +0.000 A 
ATOM      6  N   UNL     1       4.581   3.131  17.202  0.00  0.00    +0.000 N 
ATOM      7  C   UNL     1       3.889   3.685  18.284  0.00  0.00    +0.000 A 
ATOM      8  C   UNL     1       3.332   4.960  18.178  0.00  0.00    +0.000 A 
ATOM      9  C   UNL     1       2.694   5.561  19.264  0.00  0.00    +0.000 A 
ATOM     10  C   UNL     1       2.585   4.791  20.423  0.00  0.00    +0.000 A 
ATOM     11  C   UNL     1       3.098   3.501  20.434  0.00  0.00    +0.000 A 
ATOM     12  N   UNL     1       3.740   2.932  19.391  0.00  0.00    +0.000 NA
ATOM     13  C   UNL     1       5.602   3.387  15.048  0.00  0.00    +0.000 A 
ATOM     14  H   UNL     1       4.963   2.233  17.467  0.00  0.00    +0.000 HD
ENDROOT
BRANCH   9  15
ATOM     15  C   UNL     1       2.199   6.948  19.181  0.00  0.00    +0.000 A 
ATOM     16  C   UNL     1       2.238   7.688  17.987  0.00  0.00    +0.000 A 
ATOM     17  C   UNL     1       1.805   9.019  17.947  0.00  0.00    +0.000 A 
ATOM     18  C   UNL     1       1.326   9.663  19.097  0.00  0.00    +0.000 A 
ATOM     19  C   UNL     1       1.285   8.942  20.294  0.00  0.00    +0.000 A 
ATOM     20  C   UNL     1       1.695   7.598  20.315  0.00  0.00    +0.000 A 
BRANCH  19  21
ATOM     21  C   UNL     1       0.902   9.492  21.557  0.00  0.00    +0.000 C 
ATOM     22  N   UNL     1       0.572   9.902  22.589  0.00  0.00    +0.000 NA
ENDBRANCH  19  21
BRANCH  18  23
ATOM     23  O   UNL     1       1.018  10.976  18.885  0.00  0.00    +0.000 OA
BRANCH  23  24
ATOM     24  C   UNL     1       1.870  12.028  19.364  0.00  0.00    +0.000 C 
ATOM     25  C   UNL     1       1.105  13.021  20.243  0.00  0.00    +0.000 C 
ATOM     26  C   UNL     1       1.868  14.323  20.427  0.00  0.00    +0.000 C 
ATOM     27  O   UNL     1       2.252  14.868  19.168  0.00  0.00    +0.000 OA
ATOM     28  C   UNL     1       3.149  14.007  18.473  0.00  0.00    +0.000 C 
ATOM     29  C   UNL     1       2.457  12.704  18.122  0.00  0.00    +0.000 C 
ENDBRANCH  23  24
ENDBRANCH  18  23
ENDBRANCH   9  15
BRANCH   1  30
ATOM     30  C   UNL     1       6.471   3.703  12.696  0.00  0.00    +0.000 C 
BRANCH  30  32
ATOM     31  C   UNL     1       4.365   3.440  11.515  0.00  0.00    +0.000 C 
ATOM     32  N   UNL     1       5.422   2.763  12.272  0.00  0.00    +0.000 NA
ATOM     33  C   UNL     1       6.016   1.706  11.448  0.00  0.00    +0.000 C 
ENDBRANCH  30  32
ENDBRANCH   1  30
TORSDOF 6
ENDMDL
MODEL 2
REMARK VINA RESULT:      -8.5      1.371      1.720
REMARK  Name = 
REMARK  8 active torsions:
REMARK  status: ('A' for Active; 'I' for Inactive)
REMARK    1  A    between atoms: C_1  and  N_2
REMARK    2  A    between atoms: N_2  and  C_3
REMARK    3  A    between atoms: N_2  and  C_4
REMARK    4  A    between atoms: C_4  and  C_5
REMARK    5  A    between atoms: C_13  and  C_14
REMARK    6  A    between atoms: C_17  and  O_18
REMARK    7  A    between atoms: O_18  and  C_19
REMARK    8  A    between atoms: C_25  and  C_26
REMARK                            x       y       z     vdW  Elec       q    Type
REMARK                         _______ _______ _______ _____ _____    ______ ____
ROOT
ATOM      1  C   UNL     1       6.333   4.109  14.102  0.00  0.00    +0.000 A 
ATOM      2  C   UNL     1       6.925   5.267  14.611  0.00  0.00    +0.000 A 
ATOM      3  C   UNL     1       6.746   5.557  15.947  0.00  0.00    +0.000 A 
ATOM      4  N   UNL     1       6.007   4.800  16.784  0.00  0.00    +0.000 NA
ATOM      5  C   UNL     1       5.440   3.673  16.297  0.00  0.00    +0.000 A 
ATOM      6  N   UNL     1       4.606   2.892  17.117  0.00  0.00    +0.000 N 
ATOM      7  C   UNL     1       3.930   3.376  18.243  0.00  0.00    +0.000 A 
ATOM      8  C   UNL     1       3.380   4.658  18.229  0.00  0.00    +0.000 A 
ATOM      9  C   UNL     1       2.758   5.188  19.361  0.00  0.00    +0.000 A 
ATOM     10  C   UNL     1       2.656   4.341  20.466  0.00  0.00    +0.000 A 
ATOM     11  C   UNL     1       3.161   3.051  20.383  0.00  0.00    +0.000 A 
ATOM     12  N   UNL     1       3.789   2.551  19.298  0.00  0.00    +0.000 NA
ATOM     13  C   UNL     1       5.605   3.289  14.973  0.00  0.00    +0.000 A 
ATOM     14  H   UNL     1       4.986   1.977  17.316  0.00  0.00    +0.000 HD
ENDROOT
BRANCH   9  15
ATOM     15  C   UNL     1       2.271   6.580  19.377  0.00  0.00    +0.000 A 
ATOM     16  C   UNL     1       2.253   7.382  18.224  0.00  0.00    +0.000 A 
ATOM     17  C   UNL     1       1.829   8.715  18.277  0.00  0.00    +0.000 A 
ATOM     18  C   UNL     1       1.417   9.301  19.483  0.00  0.00    +0.000 A 
ATOM     19  C   UNL     1       1.433   8.517  20.641  0.00  0.00    +0.000 A 
ATOM     20  C   UNL     1       1.833   7.172  20.569  0.00  0.00    +0.000 A 
BRANCH  19  21
ATOM     21  C   UNL     1       1.122   9.002  21.950  0.00  0.00    +0.000 C 
ATOM     22  N   UNL     1       0.885   9.432  22.999  0.00  0.00    +0.000 NA
ENDBRANCH  19  21
BRANCH  18  23
ATOM     23  O   UNL     1       1.109  10.624  19.357  0.00  0.00    +0.000 OA
BRANCH  23  24
ATOM     24  C   UNL     1      -0.118  11.157  19.878  0.00  0.00    +0.000 C 
ATOM     25  C   UNL     1      -1.153  11.384  18.773  0.00  0.00    +0.000 C 
ATOM     26  C   UNL     1      -2.281  12.296  19.228  0.00  0.00    +0.000 C 
ATOM     27  O   UNL     1      -1.766  13.507  19.772  0.00  0.00    +0.000 OA
ATOM     28  C   UNL     1      -0.985  13.271  20.940  0.00  0.00    +0.000 C 
ATOM     29  C   UNL     1       0.250  12.463  20.589  0.00  0.00    +0.000 C 
ENDBRANCH  23  24
ENDBRANCH  18  23
ENDBRANCH   9  15
BRANCH   1  30
ATOM     30  C   UNL     1       6.450   3.758  12.638  0.00  0.00    +0.000 C 
BRANCH  30  32
ATOM     31  C   UNL     1       4.374   3.336  11.449  0.00  0.00    +0.000 C 
ATOM     32  N   UNL     1       5.483   2.740  12.199  0.00  0.00    +0.000 NA
ATOM     33  C   UNL     1       6.165   1.747  11.363  0.00  0.00    +0.000 C 
ENDBRANCH  30  32
ENDBRANCH   1  30
TORSDOF 6
ENDMDL
MODEL 3
REMARK VINA RESULT:      -8.5      1.431      2.026
REMARK  Name = 
REMARK  8 active torsions:
REMARK  status: ('A' for Active; 'I' for Inactive)
REMARK    1  A    between atoms: C_1  and  N_2
REMARK    2  A    between atoms: N_2  and  C_3
REMARK    3  A    between atoms: N_2  and  C_4
REMARK    4  A    between atoms: C_4  and  C_5
REMARK    5  A    between atoms: C_13  and  C_14
REMARK    6  A    between atoms: C_17  and  O_18
REMARK    7  A    between atoms: O_18  and  C_19
REMARK    8  A    between atoms: C_25  and  C_26
REMARK                            x       y       z     vdW  Elec       q    Type
REMARK                         _______ _______ _______ _____ _____    ______ ____
ROOT
ATOM      1  C   UNL     1       6.326   4.164  14.150  0.00  0.00    +0.000 A 
ATOM      2  C   UNL     1       6.943   5.305  14.665  0.00  0.00    +0.000 A 
ATOM      3  C   UNL     1       6.753   5.603  15.999  0.00  0.00    +0.000 A 
ATOM      4  N   UNL     1       5.982   4.868  16.826  0.00  0.00    +0.000 NA
ATOM      5  C   UNL     1       5.390   3.756  16.333  0.00  0.00    +0.000 A 
ATOM      6  N   UNL     1       4.524   3.001  17.142  0.00  0.00    +0.000 N 
ATOM      7  C   UNL     1       3.845   3.506  18.258  0.00  0.00    +0.000 A 
ATOM      8  C   UNL     1       3.331   4.803  18.234  0.00  0.00    +0.000 A 
ATOM      9  C   UNL     1       2.709   5.352  19.357  0.00  0.00    +0.000 A 
ATOM     10  C   UNL     1       2.569   4.511  20.462  0.00  0.00    +0.000 A 
ATOM     11  C   UNL     1       3.039   3.207  20.388  0.00  0.00    +0.000 A 
ATOM     12  N   UNL     1       3.667   2.687  19.312  0.00  0.00    +0.000 NA
ATOM     13  C   UNL     1       5.563   3.365  15.013  0.00  0.00    +0.000 A 
ATOM     14  H   UNL     1       4.875   2.076  17.349  0.00  0.00    +0.000 HD
ENDROOT
BRANCH   9  15
ATOM     15  C   UNL     1       2.261   6.757  19.364  0.00  0.00    +0.000 A 
ATOM     16  C   UNL     1       2.368   7.584  18.234  0.00  0.00    +0.000 A 
ATOM     17  C   UNL     1       1.978   8.928  18.282  0.00  0.00    +0.000 A 
ATOM     18  C   UNL     1       1.475   9.498  19.460  0.00  0.00    +0.000 A 
ATOM     19  C   UNL     1       1.366   8.690  20.595  0.00  0.00    +0.000 A 
ATOM     20  C   UNL     1       1.734   7.335  20.526  0.00  0.00    +0.000 A 
BRANCH  19  21
ATOM     21  C   UNL     1       0.953   9.154  21.883  0.00  0.00    +0.000 C 
ATOM     22  N   UNL     1       0.599   9.493  22.932  0.00  0.00    +0.000 NA
ENDBRANCH  19  21
BRANCH  18  23
ATOM     23  O   UNL     1       1.217  10.833  19.340  0.00  0.00    +0.000 OA
BRANCH  23  24
ATOM     24  C   UNL     1       0.037  11.306  18.672  0.00  0.00    +0.000 C 
ATOM     25  C   UNL     1      -0.775  12.255  19.558  0.00  0.00    +0.000 C 
ATOM     26  C   UNL     1      -2.191  12.446  19.040  0.00  0.00    +0.000 C 
ATOM     27  O   UNL     1      -2.829  11.189  18.832  0.00  0.00    +0.000 OA
ATOM     28  C   UNL     1      -2.167  10.421  17.831  0.00  0.00    +0.000 C 
ATOM     29  C   UNL     1      -0.767  10.060  18.289  0.00  0.00    +0.000 C 
ENDBRANCH  23  24
ENDBRANCH  18  23
ENDBRANCH   9  15
BRANCH   1  30
ATOM     30  C   UNL     1       6.453   3.806  12.689  0.00  0.00    +0.000 C 
BRANCH  30  32
ATOM     31  C   UNL     1       4.394   3.331  11.490  0.00  0.00    +0.000 C 
ATOM     32  N   UNL     1       5.509   2.764  12.254  0.00  0.00    +0.000 NA
ATOM     33  C   UNL     1       6.217   1.777  11.433  0.00  0.00    +0.000 C 
ENDBRANCH  30  32
ENDBRANCH   1  30
TORSDOF 6
ENDMDL
MODEL 4
REMARK VINA RESULT:      -7.9      1.012      1.162
REMARK  Name = 
REMARK  8 active torsions:
REMARK  status: ('A' for Active; 'I' for Inactive)
REMARK    1  A    between atoms: C_1  and  N_2
REMARK    2  A    between atoms: N_2  and  C_3
REMARK    3  A    between atoms: N_2  and  C_4
REMARK    4  A    between atoms: C_4  and  C_5
REMARK    5  A    between atoms: C_13  and  C_14
REMARK    6  A    between atoms: C_17  and  O_18
REMARK    7  A    between atoms: O_18  and  C_19
REMARK    8  A    between atoms: C_25  and  C_26
REMARK                            x       y       z     vdW  Elec       q    Type
REMARK                         _______ _______ _______ _____ _____    ______ ____
ROOT
ATOM      1  C   UNL     1       6.783   4.785  15.430  0.00  0.00    +0.000 A 
ATOM      2  C   UNL     1       7.268   5.930  16.063  0.00  0.00    +0.000 A 
ATOM      3  C   UNL     1       6.851   6.188  17.353  0.00  0.00    +0.000 A 
ATOM      4  N   UNL     1       5.978   5.411  18.025  0.00  0.00    +0.000 NA
ATOM      5  C   UNL     1       5.514   4.295  17.418  0.00  0.00    +0.000 A 
ATOM      6  N   UNL     1       4.551   3.494  18.057  0.00  0.00    +0.000 N 
ATOM      7  C   UNL     1       3.681   3.950  19.055  0.00  0.00    +0.000 A 
ATOM      8  C   UNL     1       3.135   5.232  18.972  0.00  0.00    +0.000 A 
ATOM      9  C   UNL     1       2.318   5.734  19.987  0.00  0.00    +0.000 A 
ATOM     10  C   UNL     1       2.025   4.861  21.036  0.00  0.00    +0.000 A 
ATOM     11  C   UNL     1       2.544   3.574  21.015  0.00  0.00    +0.000 A 
ATOM     12  N   UNL     1       3.358   3.100  20.048  0.00  0.00    +0.000 NA
ATOM     13  C   UNL     1       5.915   3.943  16.137  0.00  0.00    +0.000 A 
ATOM     14  H   UNL     1       4.893   2.574  18.301  0.00  0.00    +0.000 HD
ENDROOT
BRANCH   9  15
ATOM     15  C   UNL     1       1.829   7.125  19.948  0.00  0.00    +0.000 A 
ATOM     16  C   UNL     1       1.933   7.924  18.798  0.00  0.00    +0.000 A 
ATOM     17  C   UNL     1       1.503   9.257  18.803  0.00  0.00    +0.000 A 
ATOM     18  C   UNL     1       0.961   9.843  19.956  0.00  0.00    +0.000 A 
ATOM     19  C   UNL     1       0.854   9.061  21.110  0.00  0.00    +0.000 A 
ATOM     20  C   UNL     1       1.263   7.717  21.084  0.00  0.00    +0.000 A 
BRANCH  19  21
ATOM     21  C   UNL     1       0.403   9.547  22.378  0.00  0.00    +0.000 C 
ATOM     22  N   UNL     1       0.016   9.970  23.384  0.00  0.00    +0.000 NA
ENDBRANCH  19  21
BRANCH  18  23
ATOM     23  O   UNL     1       0.666  11.166  19.795  0.00  0.00    +0.000 OA
BRANCH  23  24
ATOM     24  C   UNL     1       1.529  12.190  20.312  0.00  0.00    +0.000 C 
ATOM     25  C   UNL     1       0.768  13.179  21.199  0.00  0.00    +0.000 C 
ATOM     26  C   UNL     1       1.553  14.462  21.423  0.00  0.00    +0.000 C 
ATOM     27  O   UNL     1       1.969  15.026  20.184  0.00  0.00    +0.000 OA
ATOM     28  C   UNL     1       2.861  14.163  19.485  0.00  0.00    +0.000 C 
ATOM     29  C   UNL     1       2.150  12.881  19.094  0.00  0.00    +0.000 C 
ENDBRANCH  23  24
ENDBRANCH  18  23
ENDBRANCH   9  15
BRANCH   1  30
ATOM     30  C   UNL     1       7.162   4.468  14.003  0.00  0.00    +0.000 C 
BRANCH  30  32
ATOM     31  C   UNL     1       4.907   4.174  13.147  0.00  0.00    +0.000 C 
ATOM     32  N   UNL     1       6.222   3.555  13.334  0.00  0.00    +0.000 NA
ATOM     33  C   UNL     1       6.769   3.160  12.032  0.00  0.00    +0.000 C 
ENDBRANCH  30  32
ENDBRANCH   1  30
TORSDOF 6
ENDMDL
MODEL 5
REMARK VINA RESULT:      -7.8      4.359     11.217
REMARK  Name = 
REMARK  8 active torsions:
REMARK  status: ('A' for Active; 'I' for Inactive)
REMARK    1  A    between atoms: C_1  and  N_2
REMARK    2  A    between atoms: N_2  and  C_3
REMARK    3  A    between atoms: N_2  and  C_4
REMARK    4  A    between atoms: C_4  and  C_5
REMARK    5  A    between atoms: C_13  and  C_14
REMARK    6  A    between atoms: C_17  and  O_18
REMARK    7  A    between atoms: O_18  and  C_19
REMARK    8  A    between atoms: C_25  and  C_26
REMARK                            x       y       z     vdW  Elec       q    Type
REMARK                         _______ _______ _______ _____ _____    ______ ____
ROOT
ATOM      1  C   UNL     1      -4.419  12.824  22.214  0.00  0.00    +0.000 A 
ATOM      2  C   UNL     1      -3.622  12.288  23.227  0.00  0.00    +0.000 A 
ATOM      3  C   UNL     1      -2.256  12.269  23.042  0.00  0.00    +0.000 A 
ATOM      4  N   UNL     1      -1.648  12.712  21.922  0.00  0.00    +0.000 NA
ATOM      5  C   UNL     1      -2.416  13.240  20.942  0.00  0.00    +0.000 A 
ATOM      6  N   UNL     1      -1.829  13.651  19.732  0.00  0.00    +0.000 N 
ATOM      7  C   UNL     1      -0.610  13.168  19.241  0.00  0.00    +0.000 A 
ATOM      8  C   UNL     1      -0.277  11.823  19.404  0.00  0.00    +0.000 A 
ATOM      9  C   UNL     1       0.960  11.331  18.983  0.00  0.00    +0.000 A 
ATOM     10  C   UNL     1       1.799  12.237  18.331  0.00  0.00    +0.000 A 
ATOM     11  C   UNL     1       1.370  13.543  18.139  0.00  0.00    +0.000 A 
ATOM     12  N   UNL     1       0.186  14.025  18.574  0.00  0.00    +0.000 NA
ATOM     13  C   UNL     1      -3.794  13.334  21.068  0.00  0.00    +0.000 A 
ATOM     14  H   UNL     1      -1.884  14.649  19.579  0.00  0.00    +0.000 HD
ENDROOT
BRANCH   9  15
ATOM     15  C   UNL     1       1.352   9.934  19.250  0.00  0.00    +0.000 A 
ATOM     16  C   UNL     1       0.997   9.270  20.436  0.00  0.00    +0.000 A 
ATOM     17  C   UNL     1       1.422   7.959  20.685  0.00  0.00    +0.000 A 
ATOM     18  C   UNL     1       2.223   7.267  19.766  0.00  0.00    +0.000 A 
ATOM     19  C   UNL     1       2.588   7.915  18.582  0.00  0.00    +0.000 A 
ATOM     20  C   UNL     1       2.132   9.221  18.331  0.00  0.00    +0.000 A 
BRANCH  19  21
ATOM     21  C   UNL     1       3.467   7.367  17.596  0.00  0.00    +0.000 C 
ATOM     22  N   UNL     1       4.154   6.889  16.795  0.00  0.00    +0.000 NA
ENDBRANCH  19  21
BRANCH  18  23
ATOM     23  O   UNL     1       2.599   6.032  20.208  0.00  0.00    +0.000 OA
BRANCH  23  24
ATOM     24  C   UNL     1       1.680   4.928  20.208  0.00  0.00    +0.000 C 
ATOM     25  C   UNL     1       1.999   3.924  21.319  0.00  0.00    +0.000 C 
ATOM     26  C   UNL     1       1.310   2.588  21.093  0.00  0.00    +0.000 C 
ATOM     27  O   UNL     1       1.588   2.088  19.789  0.00  0.00    +0.000 OA
ATOM     28  C   UNL     1       1.075   2.946  18.775  0.00  0.00    +0.000 C 
ATOM     29  C   UNL     1       1.780   4.289  18.820  0.00  0.00    +0.000 C 
ENDBRANCH  23  24
ENDBRANCH  18  23
ENDBRANCH   9  15
BRANCH   1  30
ATOM     30  C   UNL     1      -5.924  12.833  22.333  0.00  0.00    +0.000 C 
BRANCH  30  32
ATOM     31  C   UNL     1      -7.384  11.331  21.102  0.00  0.00    +0.000 C 
ATOM     32  N   UNL     1      -6.616  12.578  21.060  0.00  0.00    +0.000 NA
ATOM     33  C   UNL     1      -7.513  13.698  20.761  0.00  0.00    +0.000 C 
ENDBRANCH  30  32
ENDBRANCH   1  30
TORSDOF 6
ENDMDL
MODEL 6
REMARK VINA RESULT:      -7.8      0.969      1.185
REMARK  Name = 
REMARK  8 active torsions:
REMARK  status: ('A' for Active; 'I' for Inactive)
REMARK    1  A    between atoms: C_1  and  N_2
REMARK    2  A    between atoms: N_2  and  C_3
REMARK    3  A    between atoms: N_2  and  C_4
REMARK    4  A    between atoms: C_4  and  C_5
REMARK    5  A    between atoms: C_13  and  C_14
REMARK    6  A    between atoms: C_17  and  O_18
REMARK    7  A    between atoms: O_18  and  C_19
REMARK    8  A    between atoms: C_25  and  C_26
REMARK                            x       y       z     vdW  Elec       q    Type
REMARK                         _______ _______ _______ _____ _____    ______ ____
ROOT
ATOM      1  C   UNL     1       6.556   4.492  14.574  0.00  0.00    +0.000 A 
ATOM      2  C   UNL     1       7.099   5.652  15.129  0.00  0.00    +0.000 A 
ATOM      3  C   UNL     1       6.832   5.928  16.454  0.00  0.00    +0.000 A 
ATOM      4  N   UNL     1       6.052   5.153  17.235  0.00  0.00    +0.000 NA
ATOM      5  C   UNL     1       5.533   4.023  16.703  0.00  0.00    +0.000 A 
ATOM      6  N   UNL     1       4.660   3.223  17.463  0.00  0.00    +0.000 N 
ATOM      7  C   UNL     1       3.907   3.687  18.547  0.00  0.00    +0.000 A 
ATOM      8  C   UNL     1       3.341   4.962  18.510  0.00  0.00    +0.000 A 
ATOM      9  C   UNL     1       2.641   5.472  19.605  0.00  0.00    +0.000 A 
ATOM     10  C   UNL     1       2.483   4.613  20.695  0.00  0.00    +0.000 A 
ATOM     11  C   UNL     1       3.010   3.331  20.633  0.00  0.00    +0.000 A 
ATOM     12  N   UNL     1       3.712   2.850  19.584  0.00  0.00    +0.000 NA
ATOM     13  C   UNL     1       5.787   3.653  15.390  0.00  0.00    +0.000 A 
ATOM     14  H   UNL     1       5.039   2.311  17.678  0.00  0.00    +0.000 HD
ENDROOT
BRANCH   9  15
ATOM     15  C   UNL     1       2.135   6.857  19.602  0.00  0.00    +0.000 A 
ATOM     16  C   UNL     1       2.182   7.671  18.458  0.00  0.00    +0.000 A 
ATOM     17  C   UNL     1       1.736   8.998  18.496  0.00  0.00    +0.000 A 
ATOM     18  C   UNL     1       1.237   9.564  19.678  0.00  0.00    +0.000 A 
ATOM     19  C   UNL     1       1.188   8.769  20.827  0.00  0.00    +0.000 A 
ATOM     20  C   UNL     1       1.611   7.430  20.768  0.00  0.00    +0.000 A 
BRANCH  19  21
ATOM     21  C   UNL     1       0.785   9.236  22.117  0.00  0.00    +0.000 C 
ATOM     22  N   UNL     1       0.419   9.604  23.152  0.00  0.00    +0.000 NA
ENDBRANCH  19  21
BRANCH  18  23
ATOM     23  O   UNL     1       0.920  10.885  19.545  0.00  0.00    +0.000 OA
BRANCH  23  24
ATOM     24  C   UNL     1       0.935  11.773  20.673  0.00  0.00    +0.000 C 
ATOM     25  C   UNL     1      -0.466  12.295  21.004  0.00  0.00    +0.000 C 
ATOM     26  C   UNL     1      -0.419  13.512  21.913  0.00  0.00    +0.000 C 
ATOM     27  O   UNL     1       0.440  14.513  21.377  0.00  0.00    +0.000 OA
ATOM     28  C   UNL     1       1.788  14.061  21.293  0.00  0.00    +0.000 C 
ATOM     29  C   UNL     1       1.894  12.910  20.310  0.00  0.00    +0.000 C 
ENDBRANCH  23  24
ENDBRANCH  18  23
ENDBRANCH   9  15
BRANCH   1  30
ATOM     30  C   UNL     1       6.770   4.156  13.118  0.00  0.00    +0.000 C 
BRANCH  30  32
ATOM     31  C   UNL     1       4.704   3.665  11.938  0.00  0.00    +0.000 C 
ATOM     32  N   UNL     1       5.873   3.102  12.619  0.00  0.00    +0.000 NA
ATOM     33  C   UNL     1       6.608   2.232  11.696  0.00  0.00    +0.000 C 
ENDBRANCH  30  32
ENDBRANCH   1  30
TORSDOF 6
ENDMDL
MODEL 7
REMARK VINA RESULT:      -7.7      4.345     11.482
REMARK  Name = 
REMARK  8 active torsions:
REMARK  status: ('A' for Active; 'I' for Inactive)
REMARK    1  A    between atoms: C_1  and  N_2
REMARK    2  A    between atoms: N_2  and  C_3
REMARK    3  A    between atoms: N_2  and  C_4
REMARK    4  A    between atoms: C_4  and  C_5
REMARK    5  A    between atoms: C_13  and  C_14
REMARK    6  A    between atoms: C_17  and  O_18
REMARK    7  A    between atoms: O_18  and  C_19
REMARK    8  A    between atoms: C_25  and  C_26
REMARK                            x       y       z     vdW  Elec       q    Type
REMARK                         _______ _______ _______ _____ _____    ______ ____
ROOT
ATOM      1  C   UNL     1      -4.246  12.891  22.146  0.00  0.00    +0.000 A 
ATOM      2  C   UNL     1      -3.490  12.297  23.158  0.00  0.00    +0.000 A 
ATOM      3  C   UNL     1      -2.122  12.222  22.992  0.00  0.00    +0.000 A 
ATOM      4  N   UNL     1      -1.478  12.666  21.893  0.00  0.00    +0.000 NA
ATOM      5  C   UNL     1      -2.207  13.251  20.914  0.00  0.00    +0.000 A 
ATOM      6  N   UNL     1      -1.584  13.664  19.724  0.00  0.00    +0.000 N 
ATOM      7  C   UNL     1      -0.380  13.140  19.239  0.00  0.00    +0.000 A 
ATOM      8  C   UNL     1      -0.107  11.778  19.374  0.00  0.00    +0.000 A 
ATOM      9  C   UNL     1       1.114  11.243  18.959  0.00  0.00    +0.000 A 
ATOM     10  C   UNL     1       2.001  12.128  18.343  0.00  0.00    +0.000 A 
ATOM     11  C   UNL     1       1.632  13.456  18.176  0.00  0.00    +0.000 A 
ATOM     12  N   UNL     1       0.463  13.978  18.605  0.00  0.00    +0.000 NA
ATOM     13  C   UNL     1      -3.582  13.401  21.023  0.00  0.00    +0.000 A 
ATOM     14  H   UNL     1      -1.594  14.667  19.595  0.00  0.00    +0.000 HD
ENDROOT
BRANCH   9  15
ATOM     15  C   UNL     1       1.440   9.825  19.197  0.00  0.00    +0.000 A 
ATOM     16  C   UNL     1       0.989   9.133  20.333  0.00  0.00    +0.000 A 
ATOM     17  C   UNL     1       1.353   7.799  20.558  0.00  0.00    +0.000 A 
ATOM     18  C   UNL     1       2.187   7.111  19.665  0.00  0.00    +0.000 A 
ATOM     19  C   UNL     1       2.647   7.788  18.531  0.00  0.00    +0.000 A 
ATOM     20  C   UNL     1       2.252   9.117  18.302  0.00  0.00    +0.000 A 
BRANCH  19  21
ATOM     21  C   UNL     1       3.568   7.243  17.582  0.00  0.00    +0.000 C 
ATOM     22  N   UNL     1       4.344   6.819  16.835  0.00  0.00    +0.000 NA
ENDBRANCH  19  21
BRANCH  18  23
ATOM     23  O   UNL     1       2.492   5.849  20.083  0.00  0.00    +0.000 OA
BRANCH  23  24
ATOM     24  C   UNL     1       2.134   4.698  19.303  0.00  0.00    +0.000 C 
ATOM     25  C   UNL     1       1.002   3.899  19.955  0.00  0.00    +0.000 C 
ATOM     26  C   UNL     1       0.883   2.501  19.372  0.00  0.00    +0.000 C 
ATOM     27  O   UNL     1       2.138   1.827  19.409  0.00  0.00    +0.000 OA
ATOM     28  C   UNL     1       3.112   2.484  18.603  0.00  0.00    +0.000 C 
ATOM     29  C   UNL     1       3.410   3.863  19.161  0.00  0.00    +0.000 C 
ENDBRANCH  23  24
ENDBRANCH  18  23
ENDBRANCH   9  15
BRANCH   1  30
ATOM     30  C   UNL     1      -5.751  12.963  22.243  0.00  0.00    +0.000 C 
BRANCH  30  32
ATOM     31  C   UNL     1      -6.268  14.884  23.637  0.00  0.00    +0.000 C 
ATOM     32  N   UNL     1      -6.235  13.421  23.555  0.00  0.00    +0.000 NA
ATOM     33  C   UNL     1      -7.577  12.884  23.794  0.00  0.00    +0.000 C 
ENDBRANCH  30  32
ENDBRANCH   1  30
TORSDOF 6
ENDMDL
MODEL 8
REMARK VINA RESULT:      -7.6      3.288      9.735
REMARK  Name = 
REMARK  8 active torsions:
REMARK  status: ('A' for Active; 'I' for Inactive)
REMARK    1  A    between atoms: C_1  and  N_2
REMARK    2  A    between atoms: N_2  and  C_3
REMARK    3  A    between atoms: N_2  and  C_4
REMARK    4  A    between atoms: C_4  and  C_5
REMARK    5  A    between atoms: C_13  and  C_14
REMARK    6  A    between atoms: C_17  and  O_18
REMARK    7  A    between atoms: O_18  and  C_19
REMARK    8  A    between atoms: C_25  and  C_26
REMARK                            x       y       z     vdW  Elec       q    Type
REMARK                         _______ _______ _______ _____ _____    ______ ____
ROOT
ATOM      1  C   UNL     1       0.736  15.224  19.385  0.00  0.00    +0.000 A 
ATOM      2  C   UNL     1       0.304  14.583  18.223  0.00  0.00    +0.000 A 
ATOM      3  C   UNL     1      -0.243  13.322  18.337  0.00  0.00    +0.000 A 
ATOM      4  N   UNL     1      -0.357  12.662  19.508  0.00  0.00    +0.000 NA
ATOM      5  C   UNL     1       0.051  13.283  20.638  0.00  0.00    +0.000 A 
ATOM      6  N   UNL     1       0.013  12.604  21.868  0.00  0.00    +0.000 N 
ATOM      7  C   UNL     1       0.024  11.211  22.002  0.00  0.00    +0.000 A 
ATOM      8  C   UNL     1       0.809  10.434  21.148  0.00  0.00    +0.000 A 
ATOM      9  C   UNL     1       0.787   9.040  21.218  0.00  0.00    +0.000 A 
ATOM     10  C   UNL     1       0.000   8.482  22.228  0.00  0.00    +0.000 A 
ATOM     11  C   UNL     1      -0.696   9.319  23.089  0.00  0.00    +0.000 A 
ATOM     12  N   UNL     1      -0.697  10.667  23.001  0.00  0.00    +0.000 NA
ATOM     13  C   UNL     1       0.576  14.568  20.612  0.00  0.00    +0.000 A 
ATOM     14  H   UNL     1      -0.646  13.003  22.524  0.00  0.00    +0.000 HD
ENDROOT
BRANCH   9  15
ATOM     15  C   UNL     1       1.535   8.220  20.247  0.00  0.00    +0.000 A 
ATOM     16  C   UNL     1       1.882   8.698  18.973  0.00  0.00    +0.000 A 
ATOM     17  C   UNL     1       2.552   7.882  18.053  0.00  0.00    +0.000 A 
ATOM     18  C   UNL     1       2.892   6.558  18.367  0.00  0.00    +0.000 A 
ATOM     19  C   UNL     1       2.551   6.067  19.630  0.00  0.00    +0.000 A 
ATOM     20  C   UNL     1       1.904   6.904  20.555  0.00  0.00    +0.000 A 
BRANCH  19  21
ATOM     21  C   UNL     1       2.758   4.717  20.057  0.00  0.00    +0.000 C 
ATOM     22  N   UNL     1       2.961   3.624  20.381  0.00  0.00    +0.000 NA
ENDBRANCH  19  21
BRANCH  18  23
ATOM     23  O   UNL     1       3.474   5.894  17.326  0.00  0.00    +0.000 OA
BRANCH  23  24
ATOM     24  C   UNL     1       4.857   5.510  17.367  0.00  0.00    +0.000 C 
ATOM     25  C   UNL     1       5.781   6.726  17.473  0.00  0.00    +0.000 C 
ATOM     26  C   UNL     1       7.219   6.379  17.123  0.00  0.00    +0.000 C 
ATOM     27  O   UNL     1       7.291   5.729  15.858  0.00  0.00    +0.000 OA
ATOM     28  C   UNL     1       6.600   4.483  15.865  0.00  0.00    +0.000 C 
ATOM     29  C   UNL     1       5.117   4.709  16.088  0.00  0.00    +0.000 C 
ENDBRANCH  23  24
ENDBRANCH  18  23
ENDBRANCH   9  15
BRANCH   1  30
ATOM     30  C   UNL     1       1.387  16.585  19.325  0.00  0.00    +0.000 C 
BRANCH  30  32
ATOM     31  C   UNL     1       3.521  16.678  18.168  0.00  0.00    +0.000 C 
ATOM     32  N   UNL     1       2.851  16.543  19.464  0.00  0.00    +0.000 NA
ATOM     33  C   UNL     1       3.287  17.621  20.357  0.00  0.00    +0.000 C 
ENDBRANCH  30  32
ENDBRANCH   1  30
TORSDOF 6
ENDMDL
MODEL 9
REMARK VINA RESULT:      -7.5      2.099      2.844
REMARK  Name = 
REMARK  8 active torsions:
REMARK  status: ('A' for Active; 'I' for Inactive)
REMARK    1  A    between atoms: C_1  and  N_2
REMARK    2  A    between atoms: N_2  and  C_3
REMARK    3  A    between atoms: N_2  and  C_4
REMARK    4  A    between atoms: C_4  and  C_5
REMARK    5  A    between atoms: C_13  and  C_14
REMARK    6  A    between atoms: C_17  and  O_18
REMARK    7  A    between atoms: O_18  and  C_19
REMARK    8  A    between atoms: C_25  and  C_26
REMARK                            x       y       z     vdW  Elec       q    Type
REMARK                         _______ _______ _______ _____ _____    ______ ____
ROOT
ATOM      1  C   UNL     1       6.538   4.719  15.376  0.00  0.00    +0.000 A 
ATOM      2  C   UNL     1       7.135   5.615  16.264  0.00  0.00    +0.000 A 
ATOM      3  C   UNL     1       6.688   5.635  17.569  0.00  0.00    +0.000 A 
ATOM      4  N   UNL     1       5.686   4.857  18.027  0.00  0.00    +0.000 NA
ATOM      5  C   UNL     1       5.112   3.981  17.171  0.00  0.00    +0.000 A 
ATOM      6  N   UNL     1       4.019   3.201  17.589  0.00  0.00    +0.000 N 
ATOM      7  C   UNL     1       3.165   3.540  18.645  0.00  0.00    +0.000 A 
ATOM      8  C   UNL     1       2.798   4.871  18.845  0.00  0.00    +0.000 A 
ATOM      9  C   UNL     1       2.000   5.244  19.929  0.00  0.00    +0.000 A 
ATOM     10  C   UNL     1       1.540   4.208  20.745  0.00  0.00    +0.000 A 
ATOM     11  C   UNL     1       1.885   2.899  20.442  0.00  0.00    +0.000 A 
ATOM     12  N   UNL     1       2.681   2.543  19.411  0.00  0.00    +0.000 NA
ATOM     13  C   UNL     1       5.531   3.870  15.853  0.00  0.00    +0.000 A 
ATOM     14  H   UNL     1       4.225   2.211  17.624  0.00  0.00    +0.000 HD
ENDROOT
BRANCH   9  15
ATOM     15  C   UNL     1       1.701   6.663  20.197  0.00  0.00    +0.000 A 
ATOM     16  C   UNL     1       1.075   7.086  21.381  0.00  0.00    +0.000 A 
ATOM     17  C   UNL     1       0.760   8.434  21.590  0.00  0.00    +0.000 A 
ATOM     18  C   UNL     1       1.049   9.407  20.623  0.00  0.00    +0.000 A 
ATOM     19  C   UNL     1       1.669   9.002  19.438  0.00  0.00    +0.000 A 
ATOM     20  C   UNL     1       2.006   7.650  19.252  0.00  0.00    +0.000 A 
BRANCH  19  21
ATOM     21  C   UNL     1       1.946   9.867  18.332  0.00  0.00    +0.000 C 
ATOM     22  N   UNL     1       2.210  10.567  17.449  0.00  0.00    +0.000 NA
ENDBRANCH  19  21
BRANCH  18  23
ATOM     23  O   UNL     1       0.606  10.652  20.968  0.00  0.00    +0.000 OA
BRANCH  23  24
ATOM     24  C   UNL     1      -0.794  10.968  20.976  0.00  0.00    +0.000 C 
ATOM     25  C   UNL     1      -1.208  11.743  19.722  0.00  0.00    +0.000 C 
ATOM     26  C   UNL     1      -2.559  12.419  19.892  0.00  0.00    +0.000 C 
ATOM     27  O   UNL     1      -2.585  13.212  21.075  0.00  0.00    +0.000 OA
ATOM     28  C   UNL     1      -2.419  12.417  22.245  0.00  0.00    +0.000 C 
ATOM     29  C   UNL     1      -1.043  11.778  22.252  0.00  0.00    +0.000 C 
ENDBRANCH  23  24
ENDBRANCH  18  23
ENDBRANCH   9  15
BRANCH   1  30
ATOM     30  C   UNL     1       6.948   4.679  13.923  0.00  0.00    +0.000 C 
BRANCH  30  32
ATOM     31  C   UNL     1       4.926   4.004  12.757  0.00  0.00    +0.000 C 
ATOM     32  N   UNL     1       6.282   3.616  13.154  0.00  0.00    +0.000 NA
ATOM     33  C   UNL     1       7.075   3.309  11.959  0.00  0.00    +0.000 C 
ENDBRANCH  30  32
ENDBRANCH   1  30
TORSDOF 6
ENDMDL
