MODEL 1
REMARK VINA RESULT:      -7.0      0.000      0.000
REMARK  Name = 
REMARK  6 active torsions:
REMARK  status: ('A' for Active; 'I' for Inactive)
REMARK    1  A    between atoms: C_1  and  O_2
REMARK    2  A    between atoms: O_2  and  C_3
REMARK    3  A    between atoms: C_6  and  C_7
REMARK    4  A    between atoms: C_10  and  C_11
REMARK    5  A    between atoms: C_11  and  O_12
REMARK    6  A    between atoms: C_15  and  N_16
REMARK                            x       y       z     vdW  Elec       q    Type
REMARK                         _______ _______ _______ _____ _____    ______ ____
ROOT
ATOM      1  C   UNL     1       6.385   6.207  17.156  0.00  0.00    +0.000 A 
ATOM      2  C   UNL     1       5.116   6.726  16.894  0.00  0.00    +0.000 A 
ATOM      3  C   UNL     1       3.975   6.035  17.310  0.00  0.00    +0.000 A 
ATOM      4  C   UNL     1       4.080   4.802  17.967  0.00  0.00    +0.000 A 
ATOM      5  C   UNL     1       5.359   4.258  18.159  0.00  0.00    +0.000 A 
ATOM      6  C   UNL     1       6.514   4.964  17.802  0.00  0.00    +0.000 A 
ENDROOT
BRANCH   4   7
ATOM      7  C   UNL     1       2.898   4.105  18.469  0.00  0.00    +0.000 A 
ATOM      8  C   UNL     1       1.787   3.540  17.872  0.00  0.00    +0.000 A 
ATOM      9  C   UNL     1       1.026   2.938  18.900  0.00  0.00    +0.000 A 
ATOM     10  C   UNL     1       1.714   3.166  20.073  0.00  0.00    +0.000 A 
ATOM     11  O   UNL     1       2.841   3.890  19.821  0.00  0.00    +0.000 OA
BRANCH  10  12
ATOM     12  C   UNL     1       1.469   2.795  21.484  0.00  0.00    +0.000 C 
BRANCH  12  13
ATOM     13  O   UNL     1       2.724   2.470  22.066  0.00  0.00    +0.000 OA
ATOM     14  H   UNL     1       2.890   1.538  21.844  0.00  0.00    +0.000 HD
ENDBRANCH  12  13
ENDBRANCH  10  12
ENDBRANCH   4   7
BRANCH   6  15
ATOM     15  N   UNL     1       7.769   4.337  17.918  0.00  0.00    +0.000 N 
ATOM     16  H   UNL     1       8.405   4.528  17.153  0.00  0.00    +0.000 HD
ATOM     17  H   UNL     1       7.665   3.344  18.121  0.00  0.00    +0.000 HD
ENDBRANCH   6  15
BRANCH   1  19
ATOM     18  C   UNL     1       7.829   8.024  17.574  0.00  0.00    +0.000 C 
ATOM     19  O   UNL     1       7.556   6.846  16.821  0.00  0.00    +0.000 OA
ENDBRANCH   1  19
TORSDOF 5
ENDMDL
MODEL 2
REMARK VINA RESULT:      -6.7      1.253      1.616
REMARK  Name = 
REMARK  6 active torsions:
REMARK  status: ('A' for Active; 'I' for Inactive)
REMARK    1  A    between atoms: C_1  and  O_2
REMARK    2  A    between atoms: O_2  and  C_3
REMARK    3  A    between atoms: C_6  and  C_7
REMARK    4  A    between atoms: C_10  and  C_11
REMARK    5  A    between atoms: C_11  and  O_12
REMARK    6  A    between atoms: C_15  and  N_16
REMARK                            x       y       z     vdW  Elec       q    Type
REMARK                         _______ _______ _______ _____ _____    ______ ____
ROOT
ATOM      1  C   UNL     1       6.547   6.176  17.377  0.00  0.00    +0.000 A 
ATOM      2  C   UNL     1       6.531   5.592  18.645  0.00  0.00    +0.000 A 
ATOM      3  C   UNL     1       5.442   4.814  19.047  0.00  0.00    +0.000 A 
ATOM      4  C   UNL     1       4.339   4.630  18.202  0.00  0.00    +0.000 A 
ATOM      5  C   UNL     1       4.337   5.282  16.960  0.00  0.00    +0.000 A 
ATOM      6  C   UNL     1       5.444   6.016  16.518  0.00  0.00    +0.000 A 
ENDROOT
BRANCH   4   7
ATOM      7  C   UNL     1       3.228   3.761  18.582  0.00  0.00    +0.000 A 
ATOM      8  C   UNL     1       2.426   2.870  17.895  0.00  0.00    +0.000 A 
ATOM      9  C   UNL     1       1.569   2.268  18.845  0.00  0.00    +0.000 A 
ATOM     10  C   UNL     1       1.894   2.824  20.064  0.00  0.00    +0.000 A 
ATOM     11  O   UNL     1       2.887   3.744  19.908  0.00  0.00    +0.000 OA
BRANCH  10  12
ATOM     12  C   UNL     1       1.390   2.622  21.441  0.00  0.00    +0.000 C 
BRANCH  12  13
ATOM     13  O   UNL     1       2.357   3.157  22.334  0.00  0.00    +0.000 OA
ATOM     14  H   UNL     1       2.325   2.599  23.131  0.00  0.00    +0.000 HD
ENDBRANCH  12  13
ENDBRANCH  10  12
ENDBRANCH   4   7
BRANCH   6  15
ATOM     15  N   UNL     1       5.358   6.737  15.312  0.00  0.00    +0.000 N 
ATOM     16  H   UNL     1       4.540   7.328  15.235  0.00  0.00    +0.000 HD
ATOM     17  H   UNL     1       5.492   6.123  14.509  0.00  0.00    +0.000 HD
ENDBRANCH   6  15
BRANCH   1  19
ATOM     18  C   UNL     1       7.870   8.114  17.615  0.00  0.00    +0.000 C 
ATOM     19  O   UNL     1       7.598   6.917  16.890  0.00  0.00    +0.000 OA
ENDBRANCH   1  19
TORSDOF 5
ENDMDL
MODEL 3
REMARK VINA RESULT:      -6.7      1.644      1.983
REMARK  Name = 
REMARK  6 active torsions:
REMARK  status: ('A' for Active; 'I' for Inactive)
REMARK    1  A    between atoms: C_1  and  O_2
REMARK    2  A    between atoms: O_2  and  C_3
REMARK    3  A    between atoms: C_6  and  C_7
REMARK    4  A    between atoms: C_10  and  C_11
REMARK    5  A    between atoms: C_11  and  O_12
REMARK    6  A    between atoms: C_15  and  N_16
REMARK                            x       y       z     vdW  Elec       q    Type
REMARK                         _______ _______ _______ _____ _____    ______ ____
ROOT
ATOM      1  C   UNL     1       6.578   4.887  16.182  0.00  0.00    +0.000 A 
ATOM      2  C   UNL     1       5.254   5.131  15.815  0.00  0.00    +0.000 A 
ATOM      3  C   UNL     1       4.250   5.166  16.787  0.00  0.00    +0.000 A 
ATOM      4  C   UNL     1       4.547   4.928  18.135  0.00  0.00    +0.000 A 
ATOM      5  C   UNL     1       5.870   4.612  18.480  0.00  0.00    +0.000 A 
ATOM      6  C   UNL     1       6.897   4.631  17.528  0.00  0.00    +0.000 A 
ENDROOT
BRANCH   4   7
ATOM      7  C   UNL     1       3.520   5.033  19.169  0.00  0.00    +0.000 A 
ATOM      8  C   UNL     1       2.739   6.068  19.648  0.00  0.00    +0.000 A 
ATOM      9  C   UNL     1       1.865   5.514  20.612  0.00  0.00    +0.000 A 
ATOM     10  C   UNL     1       2.158   4.168  20.670  0.00  0.00    +0.000 A 
ATOM     11  O   UNL     1       3.173   3.873  19.810  0.00  0.00    +0.000 OA
BRANCH  10  12
ATOM     12  C   UNL     1       1.607   3.040  21.453  0.00  0.00    +0.000 C 
BRANCH  12  13
ATOM     13  O   UNL     1       2.686   2.436  22.152  0.00  0.00    +0.000 OA
ATOM     14  H   UNL     1       3.057   3.129  22.726  0.00  0.00    +0.000 HD
ENDBRANCH  12  13
ENDBRANCH  10  12
ENDBRANCH   4   7
BRANCH   6  15
ATOM     15  N   UNL     1       8.187   4.209  17.898  0.00  0.00    +0.000 N 
ATOM     16  H   UNL     1       8.348   4.177  18.897  0.00  0.00    +0.000 HD
ATOM     17  H   UNL     1       8.902   4.727  17.388  0.00  0.00    +0.000 HD
ENDBRANCH   6  15
BRANCH   1  19
ATOM     18  C   UNL     1       7.248   4.867  13.921  0.00  0.00    +0.000 C 
ATOM     19  O   UNL     1       7.629   4.880  15.294  0.00  0.00    +0.000 OA
ENDBRANCH   1  19
TORSDOF 5
ENDMDL
MODEL 4
REMARK VINA RESULT:      -6.4      1.376      1.538
REMARK  Name = 
REMARK  6 active torsions:
REMARK  status: ('A' for Active; 'I' for Inactive)
REMARK    1  A    between atoms: C_1  and  O_2
REMARK    2  A    between atoms: O_2  and  C_3
REMARK    3  A    between atoms: C_6  and  C_7
REMARK    4  A    between atoms: C_10  and  C_11
REMARK    5  A    between atoms: C_11  and  O_12
REMARK    6  A    between atoms: C_15  and  N_16
REMARK                            x       y       z     vdW  Elec       q    Type
REMARK                         _______ _______ _______ _____ _____    ______ ____
ROOT
ATOM      1  C   UNL     1       7.258   6.795  18.167  0.00  0.00    +0.000 A 
ATOM      2  C   UNL     1       6.277   6.934  17.184  0.00  0.00    +0.000 A 
ATOM      3  C   UNL     1       5.188   6.059  17.151  0.00  0.00    +0.000 A 
ATOM      4  C   UNL     1       5.075   5.014  18.078  0.00  0.00    +0.000 A 
ATOM      5  C   UNL     1       6.105   4.843  19.015  0.00  0.00    +0.000 A 
ATOM      6  C   UNL     1       7.173   5.745  19.100  0.00  0.00    +0.000 A 
ENDROOT
BRANCH   4   7
ATOM      7  C   UNL     1       3.906   4.139  18.098  0.00  0.00    +0.000 A 
ATOM      8  C   UNL     1       3.203   3.450  17.127  0.00  0.00    +0.000 A 
ATOM      9  C   UNL     1       2.203   2.704  17.793  0.00  0.00    +0.000 A 
ATOM     10  C   UNL     1       2.348   2.977  19.136  0.00  0.00    +0.000 A 
ATOM     11  O   UNL     1       3.368   3.861  19.326  0.00  0.00    +0.000 OA
BRANCH  10  12
ATOM     12  C   UNL     1       1.638   2.516  20.350  0.00  0.00    +0.000 C 
BRANCH  12  13
ATOM     13  O   UNL     1       0.629   3.471  20.645  0.00  0.00    +0.000 OA
ATOM     14  H   UNL     1       1.093   4.257  20.985  0.00  0.00    +0.000 HD
ENDBRANCH  12  13
ENDBRANCH  10  12
ENDBRANCH   4   7
BRANCH   6  15
ATOM     15  N   UNL     1       8.234   5.476  19.984  0.00  0.00    +0.000 N 
ATOM     16  H   UNL     1       7.967   4.962  20.815  0.00  0.00    +0.000 HD
ATOM     17  H   UNL     1       8.767   6.322  20.184  0.00  0.00    +0.000 HD
ENDBRANCH   6  15
BRANCH   1  19
ATOM     18  C   UNL     1       8.088   8.986  17.898  0.00  0.00    +0.000 C 
ATOM     19  O   UNL     1       8.336   7.640  18.297  0.00  0.00    +0.000 OA
ENDBRANCH   1  19
TORSDOF 5
ENDMDL
MODEL 5
REMARK VINA RESULT:      -6.4      1.406      1.739
REMARK  Name = 
REMARK  6 active torsions:
REMARK  status: ('A' for Active; 'I' for Inactive)
REMARK    1  A    between atoms: C_1  and  O_2
REMARK    2  A    between atoms: O_2  and  C_3
REMARK    3  A    between atoms: C_6  and  C_7
REMARK    4  A    between atoms: C_10  and  C_11
REMARK    5  A    between atoms: C_11  and  O_12
REMARK    6  A    between atoms: C_15  and  N_16
REMARK                            x       y       z     vdW  Elec       q    Type
REMARK                         _______ _______ _______ _____ _____    ______ ____
ROOT
ATOM      1  C   UNL     1       6.502   6.694  17.566  0.00  0.00    +0.000 A 
ATOM      2  C   UNL     1       5.244   6.966  17.026  0.00  0.00    +0.000 A 
ATOM      3  C   UNL     1       4.098   6.403  17.597  0.00  0.00    +0.000 A 
ATOM      4  C   UNL     1       4.192   5.538  18.695  0.00  0.00    +0.000 A 
ATOM      5  C   UNL     1       5.468   5.218  19.181  0.00  0.00    +0.000 A 
ATOM      6  C   UNL     1       6.621   5.817  18.659  0.00  0.00    +0.000 A 
ENDROOT
BRANCH   4   7
ATOM      7  C   UNL     1       2.999   5.002  19.344  0.00  0.00    +0.000 A 
ATOM      8  C   UNL     1       2.197   5.427  20.387  0.00  0.00    +0.000 A 
ATOM      9  C   UNL     1       1.133   4.503  20.494  0.00  0.00    +0.000 A 
ATOM     10  C   UNL     1       1.339   3.561  19.508  0.00  0.00    +0.000 A 
ATOM     11  O   UNL     1       2.480   3.849  18.820  0.00  0.00    +0.000 OA
BRANCH  10  12
ATOM     12  C   UNL     1       0.595   2.356  19.082  0.00  0.00    +0.000 C 
BRANCH  12  13
ATOM     13  O   UNL     1       1.537   1.441  18.538  0.00  0.00    +0.000 OA
ATOM     14  H   UNL     1       1.465   0.631  19.074  0.00  0.00    +0.000 HD
ENDBRANCH  12  13
ENDBRANCH  10  12
ENDBRANCH   4   7
BRANCH   6  15
ATOM     15  N   UNL     1       7.885   5.389  19.108  0.00  0.00    +0.000 N 
ATOM     16  H   UNL     1       8.487   5.027  18.379  0.00  0.00    +0.000 HD
ATOM     17  H   UNL     1       7.797   4.765  19.909  0.00  0.00    +0.000 HD
ENDBRANCH   6  15
BRANCH   1  19
ATOM     18  C   UNL     1       7.994   8.519  17.637  0.00  0.00    +0.000 C 
ATOM     19  O   UNL     1       7.671   7.242  17.092  0.00  0.00    +0.000 OA
ENDBRANCH   1  19
TORSDOF 5
ENDMDL
MODEL 6
REMARK VINA RESULT:      -6.3      2.000      2.299
REMARK  Name = 
REMARK  6 active torsions:
REMARK  status: ('A' for Active; 'I' for Inactive)
REMARK    1  A    between atoms: C_1  and  O_2
REMARK    2  A    between atoms: O_2  and  C_3
REMARK    3  A    between atoms: C_6  and  C_7
REMARK    4  A    between atoms: C_10  and  C_11
REMARK    5  A    between atoms: C_11  and  O_12
REMARK    6  A    between atoms: C_15  and  N_16
REMARK                            x       y       z     vdW  Elec       q    Type
REMARK                         _______ _______ _______ _____ _____    ______ ____
ROOT
ATOM      1  C   UNL     1       6.822   5.083  15.336  0.00  0.00    +0.000 A 
ATOM      2  C   UNL     1       5.966   3.997  15.144  0.00  0.00    +0.000 A 
ATOM      3  C   UNL     1       4.936   3.746  16.054  0.00  0.00    +0.000 A 
ATOM      4  C   UNL     1       4.761   4.555  17.185  0.00  0.00    +0.000 A 
ATOM      5  C   UNL     1       5.673   5.599  17.402  0.00  0.00    +0.000 A 
ATOM      6  C   UNL     1       6.674   5.900  16.471  0.00  0.00    +0.000 A 
ENDROOT
BRANCH   4   7
ATOM      7  C   UNL     1       3.645   4.347  18.103  0.00  0.00    +0.000 A 
ATOM      8  C   UNL     1       2.310   4.704  18.092  0.00  0.00    +0.000 A 
ATOM      9  C   UNL     1       1.720   4.133  19.244  0.00  0.00    +0.000 A 
ATOM     10  C   UNL     1       2.727   3.456  19.898  0.00  0.00    +0.000 A 
ATOM     11  O   UNL     1       3.901   3.597  19.221  0.00  0.00    +0.000 OA
BRANCH  10  12
ATOM     12  C   UNL     1       2.771   2.648  21.137  0.00  0.00    +0.000 C 
BRANCH  12  13
ATOM     13  O   UNL     1       2.039   3.350  22.132  0.00  0.00    +0.000 OA
ATOM     14  H   UNL     1       1.139   2.979  22.116  0.00  0.00    +0.000 HD
ENDBRANCH  12  13
ENDBRANCH  10  12
ENDBRANCH   4   7
BRANCH   6  15
ATOM     15  N   UNL     1       7.629   6.888  16.780  0.00  0.00    +0.000 N 
ATOM     16  H   UNL     1       7.624   7.684  16.155  0.00  0.00    +0.000 HD
ATOM     17  H   UNL     1       8.553   6.477  16.907  0.00  0.00    +0.000 HD
ENDBRANCH   6  15
BRANCH   1  19
ATOM     18  C   UNL     1       7.601   5.046  13.110  0.00  0.00    +0.000 C 
ATOM     19  O   UNL     1       7.831   5.424  14.465  0.00  0.00    +0.000 OA
ENDBRANCH   1  19
TORSDOF 5
ENDMDL
MODEL 7
REMARK VINA RESULT:      -6.3      1.938      2.386
REMARK  Name = 
REMARK  6 active torsions:
REMARK  status: ('A' for Active; 'I' for Inactive)
REMARK    1  A    between atoms: C_1  and  O_2
REMARK    2  A    between atoms: O_2  and  C_3
REMARK    3  A    between atoms: C_6  and  C_7
REMARK    4  A    between atoms: C_10  and  C_11
REMARK    5  A    between atoms: C_11  and  O_12
REMARK    6  A    between atoms: C_15  and  N_16
REMARK                            x       y       z     vdW  Elec       q    Type
REMARK                         _______ _______ _______ _____ _____    ______ ____
ROOT
ATOM      1  C   UNL     1       6.231   5.168  15.662  0.00  0.00    +0.000 A 
ATOM      2  C   UNL     1       5.204   4.225  15.690  0.00  0.00    +0.000 A 
ATOM      3  C   UNL     1       4.303   4.199  16.759  0.00  0.00    +0.000 A 
ATOM      4  C   UNL     1       4.432   5.093  17.830  0.00  0.00    +0.000 A 
ATOM      5  C   UNL     1       5.512   5.988  17.823  0.00  0.00    +0.000 A 
ATOM      6  C   UNL     1       6.388   6.067  16.733  0.00  0.00    +0.000 A 
ENDROOT
BRANCH   4   7
ATOM      7  C   UNL     1       3.456   5.123  18.916  0.00  0.00    +0.000 A 
ATOM      8  C   UNL     1       2.817   6.135  19.608  0.00  0.00    +0.000 A 
ATOM      9  C   UNL     1       1.913   5.517  20.503  0.00  0.00    +0.000 A 
ATOM     10  C   UNL     1       2.047   4.159  20.309  0.00  0.00    +0.000 A 
ATOM     11  O   UNL     1       2.994   3.913  19.361  0.00  0.00    +0.000 OA
BRANCH  10  12
ATOM     12  C   UNL     1       1.390   2.977  20.910  0.00  0.00    +0.000 C 
BRANCH  12  13
ATOM     13  O   UNL     1       1.891   2.834  22.232  0.00  0.00    +0.000 OA
ATOM     14  H   UNL     1       1.111   2.763  22.809  0.00  0.00    +0.000 HD
ENDBRANCH  12  13
ENDBRANCH  10  12
ENDBRANCH   4   7
BRANCH   6  15
ATOM     15  N   UNL     1       7.516   6.906  16.814  0.00  0.00    +0.000 N 
ATOM     16  H   UNL     1       8.370   6.493  16.460  0.00  0.00    +0.000 HD
ATOM     17  H   UNL     1       7.612   7.300  17.748  0.00  0.00    +0.000 HD
ENDBRANCH   6  15
BRANCH   1  19
ATOM     18  C   UNL     1       6.870   4.441  13.511  0.00  0.00    +0.000 C 
ATOM     19  O   UNL     1       7.130   5.289  14.627  0.00  0.00    +0.000 OA
ENDBRANCH   1  19
TORSDOF 5
ENDMDL
MODEL 8
REMARK VINA RESULT:      -6.3      1.576      1.728
REMARK  Name = 
REMARK  6 active torsions:
REMARK  status: ('A' for Active; 'I' for Inactive)
REMARK    1  A    between atoms: C_1  and  O_2
REMARK    2  A    between atoms: O_2  and  C_3
REMARK    3  A    between atoms: C_6  and  C_7
REMARK    4  A    between atoms: C_10  and  C_11
REMARK    5  A    between atoms: C_11  and  O_12
REMARK    6  A    between atoms: C_15  and  N_16
REMARK                            x       y       z     vdW  Elec       q    Type
REMARK                         _______ _______ _______ _____ _____    ______ ____
ROOT
ATOM      1  C   UNL     1       6.409   4.499  16.180  0.00  0.00    +0.000 A 
ATOM      2  C   UNL     1       5.199   4.278  15.520  0.00  0.00    +0.000 A 
ATOM      3  C   UNL     1       4.037   4.019  16.252  0.00  0.00    +0.000 A 
ATOM      4  C   UNL     1       4.069   3.945  17.651  0.00  0.00    +0.000 A 
ATOM      5  C   UNL     1       5.305   4.096  18.296  0.00  0.00    +0.000 A 
ATOM      6  C   UNL     1       6.467   4.415  17.583  0.00  0.00    +0.000 A 
ENDROOT
BRANCH   4   7
ATOM      7  C   UNL     1       2.849   3.746  18.429  0.00  0.00    +0.000 A 
ATOM      8  C   UNL     1       1.503   3.922  18.171  0.00  0.00    +0.000 A 
ATOM      9  C   UNL     1       0.800   3.474  19.313  0.00  0.00    +0.000 A 
ATOM     10  C   UNL     1       1.756   3.045  20.210  0.00  0.00    +0.000 A 
ATOM     11  O   UNL     1       3.001   3.224  19.687  0.00  0.00    +0.000 OA
BRANCH  10  12
ATOM     12  C   UNL     1       1.687   2.460  21.567  0.00  0.00    +0.000 C 
BRANCH  12  13
ATOM     13  O   UNL     1       2.402   3.320  22.442  0.00  0.00    +0.000 OA
ATOM     14  H   UNL     1       3.346   3.161  22.265  0.00  0.00    +0.000 HD
ENDBRANCH  12  13
ENDBRANCH  10  12
ENDBRANCH   4   7
BRANCH   6  15
ATOM     15  N   UNL     1       7.702   4.456  18.259  0.00  0.00    +0.000 N 
ATOM     16  H   UNL     1       8.183   5.345  18.196  0.00  0.00    +0.000 HD
ATOM     17  H   UNL     1       8.284   3.660  18.005  0.00  0.00    +0.000 HD
ENDBRANCH   6  15
BRANCH   1  19
ATOM     18  C   UNL     1       7.459   5.019  14.134  0.00  0.00    +0.000 C 
ATOM     19  O   UNL     1       7.586   4.804  15.537  0.00  0.00    +0.000 OA
ENDBRANCH   1  19
TORSDOF 5
ENDMDL
MODEL 9
REMARK VINA RESULT:      -6.3      3.891      6.129
REMARK  Name = 
REMARK  6 active torsions:
REMARK  status: ('A' for Active; 'I' for Inactive)
REMARK    1  A    between atoms: C_1  and  O_2
REMARK    2  A    between atoms: O_2  and  C_3
REMARK    3  A    between atoms: C_6  and  C_7
REMARK    4  A    between atoms: C_10  and  C_11
REMARK    5  A    between atoms: C_11  and  O_12
REMARK    6  A    between atoms: C_15  and  N_16
REMARK                            x       y       z     vdW  Elec       q    Type
REMARK                         _______ _______ _______ _____ _____    ______ ____
ROOT
ATOM      1  C   UNL     1       4.605   5.585  18.222  0.00  0.00    +0.000 A 
ATOM      2  C   UNL     1       4.627   6.552  17.215  0.00  0.00    +0.000 A 
ATOM      3  C   UNL     1       5.130   6.237  15.949  0.00  0.00    +0.000 A 
ATOM      4  C   UNL     1       5.646   4.963  15.677  0.00  0.00    +0.000 A 
ATOM      5  C   UNL     1       5.685   4.024  16.719  0.00  0.00    +0.000 A 
ATOM      6  C   UNL     1       5.132   4.304  17.974  0.00  0.00    +0.000 A 
ENDROOT
BRANCH   4   7
ATOM      7  C   UNL     1       6.108   4.601  14.339  0.00  0.00    +0.000 A 
ATOM      8  C   UNL     1       7.230   4.907  13.592  0.00  0.00    +0.000 A 
ATOM      9  C   UNL     1       7.135   4.176  12.386  0.00  0.00    +0.000 A 
ATOM     10  C   UNL     1       5.960   3.459  12.460  0.00  0.00    +0.000 A 
ATOM     11  O   UNL     1       5.323   3.727  13.635  0.00  0.00    +0.000 OA
BRANCH  10  12
ATOM     12  C   UNL     1       5.292   2.505  11.548  0.00  0.00    +0.000 C 
BRANCH  12  13
ATOM     13  O   UNL     1       6.090   1.330  11.497  0.00  0.00    +0.000 OA
ATOM     14  H   UNL     1       6.593   1.382  10.665  0.00  0.00    +0.000 HD
ENDBRANCH  12  13
ENDBRANCH  10  12
ENDBRANCH   4   7
BRANCH   6  15
ATOM     15  N   UNL     1       5.285   3.372  19.018  0.00  0.00    +0.000 N 
ATOM     16  H   UNL     1       4.430   3.160  19.518  0.00  0.00    +0.000 HD
ATOM     17  H   UNL     1       6.059   3.630  19.629  0.00  0.00    +0.000 HD
ENDBRANCH   6  15
BRANCH   1  19
ATOM     18  C   UNL     1       2.668   5.922  19.523  0.00  0.00    +0.000 C 
ATOM     19  O   UNL     1       4.087   5.800  19.478  0.00  0.00    +0.000 OA
ENDBRANCH   1  19
TORSDOF 5
ENDMDL
