MODEL 1
REMARK VINA RESULT:      -9.6      0.000      0.000
REMARK  Name = 
REMARK  7 active torsions:
REMARK  status: ('A' for Active; 'I' for Inactive)
REMARK    1  A    between atoms: C_1  and  O_2
REMARK    2  A    between atoms: O_2  and  C_3
REMARK    3  A    between atoms: C_6  and  C_7
REMARK    4  A    between atoms: C_15  and  N_16
REMARK    5  A    between atoms: N_16  and  C_17
REMARK    6  A    between atoms: C_28  and  O_29
REMARK    7  A    between atoms: O_29  and  C_30
REMARK                            x       y       z     vdW  Elec       q    Type
REMARK                         _______ _______ _______ _____ _____    ______ ____
ROOT
ATOM      1  C   UNL     1       4.471   4.007  18.341  0.00  0.00    +0.000 A 
ATOM      2  N   UNL     1       4.766   2.996  19.238  0.00  0.00    +0.000 NA
ATOM      3  C   UNL     1       3.752   2.997  20.073  0.00  0.00    +0.000 A 
ATOM      4  C   UNL     1       3.530   2.136  21.204  0.00  0.00    +0.000 A 
ATOM      5  N   UNL     1       2.510   2.296  22.009  0.00  0.00    +0.000 NA
ATOM      6  C   UNL     1       1.659   3.356  21.744  0.00  0.00    +0.000 A 
ATOM      7  C   UNL     1       1.803   4.199  20.710  0.00  0.00    +0.000 A 
ATOM      8  N   UNL     1       2.847   3.990  19.814  0.00  0.00    +0.000 N 
ATOM      9  C   UNL     1       3.245   4.599  18.630  0.00  0.00    +0.000 A 
ENDROOT
BRANCH   1  13
ATOM     10  C   UNL     1       7.028   5.169  15.116  0.00  0.00    +0.000 A 
ATOM     11  C   UNL     1       6.246   4.011  15.013  0.00  0.00    +0.000 A 
ATOM     12  C   UNL     1       5.413   3.610  16.060  0.00  0.00    +0.000 A 
ATOM     13  C   UNL     1       5.364   4.348  17.245  0.00  0.00    +0.000 A 
ATOM     14  C   UNL     1       6.215   5.451  17.376  0.00  0.00    +0.000 A 
ATOM     15  C   UNL     1       7.052   5.871  16.330  0.00  0.00    +0.000 A 
BRANCH  10  17
ATOM     16  C   UNL     1       7.523   4.976  12.809  0.00  0.00    +0.000 C 
ATOM     17  O   UNL     1       7.790   5.603  14.063  0.00  0.00    +0.000 OA
ENDBRANCH  10  17
BRANCH  15  18
ATOM     18  O   UNL     1       7.780   6.979  16.675  0.00  0.00    +0.000 OA
ATOM     19  C   UNL     1       7.802   7.396  18.030  0.00  0.00    +0.000 C 
ENDBRANCH  15  18
ENDBRANCH   1  13
BRANCH   9  20
ATOM     20  N   UNL     1       2.558   5.604  18.016  0.00  0.00    +0.000 N 
ATOM     21  H   UNL     1       2.111   5.422  17.120  0.00  0.00    +0.000 HD
BRANCH  20  22
ATOM     22  C   UNL     1       2.482   6.944  18.452  0.00  0.00    +0.000 A 
ATOM     23  C   UNL     1       2.435   8.018  17.546  0.00  0.00    +0.000 A 
ATOM     24  C   UNL     1       1.859   9.232  17.916  0.00  0.00    +0.000 A 
ATOM     25  C   UNL     1       1.367   9.379  19.207  0.00  0.00    +0.000 A 
ATOM     26  C   UNL     1       1.616   8.390  20.160  0.00  0.00    +0.000 A 
ATOM     27  C   UNL     1       2.201   7.184  19.798  0.00  0.00    +0.000 A 
ATOM     28  O   UNL     1       1.175   8.504  21.451  0.00  0.00    +0.000 OA
ATOM     29  C   UNL     1      -0.136   9.062  21.394  0.00  0.00    +0.000 C 
ATOM     30  C   UNL     1      -0.118  10.422  20.705  0.00  0.00    +0.000 C 
ATOM     31  O   UNL     1       0.566  10.459  19.443  0.00  0.00    +0.000 OA
ENDBRANCH  20  22
ENDBRANCH   9  20
TORSDOF 5
ENDMDL
MODEL 2
REMARK VINA RESULT:      -8.9      2.722      5.588
REMARK  Name = 
REMARK  7 active torsions:
REMARK  status: ('A' for Active; 'I' for Inactive)
REMARK    1  A    between atoms: C_1  and  O_2
REMARK    2  A    between atoms: O_2  and  C_3
REMARK    3  A    between atoms: C_6  and  C_7
REMARK    4  A    between atoms: C_15  and  N_16
REMARK    5  A    between atoms: N_16  and  C_17
REMARK    6  A    between atoms: C_28  and  O_29
REMARK    7  A    between atoms: O_29  and  C_30
REMARK                            x       y       z     vdW  Elec       q    Type
REMARK                         _______ _______ _______ _____ _____    ______ ____
ROOT
ATOM      1  C   UNL     1       2.576   7.478  18.704  0.00  0.00    +0.000 A 
ATOM      2  N   UNL     1       2.249   8.640  18.028  0.00  0.00    +0.000 NA
ATOM      3  C   UNL     1       1.452   9.282  18.852  0.00  0.00    +0.000 A 
ATOM      4  C   UNL     1       0.822  10.561  18.665  0.00  0.00    +0.000 A 
ATOM      5  N   UNL     1      -0.021  11.055  19.537  0.00  0.00    +0.000 NA
ATOM      6  C   UNL     1      -0.308  10.276  20.645  0.00  0.00    +0.000 A 
ATOM      7  C   UNL     1       0.239   9.074  20.886  0.00  0.00    +0.000 A 
ATOM      8  N   UNL     1       1.186   8.578  19.995  0.00  0.00    +0.000 N 
ATOM      9  C   UNL     1       1.986   7.442  19.964  0.00  0.00    +0.000 A 
ENDROOT
BRANCH   1  13
ATOM     10  C   UNL     1       5.210   4.633  16.899  0.00  0.00    +0.000 A 
ATOM     11  C   UNL     1       3.824   4.424  16.876  0.00  0.00    +0.000 A 
ATOM     12  C   UNL     1       2.949   5.338  17.469  0.00  0.00    +0.000 A 
ATOM     13  C   UNL     1       3.445   6.468  18.122  0.00  0.00    +0.000 A 
ATOM     14  C   UNL     1       4.833   6.623  18.220  0.00  0.00    +0.000 A 
ATOM     15  C   UNL     1       5.725   5.718  17.623  0.00  0.00    +0.000 A 
BRANCH  10  17
ATOM     16  C   UNL     1       6.359   4.105  14.898  0.00  0.00    +0.000 C 
ATOM     17  O   UNL     1       6.063   3.777  16.256  0.00  0.00    +0.000 OA
ENDBRANCH  10  17
BRANCH  15  18
ATOM     18  O   UNL     1       7.029   6.077  17.833  0.00  0.00    +0.000 OA
ATOM     19  C   UNL     1       7.455   7.379  17.467  0.00  0.00    +0.000 C 
ENDBRANCH  15  18
ENDBRANCH   1  13
BRANCH   9  20
ATOM     20  N   UNL     1       2.043   6.517  20.965  0.00  0.00    +0.000 N 
ATOM     21  H   UNL     1       2.291   6.819  21.904  0.00  0.00    +0.000 HD
BRANCH  20  22
ATOM     22  C   UNL     1       1.891   5.122  20.813  0.00  0.00    +0.000 A 
ATOM     23  C   UNL     1       0.768   4.563  20.179  0.00  0.00    +0.000 A 
ATOM     24  C   UNL     1       0.845   3.306  19.581  0.00  0.00    +0.000 A 
ATOM     25  C   UNL     1       2.037   2.596  19.655  0.00  0.00    +0.000 A 
ATOM     26  C   UNL     1       3.070   3.061  20.471  0.00  0.00    +0.000 A 
ATOM     27  C   UNL     1       2.992   4.306  21.079  0.00  0.00    +0.000 A 
ATOM     28  O   UNL     1       4.252   2.380  20.597  0.00  0.00    +0.000 OA
ATOM     29  C   UNL     1       4.591   1.895  19.300  0.00  0.00    +0.000 C 
ATOM     30  C   UNL     1       3.496   0.984  18.757  0.00  0.00    +0.000 C 
ATOM     31  O   UNL     1       2.165   1.517  18.828  0.00  0.00    +0.000 OA
ENDBRANCH  20  22
ENDBRANCH   9  20
TORSDOF 5
ENDMDL
MODEL 3
REMARK VINA RESULT:      -8.7      1.655      7.040
REMARK  Name = 
REMARK  7 active torsions:
REMARK  status: ('A' for Active; 'I' for Inactive)
REMARK    1  A    between atoms: C_1  and  O_2
REMARK    2  A    between atoms: O_2  and  C_3
REMARK    3  A    between atoms: C_6  and  C_7
REMARK    4  A    between atoms: C_15  and  N_16
REMARK    5  A    between atoms: N_16  and  C_17
REMARK    6  A    between atoms: C_28  and  O_29
REMARK    7  A    between atoms: O_29  and  C_30
REMARK                            x       y       z     vdW  Elec       q    Type
REMARK                         _______ _______ _______ _____ _____    ______ ____
ROOT
ATOM      1  C   UNL     1       2.138   5.961  19.684  0.00  0.00    +0.000 A 
ATOM      2  N   UNL     1       1.143   5.010  19.552  0.00  0.00    +0.000 NA
ATOM      3  C   UNL     1       1.791   3.876  19.419  0.00  0.00    +0.000 A 
ATOM      4  C   UNL     1       1.249   2.554  19.260  0.00  0.00    +0.000 A 
ATOM      5  N   UNL     1       2.012   1.509  19.055  0.00  0.00    +0.000 NA
ATOM      6  C   UNL     1       3.375   1.734  18.966  0.00  0.00    +0.000 A 
ATOM      7  C   UNL     1       3.953   2.938  19.103  0.00  0.00    +0.000 A 
ATOM      8  N   UNL     1       3.150   4.038  19.389  0.00  0.00    +0.000 N 
ATOM      9  C   UNL     1       3.402   5.378  19.659  0.00  0.00    +0.000 A 
ENDROOT
BRANCH   1  13
ATOM     10  C   UNL     1       1.103  10.074  20.230  0.00  0.00    +0.000 A 
ATOM     11  C   UNL     1       1.451   9.598  18.959  0.00  0.00    +0.000 A 
ATOM     12  C   UNL     1       1.803   8.260  18.764  0.00  0.00    +0.000 A 
ATOM     13  C   UNL     1       1.837   7.375  19.843  0.00  0.00    +0.000 A 
ATOM     14  C   UNL     1       1.576   7.877  21.123  0.00  0.00    +0.000 A 
ATOM     15  C   UNL     1       1.214   9.217  21.335  0.00  0.00    +0.000 A 
BRANCH  10  17
ATOM     16  C   UNL     1      -0.643  11.653  19.982  0.00  0.00    +0.000 C 
ATOM     17  O   UNL     1       0.688  11.367  20.410  0.00  0.00    +0.000 OA
ENDBRANCH  10  17
BRANCH  15  18
ATOM     18  O   UNL     1       0.989   9.480  22.659  0.00  0.00    +0.000 OA
ATOM     19  C   UNL     1      -0.346   9.595  23.124  0.00  0.00    +0.000 C 
ENDBRANCH  15  18
ENDBRANCH   1  13
BRANCH   9  20
ATOM     20  N   UNL     1       4.650   5.916  19.770  0.00  0.00    +0.000 N 
ATOM     21  H   UNL     1       4.904   6.403  20.627  0.00  0.00    +0.000 HD
BRANCH  20  22
ATOM     22  C   UNL     1       5.627   5.962  18.753  0.00  0.00    +0.000 A 
ATOM     23  C   UNL     1       6.901   5.392  18.922  0.00  0.00    +0.000 A 
ATOM     24  C   UNL     1       7.645   4.981  17.817  0.00  0.00    +0.000 A 
ATOM     25  C   UNL     1       7.126   5.178  16.543  0.00  0.00    +0.000 A 
ATOM     26  C   UNL     1       5.968   5.940  16.378  0.00  0.00    +0.000 A 
ATOM     27  C   UNL     1       5.231   6.362  17.476  0.00  0.00    +0.000 A 
ATOM     28  O   UNL     1       5.435   6.184  15.140  0.00  0.00    +0.000 OA
ATOM     29  C   UNL     1       5.554   4.977  14.391  0.00  0.00    +0.000 C 
ATOM     30  C   UNL     1       7.012   4.548  14.279  0.00  0.00    +0.000 C 
ATOM     31  O   UNL     1       7.738   4.517  15.517  0.00  0.00    +0.000 OA
ENDBRANCH  20  22
ENDBRANCH   9  20
TORSDOF 5
ENDMDL
MODEL 4
REMARK VINA RESULT:      -8.4      1.095      1.750
REMARK  Name = 
REMARK  7 active torsions:
REMARK  status: ('A' for Active; 'I' for Inactive)
REMARK    1  A    between atoms: C_1  and  O_2
REMARK    2  A    between atoms: O_2  and  C_3
REMARK    3  A    between atoms: C_6  and  C_7
REMARK    4  A    between atoms: C_15  and  N_16
REMARK    5  A    between atoms: N_16  and  C_17
REMARK    6  A    between atoms: C_28  and  O_29
REMARK    7  A    between atoms: O_29  and  C_30
REMARK                            x       y       z     vdW  Elec       q    Type
REMARK                         _______ _______ _______ _____ _____    ______ ____
ROOT
ATOM      1  C   UNL     1       4.194   4.067  17.948  0.00  0.00    +0.000 A 
ATOM      2  N   UNL     1       3.741   2.777  18.156  0.00  0.00    +0.000 NA
ATOM      3  C   UNL     1       2.903   2.885  19.162  0.00  0.00    +0.000 A 
ATOM      4  C   UNL     1       2.127   1.849  19.788  0.00  0.00    +0.000 A 
ATOM      5  N   UNL     1       1.385   2.077  20.843  0.00  0.00    +0.000 NA
ATOM      6  C   UNL     1       1.400   3.364  21.355  0.00  0.00    +0.000 A 
ATOM      7  C   UNL     1       2.098   4.380  20.825  0.00  0.00    +0.000 A 
ATOM      8  N   UNL     1       2.833   4.156  19.665  0.00  0.00    +0.000 N 
ATOM      9  C   UNL     1       3.592   4.963  18.827  0.00  0.00    +0.000 A 
ENDROOT
BRANCH   1  13
ATOM     10  C   UNL     1       6.996   5.164  14.908  0.00  0.00    +0.000 A 
ATOM     11  C   UNL     1       6.144   4.067  14.719  0.00  0.00    +0.000 A 
ATOM     12  C   UNL     1       5.230   3.688  15.706  0.00  0.00    +0.000 A 
ATOM     13  C   UNL     1       5.167   4.384  16.914  0.00  0.00    +0.000 A 
ATOM     14  C   UNL     1       6.081   5.421  17.132  0.00  0.00    +0.000 A 
ATOM     15  C   UNL     1       7.000   5.819  16.148  0.00  0.00    +0.000 A 
BRANCH  10  17
ATOM     16  C   UNL     1       7.585   5.039  12.619  0.00  0.00    +0.000 C 
ATOM     17  O   UNL     1       7.840   5.582  13.914  0.00  0.00    +0.000 OA
ENDBRANCH  10  17
BRANCH  15  18
ATOM     18  O   UNL     1       7.781   6.860  16.574  0.00  0.00    +0.000 OA
ATOM     19  C   UNL     1       7.606   7.363  17.888  0.00  0.00    +0.000 C 
ENDBRANCH  15  18
ENDBRANCH   1  13
BRANCH   9  20
ATOM     20  N   UNL     1       3.719   6.313  18.972  0.00  0.00    +0.000 N 
ATOM     21  H   UNL     1       4.644   6.710  19.124  0.00  0.00    +0.000 HD
BRANCH  20  22
ATOM     22  C   UNL     1       2.660   7.243  19.039  0.00  0.00    +0.000 A 
ATOM     23  C   UNL     1       1.879   7.395  20.198  0.00  0.00    +0.000 A 
ATOM     24  C   UNL     1       1.220   8.597  20.455  0.00  0.00    +0.000 A 
ATOM     25  C   UNL     1       1.314   9.629  19.529  0.00  0.00    +0.000 A 
ATOM     26  C   UNL     1       1.903   9.392  18.287  0.00  0.00    +0.000 A 
ATOM     27  C   UNL     1       2.550   8.193  18.022  0.00  0.00    +0.000 A 
ATOM     28  O   UNL     1       1.993  10.371  17.332  0.00  0.00    +0.000 OA
ATOM     29  C   UNL     1       2.322  11.582  18.009  0.00  0.00    +0.000 C 
ATOM     30  C   UNL     1       1.261  11.930  19.046  0.00  0.00    +0.000 C 
ATOM     31  O   UNL     1       0.904  10.865  19.939  0.00  0.00    +0.000 OA
ENDBRANCH  20  22
ENDBRANCH   9  20
TORSDOF 5
ENDMDL
MODEL 5
REMARK VINA RESULT:      -8.2      1.736      6.904
REMARK  Name = 
REMARK  7 active torsions:
REMARK  status: ('A' for Active; 'I' for Inactive)
REMARK    1  A    between atoms: C_1  and  O_2
REMARK    2  A    between atoms: O_2  and  C_3
REMARK    3  A    between atoms: C_6  and  C_7
REMARK    4  A    between atoms: C_15  and  N_16
REMARK    5  A    between atoms: N_16  and  C_17
REMARK    6  A    between atoms: C_28  and  O_29
REMARK    7  A    between atoms: O_29  and  C_30
REMARK                            x       y       z     vdW  Elec       q    Type
REMARK                         _______ _______ _______ _____ _____    ______ ____
ROOT
ATOM      1  C   UNL     1       2.044   5.757  19.803  0.00  0.00    +0.000 A 
ATOM      2  N   UNL     1       1.120   4.744  19.624  0.00  0.00    +0.000 NA
ATOM      3  C   UNL     1       1.848   3.682  19.366  0.00  0.00    +0.000 A 
ATOM      4  C   UNL     1       1.403   2.338  19.111  0.00  0.00    +0.000 A 
ATOM      5  N   UNL     1       2.235   1.380  18.785  0.00  0.00    +0.000 NA
ATOM      6  C   UNL     1       3.572   1.722  18.667  0.00  0.00    +0.000 A 
ATOM      7  C   UNL     1       4.060   2.952  18.889  0.00  0.00    +0.000 A 
ATOM      8  N   UNL     1       3.188   3.955  19.302  0.00  0.00    +0.000 N 
ATOM      9  C   UNL     1       3.347   5.282  19.680  0.00  0.00    +0.000 A 
ENDROOT
BRANCH   1  13
ATOM     10  C   UNL     1       1.011   9.829  20.602  0.00  0.00    +0.000 A 
ATOM     11  C   UNL     1       0.946   8.872  21.624  0.00  0.00    +0.000 A 
ATOM     12  C   UNL     1       1.269   7.536  21.379  0.00  0.00    +0.000 A 
ATOM     13  C   UNL     1       1.641   7.124  20.098  0.00  0.00    +0.000 A 
ATOM     14  C   UNL     1       1.616   8.065  19.063  0.00  0.00    +0.000 A 
ATOM     15  C   UNL     1       1.301   9.414  19.295  0.00  0.00    +0.000 A 
BRANCH  10  17
ATOM     16  C   UNL     1      -0.607  11.547  20.803  0.00  0.00    +0.000 C 
ATOM     17  O   UNL     1       0.764  11.152  20.858  0.00  0.00    +0.000 OA
ENDBRANCH  10  17
BRANCH  15  18
ATOM     18  O   UNL     1       1.355  10.154  18.144  0.00  0.00    +0.000 OA
ATOM     19  C   UNL     1       2.362  11.143  18.006  0.00  0.00    +0.000 C 
ENDBRANCH  15  18
ENDBRANCH   1  13
BRANCH   9  20
ATOM     20  N   UNL     1       4.554   5.908  19.793  0.00  0.00    +0.000 N 
ATOM     21  H   UNL     1       4.757   6.442  20.635  0.00  0.00    +0.000 HD
BRANCH  20  22
ATOM     22  C   UNL     1       5.544   5.985  18.791  0.00  0.00    +0.000 A 
ATOM     23  C   UNL     1       6.839   5.472  18.987  0.00  0.00    +0.000 A 
ATOM     24  C   UNL     1       7.618   5.082  17.899  0.00  0.00    +0.000 A 
ATOM     25  C   UNL     1       7.113   5.243  16.615  0.00  0.00    +0.000 A 
ATOM     26  C   UNL     1       5.926   5.953  16.423  0.00  0.00    +0.000 A 
ATOM     27  C   UNL     1       5.154   6.355  17.503  0.00  0.00    +0.000 A 
ATOM     28  O   UNL     1       5.404   6.161  15.173  0.00  0.00    +0.000 OA
ATOM     29  C   UNL     1       5.587   4.952  14.440  0.00  0.00    +0.000 C 
ATOM     30  C   UNL     1       7.064   4.585  14.357  0.00  0.00    +0.000 C 
ATOM     31  O   UNL     1       7.770   4.598  15.607  0.00  0.00    +0.000 OA
ENDBRANCH  20  22
ENDBRANCH   9  20
TORSDOF 5
ENDMDL
MODEL 6
REMARK VINA RESULT:      -8.1      0.691      1.769
REMARK  Name = 
REMARK  7 active torsions:
REMARK  status: ('A' for Active; 'I' for Inactive)
REMARK    1  A    between atoms: C_1  and  O_2
REMARK    2  A    between atoms: O_2  and  C_3
REMARK    3  A    between atoms: C_6  and  C_7
REMARK    4  A    between atoms: C_15  and  N_16
REMARK    5  A    between atoms: N_16  and  C_17
REMARK    6  A    between atoms: C_28  and  O_29
REMARK    7  A    between atoms: O_29  and  C_30
REMARK                            x       y       z     vdW  Elec       q    Type
REMARK                         _______ _______ _______ _____ _____    ______ ____
ROOT
ATOM      1  C   UNL     1       4.517   4.199  18.338  0.00  0.00    +0.000 A 
ATOM      2  N   UNL     1       4.845   3.177  19.210  0.00  0.00    +0.000 NA
ATOM      3  C   UNL     1       3.816   3.099  20.022  0.00  0.00    +0.000 A 
ATOM      4  C   UNL     1       3.615   2.193  21.121  0.00  0.00    +0.000 A 
ATOM      5  N   UNL     1       2.572   2.276  21.909  0.00  0.00    +0.000 NA
ATOM      6  C   UNL     1       1.674   3.299  21.657  0.00  0.00    +0.000 A 
ATOM      7  C   UNL     1       1.795   4.181  20.653  0.00  0.00    +0.000 A 
ATOM      8  N   UNL     1       2.866   4.053  19.774  0.00  0.00    +0.000 N 
ATOM      9  C   UNL     1       3.256   4.719  18.618  0.00  0.00    +0.000 A 
ENDROOT
BRANCH   1  13
ATOM     10  C   UNL     1       7.221   5.275  15.204  0.00  0.00    +0.000 A 
ATOM     11  C   UNL     1       7.133   6.062  16.361  0.00  0.00    +0.000 A 
ATOM     12  C   UNL     1       6.247   5.732  17.389  0.00  0.00    +0.000 A 
ATOM     13  C   UNL     1       5.413   4.619  17.272  0.00  0.00    +0.000 A 
ATOM     14  C   UNL     1       5.441   3.890  16.078  0.00  0.00    +0.000 A 
ATOM     15  C   UNL     1       6.330   4.205  15.037  0.00  0.00    +0.000 A 
BRANCH  10  17
ATOM     16  C   UNL     1       7.642   5.536  12.889  0.00  0.00    +0.000 C 
ATOM     17  O   UNL     1       8.139   5.555  14.227  0.00  0.00    +0.000 OA
ENDBRANCH  10  17
BRANCH  15  18
ATOM     18  O   UNL     1       6.195   3.350  13.976  0.00  0.00    +0.000 OA
ATOM     19  C   UNL     1       5.144   3.563  13.048  0.00  0.00    +0.000 C 
ENDBRANCH  15  18
ENDBRANCH   1  13
BRANCH   9  20
ATOM     20  N   UNL     1       2.530   5.707  18.020  0.00  0.00    +0.000 N 
ATOM     21  H   UNL     1       2.061   5.512  17.139  0.00  0.00    +0.000 HD
BRANCH  20  22
ATOM     22  C   UNL     1       2.442   7.047  18.452  0.00  0.00    +0.000 A 
ATOM     23  C   UNL     1       2.363   8.116  17.542  0.00  0.00    +0.000 A 
ATOM     24  C   UNL     1       1.775   9.324  17.917  0.00  0.00    +0.000 A 
ATOM     25  C   UNL     1       1.303   9.469  19.216  0.00  0.00    +0.000 A 
ATOM     26  C   UNL     1       1.584   8.488  20.168  0.00  0.00    +0.000 A 
ATOM     27  C   UNL     1       2.181   7.290  19.802  0.00  0.00    +0.000 A 
ATOM     28  O   UNL     1       1.164   8.602  21.467  0.00  0.00    +0.000 OA
ATOM     29  C   UNL     1      -0.156   9.139  21.431  0.00  0.00    +0.000 C 
ATOM     30  C   UNL     1      -0.171  10.496  20.735  0.00  0.00    +0.000 C 
ATOM     31  O   UNL     1       0.489  10.538  19.462  0.00  0.00    +0.000 OA
ENDBRANCH  20  22
ENDBRANCH   9  20
TORSDOF 5
ENDMDL
MODEL 7
REMARK VINA RESULT:      -7.8      2.207      2.973
REMARK  Name = 
REMARK  7 active torsions:
REMARK  status: ('A' for Active; 'I' for Inactive)
REMARK    1  A    between atoms: C_1  and  O_2
REMARK    2  A    between atoms: O_2  and  C_3
REMARK    3  A    between atoms: C_6  and  C_7
REMARK    4  A    between atoms: C_15  and  N_16
REMARK    5  A    between atoms: N_16  and  C_17
REMARK    6  A    between atoms: C_28  and  O_29
REMARK    7  A    between atoms: O_29  and  C_30
REMARK                            x       y       z     vdW  Elec       q    Type
REMARK                         _______ _______ _______ _____ _____    ______ ____
ROOT
ATOM      1  C   UNL     1       3.810   5.052  18.429  0.00  0.00    +0.000 A 
ATOM      2  N   UNL     1       3.518   3.837  17.837  0.00  0.00    +0.000 NA
ATOM      3  C   UNL     1       2.438   3.423  18.458  0.00  0.00    +0.000 A 
ATOM      4  C   UNL     1       1.689   2.216  18.234  0.00  0.00    +0.000 A 
ATOM      5  N   UNL     1       0.669   1.881  18.983  0.00  0.00    +0.000 NA
ATOM      6  C   UNL     1       0.352   2.730  20.030  0.00  0.00    +0.000 A 
ATOM      7  C   UNL     1       1.004   3.872  20.301  0.00  0.00    +0.000 A 
ATOM      8  N   UNL     1       2.045   4.264  19.465  0.00  0.00    +0.000 N 
ATOM      9  C   UNL     1       2.868   5.381  19.400  0.00  0.00    +0.000 A 
ENDROOT
BRANCH   1  13
ATOM     10  C   UNL     1       7.211   7.443  17.423  0.00  0.00    +0.000 A 
ATOM     11  C   UNL     1       6.025   7.558  16.684  0.00  0.00    +0.000 A 
ATOM     12  C   UNL     1       4.908   6.777  16.992  0.00  0.00    +0.000 A 
ATOM     13  C   UNL     1       4.962   5.846  18.031  0.00  0.00    +0.000 A 
ATOM     14  C   UNL     1       6.176   5.672  18.705  0.00  0.00    +0.000 A 
ATOM     15  C   UNL     1       7.305   6.454  18.413  0.00  0.00    +0.000 A 
BRANCH  10  17
ATOM     16  C   UNL     1       8.376   9.425  17.987  0.00  0.00    +0.000 C 
ATOM     17  O   UNL     1       8.282   8.258  17.170  0.00  0.00    +0.000 OA
ENDBRANCH  10  17
BRANCH  15  18
ATOM     18  O   UNL     1       8.371   6.123  19.206  0.00  0.00    +0.000 OA
ATOM     19  C   UNL     1       8.168   5.258  20.312  0.00  0.00    +0.000 C 
ENDBRANCH  15  18
ENDBRANCH   1  13
BRANCH   9  20
ATOM     20  N   UNL     1       2.747   6.471  20.212  0.00  0.00    +0.000 N 
ATOM     21  H   UNL     1       3.258   6.492  21.091  0.00  0.00    +0.000 HD
BRANCH  20  22
ATOM     22  C   UNL     1       1.878   7.564  20.007  0.00  0.00    +0.000 A 
ATOM     23  C   UNL     1       1.119   8.115  21.054  0.00  0.00    +0.000 A 
ATOM     24  C   UNL     1       0.691   9.441  20.998  0.00  0.00    +0.000 A 
ATOM     25  C   UNL     1       0.993  10.199  19.873  0.00  0.00    +0.000 A 
ATOM     26  C   UNL     1       1.549   9.582  18.751  0.00  0.00    +0.000 A 
ATOM     27  C   UNL     1       1.965   8.259  18.799  0.00  0.00    +0.000 A 
ATOM     28  O   UNL     1       1.837  10.283  17.610  0.00  0.00    +0.000 OA
ATOM     29  C   UNL     1       2.375  11.539  18.019  0.00  0.00    +0.000 C 
ATOM     30  C   UNL     1       1.379  12.300  18.887  0.00  0.00    +0.000 C 
ATOM     31  O   UNL     1       0.813  11.549  19.972  0.00  0.00    +0.000 OA
ENDBRANCH  20  22
ENDBRANCH   9  20
TORSDOF 5
ENDMDL
MODEL 8
REMARK VINA RESULT:      -7.8      2.828      5.609
REMARK  Name = 
REMARK  7 active torsions:
REMARK  status: ('A' for Active; 'I' for Inactive)
REMARK    1  A    between atoms: C_1  and  O_2
REMARK    2  A    between atoms: O_2  and  C_3
REMARK    3  A    between atoms: C_6  and  C_7
REMARK    4  A    between atoms: C_15  and  N_16
REMARK    5  A    between atoms: N_16  and  C_17
REMARK    6  A    between atoms: C_28  and  O_29
REMARK    7  A    between atoms: O_29  and  C_30
REMARK                            x       y       z     vdW  Elec       q    Type
REMARK                         _______ _______ _______ _____ _____    ______ ____
ROOT
ATOM      1  C   UNL     1       2.943   8.047  18.178  0.00  0.00    +0.000 A 
ATOM      2  N   UNL     1       2.597   9.270  17.634  0.00  0.00    +0.000 NA
ATOM      3  C   UNL     1       1.651   9.723  18.425  0.00  0.00    +0.000 A 
ATOM      4  C   UNL     1       0.936  10.967  18.336  0.00  0.00    +0.000 A 
ATOM      5  N   UNL     1      -0.048  11.263  19.148  0.00  0.00    +0.000 NA
ATOM      6  C   UNL     1      -0.396  10.308  20.089  0.00  0.00    +0.000 A 
ATOM      7  C   UNL     1       0.224   9.127  20.231  0.00  0.00    +0.000 A 
ATOM      8  N   UNL     1       1.313   8.838  19.414  0.00  0.00    +0.000 N 
ATOM      9  C   UNL     1       2.210   7.780  19.331  0.00  0.00    +0.000 A 
ENDROOT
BRANCH   1  13
ATOM     10  C   UNL     1       6.064   5.638  16.521  0.00  0.00    +0.000 A 
ATOM     11  C   UNL     1       5.174   6.317  15.677  0.00  0.00    +0.000 A 
ATOM     12  C   UNL     1       4.142   7.100  16.201  0.00  0.00    +0.000 A 
ATOM     13  C   UNL     1       3.964   7.199  17.582  0.00  0.00    +0.000 A 
ATOM     14  C   UNL     1       4.798   6.447  18.416  0.00  0.00    +0.000 A 
ATOM     15  C   UNL     1       5.845   5.662  17.906  0.00  0.00    +0.000 A 
BRANCH  10  17
ATOM     16  C   UNL     1       6.803   4.030  14.949  0.00  0.00    +0.000 C 
ATOM     17  O   UNL     1       7.120   4.930  16.011  0.00  0.00    +0.000 OA
ENDBRANCH  10  17
BRANCH  15  18
ATOM     18  O   UNL     1       6.539   5.031  18.902  0.00  0.00    +0.000 OA
ATOM     19  C   UNL     1       7.710   5.639  19.421  0.00  0.00    +0.000 C 
ENDBRANCH  15  18
ENDBRANCH   1  13
BRANCH   9  20
ATOM     20  N   UNL     1       2.229   6.722  20.192  0.00  0.00    +0.000 N 
ATOM     21  H   UNL     1       2.493   6.878  21.162  0.00  0.00    +0.000 HD
BRANCH  20  22
ATOM     22  C   UNL     1       2.014   5.370  19.848  0.00  0.00    +0.000 A 
ATOM     23  C   UNL     1       1.398   5.002  18.639  0.00  0.00    +0.000 A 
ATOM     24  C   UNL     1       1.642   3.752  18.072  0.00  0.00    +0.000 A 
ATOM     25  C   UNL     1       2.472   2.859  18.740  0.00  0.00    +0.000 A 
ATOM     26  C   UNL     1       2.897   3.148  20.037  0.00  0.00    +0.000 A 
ATOM     27  C   UNL     1       2.645   4.387  20.610  0.00  0.00    +0.000 A 
ATOM     28  O   UNL     1       3.693   2.286  20.744  0.00  0.00    +0.000 OA
ATOM     29  C   UNL     1       4.650   1.759  19.829  0.00  0.00    +0.000 C 
ATOM     30  C   UNL     1       3.960   1.038  18.676  0.00  0.00    +0.000 C 
ATOM     31  O   UNL     1       2.912   1.777  18.032  0.00  0.00    +0.000 OA
ENDBRANCH  20  22
ENDBRANCH   9  20
TORSDOF 5
ENDMDL
MODEL 9
REMARK VINA RESULT:      -7.8      1.336      1.401
REMARK  Name = 
REMARK  7 active torsions:
REMARK  status: ('A' for Active; 'I' for Inactive)
REMARK    1  A    between atoms: C_1  and  O_2
REMARK    2  A    between atoms: O_2  and  C_3
REMARK    3  A    between atoms: C_6  and  C_7
REMARK    4  A    between atoms: C_15  and  N_16
REMARK    5  A    between atoms: N_16  and  C_17
REMARK    6  A    between atoms: C_28  and  O_29
REMARK    7  A    between atoms: O_29  and  C_30
REMARK                            x       y       z     vdW  Elec       q    Type
REMARK                         _______ _______ _______ _____ _____    ______ ____
ROOT
ATOM      1  C   UNL     1       3.744   4.093  17.418  0.00  0.00    +0.000 A 
ATOM      2  N   UNL     1       2.935   2.988  17.222  0.00  0.00    +0.000 NA
ATOM      3  C   UNL     1       2.060   3.047  18.199  0.00  0.00    +0.000 A 
ATOM      4  C   UNL     1       0.970   2.151  18.473  0.00  0.00    +0.000 A 
ATOM      5  N   UNL     1       0.214   2.279  19.536  0.00  0.00    +0.000 NA
ATOM      6  C   UNL     1       0.528   3.306  20.410  0.00  0.00    +0.000 A 
ATOM      7  C   UNL     1       1.529   4.180  20.221  0.00  0.00    +0.000 A 
ATOM      8  N   UNL     1       2.289   4.088  19.059  0.00  0.00    +0.000 N 
ATOM      9  C   UNL     1       3.323   4.840  18.515  0.00  0.00    +0.000 A 
ENDROOT
BRANCH   1  13
ATOM     10  C   UNL     1       7.004   5.136  14.855  0.00  0.00    +0.000 A 
ATOM     11  C   UNL     1       6.087   4.151  14.463  0.00  0.00    +0.000 A 
ATOM     12  C   UNL     1       5.022   3.790  15.292  0.00  0.00    +0.000 A 
ATOM     13  C   UNL     1       4.867   4.390  16.543  0.00  0.00    +0.000 A 
ATOM     14  C   UNL     1       5.837   5.306  16.966  0.00  0.00    +0.000 A 
ATOM     15  C   UNL     1       6.908   5.686  16.142  0.00  0.00    +0.000 A 
BRANCH  10  17
ATOM     16  C   UNL     1       7.800   5.263  12.629  0.00  0.00    +0.000 C 
ATOM     17  O   UNL     1       8.006   5.543  14.014  0.00  0.00    +0.000 OA
ENDBRANCH  10  17
BRANCH  15  18
ATOM     18  O   UNL     1       7.720   6.604  16.753  0.00  0.00    +0.000 OA
ATOM     19  C   UNL     1       7.131   7.670  17.480  0.00  0.00    +0.000 C 
ENDBRANCH  15  18
ENDBRANCH   1  13
BRANCH   9  20
ATOM     20  N   UNL     1       3.800   5.996  19.060  0.00  0.00    +0.000 N 
ATOM     21  H   UNL     1       4.614   5.956  19.669  0.00  0.00    +0.000 HD
BRANCH  20  22
ATOM     22  C   UNL     1       3.205   7.270  18.950  0.00  0.00    +0.000 A 
ATOM     23  C   UNL     1       3.000   7.888  17.704  0.00  0.00    +0.000 A 
ATOM     24  C   UNL     1       1.998   8.845  17.545  0.00  0.00    +0.000 A 
ATOM     25  C   UNL     1       1.230   9.207  18.645  0.00  0.00    +0.000 A 
ATOM     26  C   UNL     1       1.586   8.754  19.916  0.00  0.00    +0.000 A 
ATOM     27  C   UNL     1       2.592   7.812  20.081  0.00  0.00    +0.000 A 
ATOM     28  O   UNL     1       0.876   9.108  21.033  0.00  0.00    +0.000 OA
ATOM     29  C   UNL     1      -0.504   9.079  20.674  0.00  0.00    +0.000 C 
ATOM     30  C   UNL     1      -0.787  10.039  19.525  0.00  0.00    +0.000 C 
ATOM     31  O   UNL     1       0.091   9.918  18.396  0.00  0.00    +0.000 OA
ENDBRANCH  20  22
ENDBRANCH   9  20
TORSDOF 5
ENDMDL
