MODEL 1
REMARK VINA RESULT:      -6.6      0.000      0.000
REMARK  Name = 
REMARK  10 active torsions:
REMARK  status: ('A' for Active; 'I' for Inactive)
REMARK    1  A    between atoms: C_1  and  C_2
REMARK    2  A    between atoms: C_2  and  C_3
REMARK    3  A    between atoms: C_3  and  N_4
REMARK    4  A    between atoms: N_4  and  C_5
REMARK    5  A    between atoms: C_10  and  O_11
REMARK    6  A    between atoms: C_12  and  O_13
REMARK    7  A    between atoms: O_13  and  C_14
REMARK    8  A    between atoms: C_21  and  O_22
REMARK    9  A    between atoms: C_23  and  O_24
REMARK   10  A    between atoms: O_24  and  C_25
REMARK                            x       y       z     vdW  Elec       q    Type
REMARK                         _______ _______ _______ _____ _____    ______ ____
ROOT
ATOM      1  N   UNL     1       6.010   4.952  16.468  0.00  0.00    +0.000 N 
ATOM      2  C   UNL     1       5.831   5.076  14.940  0.00  0.00    +0.000 C 
ATOM      3  C   UNL     1       4.820   4.007  16.851  0.00  0.00    +0.000 C 
ATOM      4  C   UNL     1       3.409   4.858  16.752  0.00  0.00    +0.000 C 
ATOM      5  C   UNL     1       3.512   6.207  17.488  0.00  0.00    +0.000 A 
ATOM      6  C   UNL     1       4.582   6.150  18.308  0.00  0.00    +0.000 A 
ATOM      7  C   UNL     1       4.172   5.651  19.549  0.00  0.00    +0.000 A 
ATOM      8  C   UNL     1       2.914   6.062  20.071  0.00  0.00    +0.000 A 
ATOM      9  C   UNL     1       2.260   7.092  19.366  0.00  0.00    +0.000 A 
ATOM     10  C   UNL     1       2.555   7.071  17.976  0.00  0.00    +0.000 A 
ATOM     11  C   UNL     1       2.323   8.201  17.202  0.00  0.00    +0.000 A 
ATOM     12  C   UNL     1       1.840   9.368  17.830  0.00  0.00    +0.000 A 
ATOM     13  C   UNL     1       1.446   9.399  19.177  0.00  0.00    +0.000 A 
ATOM     14  C   UNL     1       1.043  10.616  19.751  0.00  0.00    +0.000 A 
ATOM     15  C   UNL     1       0.607  10.684  21.075  0.00  0.00    +0.000 A 
ATOM     16  C   UNL     1       0.554   9.529  21.848  0.00  0.00    +0.000 A 
ATOM     17  C   UNL     1       1.046   8.330  21.291  0.00  0.00    +0.000 A 
ATOM     18  C   UNL     1       1.543   8.220  19.950  0.00  0.00    +0.000 A 
ATOM     19  C   UNL     1       5.815   6.180  17.430  0.00  0.00    +0.000 C 
ENDROOT
BRANCH   7  20
ATOM     20  O   UNL     1       4.859   4.597  20.076  0.00  0.00    +0.000 OA
ATOM     21  H   UNL     1       4.576   3.814  19.546  0.00  0.00    +0.000 HD
ENDBRANCH   7  20
BRANCH   8  22
ATOM     22  O   UNL     1       2.200   5.527  21.098  0.00  0.00    +0.000 OA
ATOM     23  C   UNL     1       1.532   4.282  21.012  0.00  0.00    +0.000 C 
ENDBRANCH   8  22
BRANCH  15  24
ATOM     24  O   UNL     1       0.258  11.906  21.582  0.00  0.00    +0.000 OA
ATOM     25  H   UNL     1       0.566  12.613  20.986  0.00  0.00    +0.000 HD
ENDBRANCH  15  24
BRANCH  16  26
ATOM     26  O   UNL     1       0.085   9.405  23.132  0.00  0.00    +0.000 OA
ATOM     27  C   UNL     1      -1.090  10.126  23.507  0.00  0.00    +0.000 C 
ENDBRANCH  16  26
BRANCH   1  28
ATOM     28  C   UNL     1       7.525   4.535  16.681  0.00  0.00    +0.000 C 
BRANCH  28  30
ATOM     29  C   UNL     1       8.177   5.705  18.953  0.00  0.00    +0.000 C 
ATOM     30  C   UNL     1       7.829   4.423  18.219  0.00  0.00    +0.000 C 
ENDBRANCH  28  30
ENDBRANCH   1  28
TORSDOF 6
ENDMDL
MODEL 2
REMARK VINA RESULT:      -6.3      4.576      9.925
REMARK  Name = 
REMARK  10 active torsions:
REMARK  status: ('A' for Active; 'I' for Inactive)
REMARK    1  A    between atoms: C_1  and  C_2
REMARK    2  A    between atoms: C_2  and  C_3
REMARK    3  A    between atoms: C_3  and  N_4
REMARK    4  A    between atoms: N_4  and  C_5
REMARK    5  A    between atoms: C_10  and  O_11
REMARK    6  A    between atoms: C_12  and  O_13
REMARK    7  A    between atoms: O_13  and  C_14
REMARK    8  A    between atoms: C_21  and  O_22
REMARK    9  A    between atoms: C_23  and  O_24
REMARK   10  A    between atoms: O_24  and  C_25
REMARK                            x       y       z     vdW  Elec       q    Type
REMARK                         _______ _______ _______ _____ _____    ______ ____
ROOT
ATOM      1  N   UNL     1      -1.909  15.480  23.698  0.00  0.00    +0.000 N 
ATOM      2  C   UNL     1      -2.743  15.207  24.969  0.00  0.00    +0.000 C 
ATOM      3  C   UNL     1      -2.931  15.121  22.566  0.00  0.00    +0.000 C 
ATOM      4  C   UNL     1      -3.104  13.480  22.502  0.00  0.00    +0.000 C 
ATOM      5  C   UNL     1      -1.736  12.772  22.478  0.00  0.00    +0.000 A 
ATOM      6  C   UNL     1      -0.802  13.686  22.145  0.00  0.00    +0.000 A 
ATOM      7  C   UNL     1      -0.670  13.708  20.752  0.00  0.00    +0.000 A 
ATOM      8  C   UNL     1      -0.729  12.478  20.039  0.00  0.00    +0.000 A 
ATOM      9  C   UNL     1      -0.734  11.308  20.825  0.00  0.00    +0.000 A 
ATOM     10  C   UNL     1      -1.357  11.505  22.087  0.00  0.00    +0.000 A 
ATOM     11  C   UNL     1      -1.124  10.608  23.121  0.00  0.00    +0.000 A 
ATOM     12  C   UNL     1      -0.228   9.539  22.906  0.00  0.00    +0.000 A 
ATOM     13  C   UNL     1       0.329   9.256  21.650  0.00  0.00    +0.000 A 
ATOM     14  C   UNL     1       1.270   8.220  21.529  0.00  0.00    +0.000 A 
ATOM     15  C   UNL     1       1.819   7.880  20.291  0.00  0.00    +0.000 A 
ATOM     16  C   UNL     1       1.427   8.566  19.147  0.00  0.00    +0.000 A 
ATOM     17  C   UNL     1       0.552   9.663  19.292  0.00  0.00    +0.000 A 
ATOM     18  C   UNL     1      -0.004  10.077  20.548  0.00  0.00    +0.000 A 
ATOM     19  C   UNL     1      -0.650  14.616  23.330  0.00  0.00    +0.000 C 
ENDROOT
BRANCH   7  20
ATOM     20  O   UNL     1      -0.761  14.912  20.117  0.00  0.00    +0.000 OA
ATOM     21  H   UNL     1      -0.736  15.586  20.838  0.00  0.00    +0.000 HD
ENDBRANCH   7  20
BRANCH   8  22
ATOM     22  O   UNL     1      -0.887  12.273  18.703  0.00  0.00    +0.000 OA
ATOM     23  C   UNL     1      -2.104  11.839  18.125  0.00  0.00    +0.000 C 
ENDBRANCH   8  22
BRANCH  15  24
ATOM     24  O   UNL     1       2.752   6.881  20.248  0.00  0.00    +0.000 OA
ATOM     25  H   UNL     1       3.593   7.194  20.626  0.00  0.00    +0.000 HD
ENDBRANCH  15  24
BRANCH  16  26
ATOM     26  O   UNL     1       1.808   8.315  17.852  0.00  0.00    +0.000 OA
ATOM     27  C   UNL     1       3.164   7.945  17.593  0.00  0.00    +0.000 C 
ENDBRANCH  16  26
BRANCH   1  28
ATOM     28  C   UNL     1      -1.329  16.944  23.883  0.00  0.00    +0.000 C 
BRANCH  28  30
ATOM     29  C   UNL     1       0.246  17.521  25.918  0.00  0.00    +0.000 C 
ATOM     30  C   UNL     1       0.088  16.867  24.558  0.00  0.00    +0.000 C 
ENDBRANCH  28  30
ENDBRANCH   1  28
TORSDOF 6
ENDMDL
MODEL 3
REMARK VINA RESULT:      -6.2      9.412     10.806
REMARK  Name = 
REMARK  10 active torsions:
REMARK  status: ('A' for Active; 'I' for Inactive)
REMARK    1  A    between atoms: C_1  and  C_2
REMARK    2  A    between atoms: C_2  and  C_3
REMARK    3  A    between atoms: C_3  and  N_4
REMARK    4  A    between atoms: N_4  and  C_5
REMARK    5  A    between atoms: C_10  and  O_11
REMARK    6  A    between atoms: C_12  and  O_13
REMARK    7  A    between atoms: O_13  and  C_14
REMARK    8  A    between atoms: C_21  and  O_22
REMARK    9  A    between atoms: C_23  and  O_24
REMARK   10  A    between atoms: O_24  and  C_25
REMARK                            x       y       z     vdW  Elec       q    Type
REMARK                         _______ _______ _______ _____ _____    ______ ____
ROOT
ATOM      1  N   UNL     1      11.212  14.821  17.608  0.00  0.00    +0.000 N 
ATOM      2  C   UNL     1      11.791  13.601  16.859  0.00  0.00    +0.000 C 
ATOM      3  C   UNL     1      12.269  15.023  18.747  0.00  0.00    +0.000 C 
ATOM      4  C   UNL     1      12.081  13.828  19.869  0.00  0.00    +0.000 C 
ATOM      5  C   UNL     1      10.605  13.674  20.286  0.00  0.00    +0.000 A 
ATOM      6  C   UNL     1       9.949  14.788  19.901  0.00  0.00    +0.000 A 
ATOM      7  C   UNL     1      10.009  15.726  20.938  0.00  0.00    +0.000 A 
ATOM      8  C   UNL     1       9.887  15.272  22.281  0.00  0.00    +0.000 A 
ATOM      9  C   UNL     1       9.530  13.918  22.444  0.00  0.00    +0.000 A 
ATOM     10  C   UNL     1      10.009  13.098  21.388  0.00  0.00    +0.000 A 
ATOM     11  C   UNL     1       9.450  11.846  21.175  0.00  0.00    +0.000 A 
ATOM     12  C   UNL     1       8.375  11.433  21.992  0.00  0.00    +0.000 A 
ATOM     13  C   UNL     1       7.939  12.170  23.103  0.00  0.00    +0.000 A 
ATOM     14  C   UNL     1       6.817  11.731  23.826  0.00  0.00    +0.000 A 
ATOM     15  C   UNL     1       6.374  12.413  24.961  0.00  0.00    +0.000 A 
ATOM     16  C   UNL     1       7.054  13.543  25.401  0.00  0.00    +0.000 A 
ATOM     17  C   UNL     1       8.124  14.026  24.617  0.00  0.00    +0.000 A 
ATOM     18  C   UNL     1       8.588  13.385  23.422  0.00  0.00    +0.000 A 
ATOM     19  C   UNL     1       9.852  14.746  18.391  0.00  0.00    +0.000 C 
ENDROOT
BRANCH   7  20
ATOM     20  O   UNL     1      10.446  16.984  20.642  0.00  0.00    +0.000 OA
ATOM     21  H   UNL     1       9.628  17.531  20.569  0.00  0.00    +0.000 HD
ENDBRANCH   7  20
BRANCH   8  22
ATOM     22  O   UNL     1      10.170  15.935  23.435  0.00  0.00    +0.000 OA
ATOM     23  C   UNL     1       9.548  17.152  23.803  0.00  0.00    +0.000 C 
ENDBRANCH   8  22
BRANCH  15  24
ATOM     24  O   UNL     1       5.257  11.951  25.600  0.00  0.00    +0.000 OA
ATOM     25  H   UNL     1       4.537  12.603  25.526  0.00  0.00    +0.000 HD
ENDBRANCH  15  24
BRANCH  16  26
ATOM     26  O   UNL     1       6.800  14.283  26.529  0.00  0.00    +0.000 OA
ATOM     27  C   UNL     1       7.739  15.287  26.919  0.00  0.00    +0.000 C 
ENDBRANCH  16  26
BRANCH   1  28
ATOM     28  C   UNL     1      10.952  15.915  16.489  0.00  0.00    +0.000 C 
BRANCH  28  30
ATOM     29  C   UNL     1      11.286  18.370  17.392  0.00  0.00    +0.000 C 
ATOM     30  C   UNL     1      10.344  17.206  17.148  0.00  0.00    +0.000 C 
ENDBRANCH  28  30
ENDBRANCH   1  28
TORSDOF 6
ENDMDL
MODEL 4
REMARK VINA RESULT:      -6.0      4.957     10.170
REMARK  Name = 
REMARK  10 active torsions:
REMARK  status: ('A' for Active; 'I' for Inactive)
REMARK    1  A    between atoms: C_1  and  C_2
REMARK    2  A    between atoms: C_2  and  C_3
REMARK    3  A    between atoms: C_3  and  N_4
REMARK    4  A    between atoms: N_4  and  C_5
REMARK    5  A    between atoms: C_10  and  O_11
REMARK    6  A    between atoms: C_12  and  O_13
REMARK    7  A    between atoms: O_13  and  C_14
REMARK    8  A    between atoms: C_21  and  O_22
REMARK    9  A    between atoms: C_23  and  O_24
REMARK   10  A    between atoms: O_24  and  C_25
REMARK                            x       y       z     vdW  Elec       q    Type
REMARK                         _______ _______ _______ _____ _____    ______ ____
ROOT
ATOM      1  N   UNL     1      -4.651  15.060  22.361  0.00  0.00    +0.000 N 
ATOM      2  C   UNL     1      -4.591  16.506  21.824  0.00  0.00    +0.000 C 
ATOM      3  C   UNL     1      -3.500  15.069  23.424  0.00  0.00    +0.000 C 
ATOM      4  C   UNL     1      -2.048  15.069  22.639  0.00  0.00    +0.000 C 
ATOM      5  C   UNL     1      -1.999  13.985  21.546  0.00  0.00    +0.000 A 
ATOM      6  C   UNL     1      -3.000  13.112  21.784  0.00  0.00    +0.000 A 
ATOM      7  C   UNL     1      -2.523  12.100  22.627  0.00  0.00    +0.000 A 
ATOM      8  C   UNL     1      -1.201  11.612  22.430  0.00  0.00    +0.000 A 
ATOM      9  C   UNL     1      -0.540  12.068  21.273  0.00  0.00    +0.000 A 
ATOM     10  C   UNL     1      -0.949  13.375  20.893  0.00  0.00    +0.000 A 
ATOM     11  C   UNL     1      -0.706  13.829  19.603  0.00  0.00    +0.000 A 
ATOM     12  C   UNL     1      -0.096  12.955  18.678  0.00  0.00    +0.000 A 
ATOM     13  C   UNL     1       0.409  11.697  19.040  0.00  0.00    +0.000 A 
ATOM     14  C   UNL     1       0.938  10.854  18.049  0.00  0.00    +0.000 A 
ATOM     15  C   UNL     1       1.486   9.611  18.372  0.00  0.00    +0.000 A 
ATOM     16  C   UNL     1       1.525   9.193  19.698  0.00  0.00    +0.000 A 
ATOM     17  C   UNL     1       0.909  10.006  20.673  0.00  0.00    +0.000 A 
ATOM     18  C   UNL     1       0.296  11.271  20.383  0.00  0.00    +0.000 A 
ATOM     19  C   UNL     1      -4.295  13.823  21.460  0.00  0.00    +0.000 C 
ENDROOT
BRANCH   7  20
ATOM     20  O   UNL     1      -3.233  11.817  23.756  0.00  0.00    +0.000 OA
ATOM     21  H   UNL     1      -3.855  11.096  23.495  0.00  0.00    +0.000 HD
ENDBRANCH   7  20
BRANCH   8  22
ATOM     22  O   UNL     1      -0.443  10.845  23.260  0.00  0.00    +0.000 OA
ATOM     23  C   UNL     1      -0.593   9.442  23.373  0.00  0.00    +0.000 C 
ENDBRANCH   8  22
BRANCH  15  24
ATOM     24  O   UNL     1       1.956   8.826  17.355  0.00  0.00    +0.000 OA
ATOM     25  H   UNL     1       2.727   8.313  17.660  0.00  0.00    +0.000 HD
ENDBRANCH  15  24
BRANCH  16  26
ATOM     26  O   UNL     1       2.088   8.044  20.194  0.00  0.00    +0.000 OA
ATOM     27  C   UNL     1       1.246   7.088  20.840  0.00  0.00    +0.000 C 
ENDBRANCH  16  26
BRANCH   1  28
ATOM     28  C   UNL     1      -6.168  14.822  22.758  0.00  0.00    +0.000 C 
BRANCH  28  30
ATOM     29  C   UNL     1      -6.775  12.587  24.020  0.00  0.00    +0.000 C 
ATOM     30  C   UNL     1      -6.491  13.285  22.702  0.00  0.00    +0.000 C 
ENDBRANCH  28  30
ENDBRANCH   1  28
TORSDOF 6
ENDMDL
MODEL 5
REMARK VINA RESULT:      -6.0      9.237     11.503
REMARK  Name = 
REMARK  10 active torsions:
REMARK  status: ('A' for Active; 'I' for Inactive)
REMARK    1  A    between atoms: C_1  and  C_2
REMARK    2  A    between atoms: C_2  and  C_3
REMARK    3  A    between atoms: C_3  and  N_4
REMARK    4  A    between atoms: N_4  and  C_5
REMARK    5  A    between atoms: C_10  and  O_11
REMARK    6  A    between atoms: C_12  and  O_13
REMARK    7  A    between atoms: O_13  and  C_14
REMARK    8  A    between atoms: C_21  and  O_22
REMARK    9  A    between atoms: C_23  and  O_24
REMARK   10  A    between atoms: O_24  and  C_25
REMARK                            x       y       z     vdW  Elec       q    Type
REMARK                         _______ _______ _______ _____ _____    ______ ____
ROOT
ATOM      1  N   UNL     1       6.597  13.680  25.946  0.00  0.00    +0.000 N 
ATOM      2  C   UNL     1       6.738  14.823  26.974  0.00  0.00    +0.000 C 
ATOM      3  C   UNL     1       8.008  13.003  26.030  0.00  0.00    +0.000 C 
ATOM      4  C   UNL     1       9.114  13.979  25.288  0.00  0.00    +0.000 C 
ATOM      5  C   UNL     1       8.622  14.432  23.900  0.00  0.00    +0.000 A 
ATOM      6  C   UNL     1       7.611  13.618  23.533  0.00  0.00    +0.000 A 
ATOM      7  C   UNL     1       8.144  12.523  22.843  0.00  0.00    +0.000 A 
ATOM      8  C   UNL     1       9.227  12.738  21.947  0.00  0.00    +0.000 A 
ATOM      9  C   UNL     1       9.558  14.084  21.691  0.00  0.00    +0.000 A 
ATOM     10  C   UNL     1       9.287  14.931  22.800  0.00  0.00    +0.000 A 
ATOM     11  C   UNL     1       9.185  16.303  22.614  0.00  0.00    +0.000 A 
ATOM     12  C   UNL     1       9.308  16.824  21.308  0.00  0.00    +0.000 A 
ATOM     13  C   UNL     1       9.671  16.035  20.206  0.00  0.00    +0.000 A 
ATOM     14  C   UNL     1       9.703  16.610  18.925  0.00  0.00    +0.000 A 
ATOM     15  C   UNL     1      10.097  15.870  17.808  0.00  0.00    +0.000 A 
ATOM     16  C   UNL     1      10.478  14.541  17.956  0.00  0.00    +0.000 A 
ATOM     17  C   UNL     1      10.356  13.949  19.230  0.00  0.00    +0.000 A 
ATOM     18  C   UNL     1       9.916  14.656  20.398  0.00  0.00    +0.000 A 
ATOM     19  C   UNL     1       6.426  13.960  24.410  0.00  0.00    +0.000 C 
ENDROOT
BRANCH   7  20
ATOM     20  O   UNL     1       7.788  11.271  23.254  0.00  0.00    +0.000 OA
ATOM     21  H   UNL     1       7.810  11.308  24.240  0.00  0.00    +0.000 HD
ENDBRANCH   7  20
BRANCH   8  22
ATOM     22  O   UNL     1      10.062  11.825  21.382  0.00  0.00    +0.000 OA
ATOM     23  C   UNL     1       9.633  10.866  20.432  0.00  0.00    +0.000 C 
ENDBRANCH   8  22
BRANCH  15  24
ATOM     24  O   UNL     1      10.075  16.482  16.585  0.00  0.00    +0.000 OA
ATOM     25  H   UNL     1      10.702  17.228  16.575  0.00  0.00    +0.000 HD
ENDBRANCH  15  24
BRANCH  16  26
ATOM     26  O   UNL     1      10.958  13.699  16.984  0.00  0.00    +0.000 OA
ATOM     27  C   UNL     1      12.333  13.311  17.028  0.00  0.00    +0.000 C 
ENDBRANCH  16  26
BRANCH   1  28
ATOM     28  C   UNL     1       5.266  12.916  26.348  0.00  0.00    +0.000 C 
BRANCH  28  30
ATOM     29  C   UNL     1       4.422  10.455  26.776  0.00  0.00    +0.000 C 
ATOM     30  C   UNL     1       5.479  11.368  26.183  0.00  0.00    +0.000 C 
ENDBRANCH  28  30
ENDBRANCH   1  28
TORSDOF 6
ENDMDL
MODEL 6
REMARK VINA RESULT:      -6.0      7.447      9.255
REMARK  Name = 
REMARK  10 active torsions:
REMARK  status: ('A' for Active; 'I' for Inactive)
REMARK    1  A    between atoms: C_1  and  C_2
REMARK    2  A    between atoms: C_2  and  C_3
REMARK    3  A    between atoms: C_3  and  N_4
REMARK    4  A    between atoms: N_4  and  C_5
REMARK    5  A    between atoms: C_10  and  O_11
REMARK    6  A    between atoms: C_12  and  O_13
REMARK    7  A    between atoms: O_13  and  C_14
REMARK    8  A    between atoms: C_21  and  O_22
REMARK    9  A    between atoms: C_23  and  O_24
REMARK   10  A    between atoms: O_24  and  C_25
REMARK                            x       y       z     vdW  Elec       q    Type
REMARK                         _______ _______ _______ _____ _____    ______ ____
ROOT
ATOM      1  N   UNL     1       2.404  14.947  19.403  0.00  0.00    +0.000 N 
ATOM      2  C   UNL     1       3.465  14.032  18.755  0.00  0.00    +0.000 C 
ATOM      3  C   UNL     1       2.177  14.241  20.784  0.00  0.00    +0.000 C 
ATOM      4  C   UNL     1       1.314  12.855  20.540  0.00  0.00    +0.000 C 
ATOM      5  C   UNL     1       0.076  13.111  19.660  0.00  0.00    +0.000 A 
ATOM      6  C   UNL     1      -0.154  14.441  19.645  0.00  0.00    +0.000 A 
ATOM      7  C   UNL     1      -1.005  14.762  20.709  0.00  0.00    +0.000 A 
ATOM      8  C   UNL     1      -2.069  13.873  21.028  0.00  0.00    +0.000 A 
ATOM      9  C   UNL     1      -2.287  12.819  20.117  0.00  0.00    +0.000 A 
ATOM     10  C   UNL     1      -1.091  12.401  19.474  0.00  0.00    +0.000 A 
ATOM     11  C   UNL     1      -1.158  11.664  18.299  0.00  0.00    +0.000 A 
ATOM     12  C   UNL     1      -2.425  11.387  17.741  0.00  0.00    +0.000 A 
ATOM     13  C   UNL     1      -3.627  11.698  18.394  0.00  0.00    +0.000 A 
ATOM     14  C   UNL     1      -4.849  11.458  17.744  0.00  0.00    +0.000 A 
ATOM     15  C   UNL     1      -6.068  11.716  18.373  0.00  0.00    +0.000 A 
ATOM     16  C   UNL     1      -6.087  12.210  19.673  0.00  0.00    +0.000 A 
ATOM     17  C   UNL     1      -4.856  12.533  20.283  0.00  0.00    +0.000 A 
ATOM     18  C   UNL     1      -3.580  12.326  19.660  0.00  0.00    +0.000 A 
ATOM     19  C   UNL     1       0.949  15.072  18.823  0.00  0.00    +0.000 C 
ENDROOT
BRANCH   7  20
ATOM     20  O   UNL     1      -0.624  15.760  21.557  0.00  0.00    +0.000 OA
ATOM     21  H   UNL     1      -1.459  16.063  21.990  0.00  0.00    +0.000 HD
ENDBRANCH   7  20
BRANCH   8  22
ATOM     22  O   UNL     1      -2.841  13.833  22.147  0.00  0.00    +0.000 OA
ATOM     23  C   UNL     1      -2.317  13.615  23.444  0.00  0.00    +0.000 C 
ENDBRANCH   8  22
BRANCH  15  24
ATOM     24  O   UNL     1      -7.220  11.488  17.673  0.00  0.00    +0.000 OA
ATOM     25  H   UNL     1      -7.617  10.642  17.950  0.00  0.00    +0.000 HD
ENDBRANCH  15  24
BRANCH  16  26
ATOM     26  O   UNL     1      -7.187  12.447  20.459  0.00  0.00    +0.000 OA
ATOM     27  C   UNL     1      -7.786  11.352  21.154  0.00  0.00    +0.000 C 
ENDBRANCH  16  26
BRANCH   1  28
ATOM     28  C   UNL     1       2.990  16.416  19.288  0.00  0.00    +0.000 C 
BRANCH  28  30
ATOM     29  C   UNL     1       2.750  17.249  16.797  0.00  0.00    +0.000 C 
ATOM     30  C   UNL     1       2.184  17.221  18.205  0.00  0.00    +0.000 C 
ENDBRANCH  28  30
ENDBRANCH   1  28
TORSDOF 6
ENDMDL
MODEL 7
REMARK VINA RESULT:      -6.0      6.823      8.937
REMARK  Name = 
REMARK  10 active torsions:
REMARK  status: ('A' for Active; 'I' for Inactive)
REMARK    1  A    between atoms: C_1  and  C_2
REMARK    2  A    between atoms: C_2  and  C_3
REMARK    3  A    between atoms: C_3  and  N_4
REMARK    4  A    between atoms: N_4  and  C_5
REMARK    5  A    between atoms: C_10  and  O_11
REMARK    6  A    between atoms: C_12  and  O_13
REMARK    7  A    between atoms: O_13  and  C_14
REMARK    8  A    between atoms: C_21  and  O_22
REMARK    9  A    between atoms: C_23  and  O_24
REMARK   10  A    between atoms: O_24  and  C_25
REMARK                            x       y       z     vdW  Elec       q    Type
REMARK                         _______ _______ _______ _____ _____    ______ ____
ROOT
ATOM      1  N   UNL     1      -2.941  10.586  17.623  0.00  0.00    +0.000 N 
ATOM      2  C   UNL     1      -3.502   9.233  18.110  0.00  0.00    +0.000 C 
ATOM      3  C   UNL     1      -1.396  10.340  17.718  0.00  0.00    +0.000 C 
ATOM      4  C   UNL     1      -0.950  10.351  19.307  0.00  0.00    +0.000 C 
ATOM      5  C   UNL     1      -1.522  11.577  20.043  0.00  0.00    +0.000 A 
ATOM      6  C   UNL     1      -1.910  12.475  19.114  0.00  0.00    +0.000 A 
ATOM      7  C   UNL     1      -0.829  13.316  18.824  0.00  0.00    +0.000 A 
ATOM      8  C   UNL     1       0.019  13.733  19.888  0.00  0.00    +0.000 A 
ATOM      9  C   UNL     1      -0.415  13.404  21.188  0.00  0.00    +0.000 A 
ATOM     10  C   UNL     1      -1.167  12.199  21.222  0.00  0.00    +0.000 A 
ATOM     11  C   UNL     1      -1.982  11.923  22.311  0.00  0.00    +0.000 A 
ATOM     12  C   UNL     1      -2.081  12.876  23.347  0.00  0.00    +0.000 A 
ATOM     13  C   UNL     1      -1.283  14.029  23.397  0.00  0.00    +0.000 A 
ATOM     14  C   UNL     1      -1.489  14.968  24.421  0.00  0.00    +0.000 A 
ATOM     15  C   UNL     1      -0.691  16.108  24.530  0.00  0.00    +0.000 A 
ATOM     16  C   UNL     1       0.338  16.324  23.620  0.00  0.00    +0.000 A 
ATOM     17  C   UNL     1       0.478  15.423  22.544  0.00  0.00    +0.000 A 
ATOM     18  C   UNL     1      -0.344  14.262  22.365  0.00  0.00    +0.000 A 
ATOM     19  C   UNL     1      -3.142  11.912  18.440  0.00  0.00    +0.000 C 
ENDROOT
BRANCH   7  20
ATOM     20  O   UNL     1      -0.476  13.481  17.517  0.00  0.00    +0.000 OA
ATOM     21  H   UNL     1      -0.936  12.754  17.032  0.00  0.00    +0.000 HD
ENDBRANCH   7  20
BRANCH   8  22
ATOM     22  O   UNL     1       1.247  14.315  19.822  0.00  0.00    +0.000 OA
ATOM     23  C   UNL     1       2.452  13.576  19.741  0.00  0.00    +0.000 C 
ENDBRANCH   8  22
BRANCH  15  24
ATOM     24  O   UNL     1      -0.965  16.997  25.533  0.00  0.00    +0.000 OA
ATOM     25  H   UNL     1      -1.659  16.639  26.116  0.00  0.00    +0.000 HD
ENDBRANCH  15  24
BRANCH  16  26
ATOM     26  O   UNL     1       1.255  17.346  23.626  0.00  0.00    +0.000 OA
ATOM     27  C   UNL     1       2.534  17.125  23.028  0.00  0.00    +0.000 C 
ENDBRANCH  16  26
BRANCH   1  28
ATOM     28  C   UNL     1      -3.670  10.870  16.243  0.00  0.00    +0.000 C 
BRANCH  28  30
ATOM     29  C   UNL     1      -3.683   9.991  13.756  0.00  0.00    +0.000 C 
ATOM     30  C   UNL     1      -2.986  10.030  15.104  0.00  0.00    +0.000 C 
ENDBRANCH  28  30
ENDBRANCH   1  28
TORSDOF 6
ENDMDL
MODEL 8
REMARK VINA RESULT:      -6.0      4.918     10.325
REMARK  Name = 
REMARK  10 active torsions:
REMARK  status: ('A' for Active; 'I' for Inactive)
REMARK    1  A    between atoms: C_1  and  C_2
REMARK    2  A    between atoms: C_2  and  C_3
REMARK    3  A    between atoms: C_3  and  N_4
REMARK    4  A    between atoms: N_4  and  C_5
REMARK    5  A    between atoms: C_10  and  O_11
REMARK    6  A    between atoms: C_12  and  O_13
REMARK    7  A    between atoms: O_13  and  C_14
REMARK    8  A    between atoms: C_21  and  O_22
REMARK    9  A    between atoms: C_23  and  O_24
REMARK   10  A    between atoms: O_24  and  C_25
REMARK                            x       y       z     vdW  Elec       q    Type
REMARK                         _______ _______ _______ _____ _____    ______ ____
ROOT
ATOM      1  N   UNL     1      -2.158  16.048  23.934  0.00  0.00    +0.000 N 
ATOM      2  C   UNL     1      -2.993  15.793  25.208  0.00  0.00    +0.000 C 
ATOM      3  C   UNL     1      -3.194  15.721  22.805  0.00  0.00    +0.000 C 
ATOM      4  C   UNL     1      -3.411  14.086  22.736  0.00  0.00    +0.000 C 
ATOM      5  C   UNL     1      -2.063  13.341  22.703  0.00  0.00    +0.000 A 
ATOM      6  C   UNL     1      -1.106  14.231  22.370  0.00  0.00    +0.000 A 
ATOM      7  C   UNL     1      -0.980  14.255  20.976  0.00  0.00    +0.000 A 
ATOM      8  C   UNL     1      -1.074  13.030  20.259  0.00  0.00    +0.000 A 
ATOM      9  C   UNL     1      -1.108  11.858  21.041  0.00  0.00    +0.000 A 
ATOM     10  C   UNL     1      -1.719  12.066  22.307  0.00  0.00    +0.000 A 
ATOM     11  C   UNL     1      -1.506  11.159  23.336  0.00  0.00    +0.000 A 
ATOM     12  C   UNL     1      -0.640  10.067  23.113  0.00  0.00    +0.000 A 
ATOM     13  C   UNL     1      -0.096   9.775  21.853  0.00  0.00    +0.000 A 
ATOM     14  C   UNL     1       0.816   8.713  21.724  0.00  0.00    +0.000 A 
ATOM     15  C   UNL     1       1.350   8.364  20.482  0.00  0.00    +0.000 A 
ATOM     16  C   UNL     1       0.971   9.064  19.342  0.00  0.00    +0.000 A 
ATOM     17  C   UNL     1       0.127  10.184  19.496  0.00  0.00    +0.000 A 
ATOM     18  C   UNL     1      -0.413  10.608  20.756  0.00  0.00    +0.000 A 
ATOM     19  C   UNL     1      -0.924  15.152  23.557  0.00  0.00    +0.000 C 
ENDROOT
BRANCH   7  20
ATOM     20  O   UNL     1      -1.041  15.463  20.346  0.00  0.00    +0.000 OA
ATOM     21  H   UNL     1      -1.781  15.946  20.787  0.00  0.00    +0.000 HD
ENDBRANCH   7  20
BRANCH   8  22
ATOM     22  O   UNL     1      -1.245  12.833  18.923  0.00  0.00    +0.000 OA
ATOM     23  C   UNL     1      -0.320  13.282  17.950  0.00  0.00    +0.000 C 
ENDBRANCH   8  22
BRANCH  15  24
ATOM     24  O   UNL     1       2.255   7.340  20.431  0.00  0.00    +0.000 OA
ATOM     25  H   UNL     1       2.557   7.118  21.331  0.00  0.00    +0.000 HD
ENDBRANCH  15  24
BRANCH  16  26
ATOM     26  O   UNL     1       1.340   8.808  18.045  0.00  0.00    +0.000 OA
ATOM     27  C   UNL     1       2.726   8.632  17.746  0.00  0.00    +0.000 C 
ENDBRANCH  16  26
BRANCH   1  28
ATOM     28  C   UNL     1      -1.538  17.496  24.122  0.00  0.00    +0.000 C 
BRANCH  28  30
ATOM     29  C   UNL     1       0.628  18.561  23.058  0.00  0.00    +0.000 C 
ATOM     30  C   UNL     1      -0.713  17.884  22.841  0.00  0.00    +0.000 C 
ENDBRANCH  28  30
ENDBRANCH   1  28
TORSDOF 6
ENDMDL
MODEL 9
REMARK VINA RESULT:      -6.0      5.053      9.048
REMARK  Name = 
REMARK  10 active torsions:
REMARK  status: ('A' for Active; 'I' for Inactive)
REMARK    1  A    between atoms: C_1  and  C_2
REMARK    2  A    between atoms: C_2  and  C_3
REMARK    3  A    between atoms: C_3  and  N_4
REMARK    4  A    between atoms: N_4  and  C_5
REMARK    5  A    between atoms: C_10  and  O_11
REMARK    6  A    between atoms: C_12  and  O_13
REMARK    7  A    between atoms: O_13  and  C_14
REMARK    8  A    between atoms: C_21  and  O_22
REMARK    9  A    between atoms: C_23  and  O_24
REMARK   10  A    between atoms: O_24  and  C_25
REMARK                            x       y       z     vdW  Elec       q    Type
REMARK                         _______ _______ _______ _____ _____    ______ ____
ROOT
ATOM      1  N   UNL     1       0.415  10.257  19.616  0.00  0.00    +0.000 N 
ATOM      2  C   UNL     1       1.066   9.242  20.580  0.00  0.00    +0.000 C 
ATOM      3  C   UNL     1       1.136  11.588  20.024  0.00  0.00    +0.000 C 
ATOM      4  C   UNL     1       0.544  12.091  21.481  0.00  0.00    +0.000 C 
ATOM      5  C   UNL     1      -0.996  12.082  21.496  0.00  0.00    +0.000 A 
ATOM      6  C   UNL     1      -1.422  12.023  20.217  0.00  0.00    +0.000 A 
ATOM      7  C   UNL     1      -1.564  13.327  19.730  0.00  0.00    +0.000 A 
ATOM      8  C   UNL     1      -2.087  14.328  20.596  0.00  0.00    +0.000 A 
ATOM      9  C   UNL     1      -2.593  13.874  21.830  0.00  0.00    +0.000 A 
ATOM     10  C   UNL     1      -1.918  12.716  22.301  0.00  0.00    +0.000 A 
ATOM     11  C   UNL     1      -2.507  11.919  23.274  0.00  0.00    +0.000 A 
ATOM     12  C   UNL     1      -3.795  12.257  23.742  0.00  0.00    +0.000 A 
ATOM     13  C   UNL     1      -4.451  13.441  23.374  0.00  0.00    +0.000 A 
ATOM     14  C   UNL     1      -5.761  13.674  23.823  0.00  0.00    +0.000 A 
ATOM     15  C   UNL     1      -6.435  14.857  23.514  0.00  0.00    +0.000 A 
ATOM     16  C   UNL     1      -5.803  15.837  22.756  0.00  0.00    +0.000 A 
ATOM     17  C   UNL     1      -4.522  15.555  22.234  0.00  0.00    +0.000 A 
ATOM     18  C   UNL     1      -3.808  14.338  22.490  0.00  0.00    +0.000 A 
ATOM     19  C   UNL     1      -1.108  10.633  19.708  0.00  0.00    +0.000 C 
ENDROOT
BRANCH   7  20
ATOM     20  O   UNL     1      -0.953  13.643  18.553  0.00  0.00    +0.000 OA
ATOM     21  H   UNL     1      -0.127  13.102  18.538  0.00  0.00    +0.000 HD
ENDBRANCH   7  20
BRANCH   8  22
ATOM     22  O   UNL     1      -2.071  15.680  20.444  0.00  0.00    +0.000 OA
ATOM     23  C   UNL     1      -0.959  16.486  20.786  0.00  0.00    +0.000 C 
ENDBRANCH   8  22
BRANCH  15  24
ATOM     24  O   UNL     1      -7.720  15.006  23.957  0.00  0.00    +0.000 OA
ATOM     25  H   UNL     1      -7.783  15.786  24.538  0.00  0.00    +0.000 HD
ENDBRANCH  15  24
BRANCH  16  26
ATOM     26  O   UNL     1      -6.288  17.077  22.425  0.00  0.00    +0.000 OA
ATOM     27  C   UNL     1      -7.058  17.219  21.230  0.00  0.00    +0.000 C 
ENDBRANCH  16  26
BRANCH   1  28
ATOM     28  C   UNL     1       0.567   9.620  18.171  0.00  0.00    +0.000 C 
BRANCH  28  30
ATOM     29  C   UNL     1       2.606   7.983  17.825  0.00  0.00    +0.000 C 
ATOM     30  C   UNL     1       2.090   9.411  17.847  0.00  0.00    +0.000 C 
ENDBRANCH  28  30
ENDBRANCH   1  28
TORSDOF 6
ENDMDL
