MODEL 1
REMARK VINA RESULT:      -8.4      0.000      0.000
REMARK  Name = 
REMARK  10 active torsions:
REMARK  status: ('A' for Active; 'I' for Inactive)
REMARK    1  A    between atoms: C_1  and  C_2
REMARK    2  A    between atoms: C_2  and  C_3
REMARK    3  A    between atoms: C_2  and  C_4
REMARK    4  A    between atoms: C_4  and  C_5
REMARK    5  A    between atoms: C_8  and  C_10
REMARK    6  A    between atoms: C_11  and  C_12
REMARK    7  A    between atoms: C_20  and  C_21
REMARK    8  A    between atoms: C_21  and  C_22
REMARK    9  A    between atoms: C_22  and  C_23
REMARK   10  A    between atoms: C_22  and  C_24
REMARK                            x       y       z     vdW  Elec       q    Type
REMARK                         _______ _______ _______ _____ _____    ______ ____
ROOT
ATOM      1  C   UNL     1       6.126   4.876  16.962  0.00  0.00    +0.000 C 
ATOM      2  C   UNL     1       4.785   5.460  16.494  0.00  0.00    +0.000 C 
ATOM      3  N   UNL     1       3.953   5.815  17.651  0.00  0.00    +0.000 N 
ATOM      4  C   UNL     1       3.428   7.097  17.694  0.00  0.00    +0.000 C 
ATOM      5  O   UNL     1       3.644   7.919  16.802  0.00  0.00    +0.000 OA
ATOM      6  C   UNL     1       3.686   4.695  18.593  0.00  0.00    +0.000 C 
ATOM      7  C   UNL     1       4.970   3.877  18.891  0.00  0.00    +0.000 C 
ATOM      8  O   UNL     1       5.096   3.194  19.909  0.00  0.00    +0.000 OA
ATOM      9  N   UNL     1       5.916   3.779  17.901  0.00  0.00    +0.000 N 
ATOM     10  H   UNL     1       6.726   3.256  18.209  0.00  0.00    +0.000 HD
ENDROOT
BRANCH   4  11
ATOM     11  C   UNL     1       2.601   7.496  18.864  0.00  0.00    +0.000 C 
ATOM     12  C   UNL     1       1.884   8.629  18.802  0.00  0.00    +0.000 C 
BRANCH  12  13
ATOM     13  C   UNL     1       1.096   9.085  19.945  0.00  0.00    +0.000 A 
ATOM     14  C   UNL     1       1.107   8.352  21.140  0.00  0.00    +0.000 A 
ATOM     15  C   UNL     1       0.320   8.757  22.220  0.00  0.00    +0.000 A 
ATOM     16  C   UNL     1      -0.472   9.894  22.101  0.00  0.00    +0.000 A 
ATOM     17  F   UNL     1      -1.235  10.273  23.135  0.00  0.00    +0.000 F 
ATOM     18  C   UNL     1      -0.479  10.627  20.920  0.00  0.00    +0.000 A 
ATOM     19  F   UNL     1      -1.244  11.721  20.810  0.00  0.00    +0.000 F 
ATOM     20  C   UNL     1       0.302  10.231  19.838  0.00  0.00    +0.000 A 
ENDBRANCH  12  13
ENDBRANCH   4  11
BRANCH   1  21
ATOM     21  C   UNL     1       7.012   4.401  15.799  0.00  0.00    +0.000 C 
BRANCH  21  23
ATOM     22  C   UNL     1       7.737   5.365  13.541  0.00  0.00    +0.000 C 
ATOM     23  C   UNL     1       6.571   4.868  14.397  0.00  0.00    +0.000 C 
ATOM     24  C   UNL     1       5.853   3.730  13.667  0.00  0.00    +0.000 C 
ENDBRANCH  21  23
ENDBRANCH   1  21
BRANCH   6  25
ATOM     25  C   UNL     1       2.573   3.796  18.013  0.00  0.00    +0.000 C 
BRANCH  25  26
ATOM     26  C   UNL     1       1.259   3.744  18.814  0.00  0.00    +0.000 C 
ATOM     27  C   UNL     1       0.690   2.330  18.911  0.00  0.00    +0.000 C 
ATOM     28  C   UNL     1       1.488   4.315  20.217  0.00  0.00    +0.000 C 
ENDBRANCH  25  26
ENDBRANCH   6  25
TORSDOF 6
ENDMDL
MODEL 2
REMARK VINA RESULT:      -7.9      0.644      1.304
REMARK  Name = 
REMARK  10 active torsions:
REMARK  status: ('A' for Active; 'I' for Inactive)
REMARK    1  A    between atoms: C_1  and  C_2
REMARK    2  A    between atoms: C_2  and  C_3
REMARK    3  A    between atoms: C_2  and  C_4
REMARK    4  A    between atoms: C_4  and  C_5
REMARK    5  A    between atoms: C_8  and  C_10
REMARK    6  A    between atoms: C_11  and  C_12
REMARK    7  A    between atoms: C_20  and  C_21
REMARK    8  A    between atoms: C_21  and  C_22
REMARK    9  A    between atoms: C_22  and  C_23
REMARK   10  A    between atoms: C_22  and  C_24
REMARK                            x       y       z     vdW  Elec       q    Type
REMARK                         _______ _______ _______ _____ _____    ______ ____
ROOT
ATOM      1  C   UNL     1       5.816   4.742  16.972  0.00  0.00    +0.000 C 
ATOM      2  C   UNL     1       4.514   5.409  16.505  0.00  0.00    +0.000 C 
ATOM      3  N   UNL     1       3.749   5.896  17.662  0.00  0.00    +0.000 N 
ATOM      4  C   UNL     1       3.332   7.217  17.644  0.00  0.00    +0.000 C 
ATOM      5  O   UNL     1       3.587   7.969  16.702  0.00  0.00    +0.000 OA
ATOM      6  C   UNL     1       3.421   4.855  18.672  0.00  0.00    +0.000 C 
ATOM      7  C   UNL     1       4.641   3.951  18.984  0.00  0.00    +0.000 C 
ATOM      8  O   UNL     1       4.742   3.317  20.036  0.00  0.00    +0.000 OA
ATOM      9  N   UNL     1       5.546   3.721  17.978  0.00  0.00    +0.000 N 
ATOM     10  H   UNL     1       6.320   3.150  18.294  0.00  0.00    +0.000 HD
ENDROOT
BRANCH   4  11
ATOM     11  C   UNL     1       2.575   7.747  18.810  0.00  0.00    +0.000 C 
ATOM     12  C   UNL     1       1.753   8.794  18.635  0.00  0.00    +0.000 C 
BRANCH  12  13
ATOM     13  C   UNL     1       1.028   9.378  19.761  0.00  0.00    +0.000 A 
ATOM     14  C   UNL     1       0.570  10.702  19.688  0.00  0.00    +0.000 A 
ATOM     15  C   UNL     1      -0.082  11.280  20.779  0.00  0.00    +0.000 A 
ATOM     16  C   UNL     1      -0.276  10.533  21.936  0.00  0.00    +0.000 A 
ATOM     17  F   UNL     1      -0.893  11.094  22.984  0.00  0.00    +0.000 F 
ATOM     18  C   UNL     1       0.168   9.218  22.007  0.00  0.00    +0.000 A 
ATOM     19  F   UNL     1      -0.020   8.501  23.123  0.00  0.00    +0.000 F 
ATOM     20  C   UNL     1       0.821   8.633  20.926  0.00  0.00    +0.000 A 
ENDBRANCH  12  13
ENDBRANCH   4  11
BRANCH   1  21
ATOM     21  C   UNL     1       6.625   4.133  15.815  0.00  0.00    +0.000 C 
BRANCH  21  23
ATOM     22  C   UNL     1       7.605   5.272  13.744  0.00  0.00    +0.000 C 
ATOM     23  C   UNL     1       6.345   4.733  14.423  0.00  0.00    +0.000 C 
ATOM     24  C   UNL     1       5.691   3.684  13.520  0.00  0.00    +0.000 C 
ENDBRANCH  21  23
ENDBRANCH   1  21
BRANCH   6  25
ATOM     25  C   UNL     1       2.221   4.022  18.174  0.00  0.00    +0.000 C 
BRANCH  25  26
ATOM     26  C   UNL     1       1.188   3.615  19.242  0.00  0.00    +0.000 C 
ATOM     27  C   UNL     1       1.395   2.186  19.739  0.00  0.00    +0.000 C 
ATOM     28  C   UNL     1       1.251   4.594  20.418  0.00  0.00    +0.000 C 
ENDBRANCH  25  26
ENDBRANCH   6  25
TORSDOF 6
ENDMDL
MODEL 3
REMARK VINA RESULT:      -7.6      0.832      1.116
REMARK  Name = 
REMARK  10 active torsions:
REMARK  status: ('A' for Active; 'I' for Inactive)
REMARK    1  A    between atoms: C_1  and  C_2
REMARK    2  A    between atoms: C_2  and  C_3
REMARK    3  A    between atoms: C_2  and  C_4
REMARK    4  A    between atoms: C_4  and  C_5
REMARK    5  A    between atoms: C_8  and  C_10
REMARK    6  A    between atoms: C_11  and  C_12
REMARK    7  A    between atoms: C_20  and  C_21
REMARK    8  A    between atoms: C_21  and  C_22
REMARK    9  A    between atoms: C_22  and  C_23
REMARK   10  A    between atoms: C_22  and  C_24
REMARK                            x       y       z     vdW  Elec       q    Type
REMARK                         _______ _______ _______ _____ _____    ______ ____
ROOT
ATOM      1  C   UNL     1       5.350   4.455  17.378  0.00  0.00    +0.000 C 
ATOM      2  C   UNL     1       4.143   5.280  16.908  0.00  0.00    +0.000 C 
ATOM      3  N   UNL     1       3.354   5.730  18.062  0.00  0.00    +0.000 N 
ATOM      4  C   UNL     1       3.057   7.081  18.148  0.00  0.00    +0.000 C 
ATOM      5  O   UNL     1       3.435   7.887  17.296  0.00  0.00    +0.000 OA
ATOM      6  C   UNL     1       2.873   4.638  18.950  0.00  0.00    +0.000 C 
ATOM      7  C   UNL     1       3.987   3.600  19.240  0.00  0.00    +0.000 C 
ATOM      8  O   UNL     1       3.966   2.867  20.231  0.00  0.00    +0.000 OA
ATOM      9  N   UNL     1       4.928   3.377  18.266  0.00  0.00    +0.000 N 
ATOM     10  H   UNL     1       5.628   2.710  18.568  0.00  0.00    +0.000 HD
ENDROOT
BRANCH   4  11
ATOM     11  C   UNL     1       2.279   7.573  19.317  0.00  0.00    +0.000 C 
ATOM     12  C   UNL     1       1.631   8.745  19.224  0.00  0.00    +0.000 C 
BRANCH  12  13
ATOM     13  C   UNL     1       0.896   9.290  20.363  0.00  0.00    +0.000 A 
ATOM     14  C   UNL     1       1.042   8.712  21.632  0.00  0.00    +0.000 A 
ATOM     15  C   UNL     1       0.306   9.200  22.715  0.00  0.00    +0.000 A 
ATOM     16  C   UNL     1      -0.569  10.264  22.524  0.00  0.00    +0.000 A 
ATOM     17  F   UNL     1      -1.282  10.722  23.562  0.00  0.00    +0.000 F 
ATOM     18  C   UNL     1      -0.709  10.844  21.269  0.00  0.00    +0.000 A 
ATOM     19  F   UNL     1      -1.554  11.868  21.089  0.00  0.00    +0.000 F 
ATOM     20  C   UNL     1       0.019  10.365  20.183  0.00  0.00    +0.000 A 
ENDBRANCH  12  13
ENDBRANCH   4  11
BRANCH   1  21
ATOM     21  C   UNL     1       6.172   3.878  16.214  0.00  0.00    +0.000 C 
BRANCH  21  23
ATOM     22  C   UNL     1       7.155   5.122  14.205  0.00  0.00    +0.000 C 
ATOM     23  C   UNL     1       7.304   4.785  15.689  0.00  0.00    +0.000 C 
ATOM     24  C   UNL     1       7.357   6.081  16.502  0.00  0.00    +0.000 C 
ENDBRANCH  21  23
ENDBRANCH   1  21
BRANCH   6  25
ATOM     25  C   UNL     1       1.637   3.969  18.311  0.00  0.00    +0.000 C 
BRANCH  25  26
ATOM     26  C   UNL     1       0.667   3.270  19.282  0.00  0.00    +0.000 C 
ATOM     27  C   UNL     1       0.833   1.752  19.280  0.00  0.00    +0.000 C 
ATOM     28  C   UNL     1       0.871   3.819  20.698  0.00  0.00    +0.000 C 
ENDBRANCH  25  26
ENDBRANCH   6  25
TORSDOF 6
ENDMDL
MODEL 4
REMARK VINA RESULT:      -7.3      0.965      1.659
REMARK  Name = 
REMARK  10 active torsions:
REMARK  status: ('A' for Active; 'I' for Inactive)
REMARK    1  A    between atoms: C_1  and  C_2
REMARK    2  A    between atoms: C_2  and  C_3
REMARK    3  A    between atoms: C_2  and  C_4
REMARK    4  A    between atoms: C_4  and  C_5
REMARK    5  A    between atoms: C_8  and  C_10
REMARK    6  A    between atoms: C_11  and  C_12
REMARK    7  A    between atoms: C_20  and  C_21
REMARK    8  A    between atoms: C_21  and  C_22
REMARK    9  A    between atoms: C_22  and  C_23
REMARK   10  A    between atoms: C_22  and  C_24
REMARK                            x       y       z     vdW  Elec       q    Type
REMARK                         _______ _______ _______ _____ _____    ______ ____
ROOT
ATOM      1  C   UNL     1       5.306   4.540  17.266  0.00  0.00    +0.000 C 
ATOM      2  C   UNL     1       4.101   5.369  16.795  0.00  0.00    +0.000 C 
ATOM      3  N   UNL     1       3.338   5.857  17.951  0.00  0.00    +0.000 N 
ATOM      4  C   UNL     1       3.059   7.213  18.009  0.00  0.00    +0.000 C 
ATOM      5  O   UNL     1       3.432   7.993  17.131  0.00  0.00    +0.000 OA
ATOM      6  C   UNL     1       2.858   4.794  18.874  0.00  0.00    +0.000 C 
ATOM      7  C   UNL     1       3.964   3.749  19.171  0.00  0.00    +0.000 C 
ATOM      8  O   UNL     1       3.952   3.040  20.179  0.00  0.00    +0.000 OA
ATOM      9  N   UNL     1       4.886   3.490  18.187  0.00  0.00    +0.000 N 
ATOM     10  H   UNL     1       5.583   2.822  18.493  0.00  0.00    +0.000 HD
ENDROOT
BRANCH   4  11
ATOM     11  C   UNL     1       2.307   7.744  19.178  0.00  0.00    +0.000 C 
ATOM     12  C   UNL     1       1.515   8.815  19.015  0.00  0.00    +0.000 C 
BRANCH  12  13
ATOM     13  C   UNL     1       0.797   9.400  20.145  0.00  0.00    +0.000 A 
ATOM     14  C   UNL     1      -0.076  10.478  19.938  0.00  0.00    +0.000 A 
ATOM     15  C   UNL     1      -0.729  11.070  21.022  0.00  0.00    +0.000 A 
ATOM     16  C   UNL     1      -0.509  10.580  22.304  0.00  0.00    +0.000 A 
ATOM     17  F   UNL     1      -1.129  11.158  23.342  0.00  0.00    +0.000 F 
ATOM     18  C   UNL     1       0.348   9.505  22.510  0.00  0.00    +0.000 A 
ATOM     19  F   UNL     1       0.557   9.037  23.748  0.00  0.00    +0.000 F 
ATOM     20  C   UNL     1       1.005   8.909  21.438  0.00  0.00    +0.000 A 
ENDBRANCH  12  13
ENDBRANCH   4  11
BRANCH   1  21
ATOM     21  C   UNL     1       6.101   3.925  16.102  0.00  0.00    +0.000 C 
BRANCH  21  23
ATOM     22  C   UNL     1       7.216   5.072  14.105  0.00  0.00    +0.000 C 
ATOM     23  C   UNL     1       7.295   4.761  15.600  0.00  0.00    +0.000 C 
ATOM     24  C   UNL     1       7.386   6.071  16.388  0.00  0.00    +0.000 C 
ENDBRANCH  21  23
ENDBRANCH   1  21
BRANCH   6  25
ATOM     25  C   UNL     1       1.604   4.125  18.273  0.00  0.00    +0.000 C 
BRANCH  25  26
ATOM     26  C   UNL     1       0.646   3.456  19.276  0.00  0.00    +0.000 C 
ATOM     27  C   UNL     1       0.807   1.938  19.315  0.00  0.00    +0.000 C 
ATOM     28  C   UNL     1       0.870   4.044  20.673  0.00  0.00    +0.000 C 
ENDBRANCH  25  26
ENDBRANCH   6  25
TORSDOF 6
ENDMDL
MODEL 5
REMARK VINA RESULT:      -7.3      1.039      1.589
REMARK  Name = 
REMARK  10 active torsions:
REMARK  status: ('A' for Active; 'I' for Inactive)
REMARK    1  A    between atoms: C_1  and  C_2
REMARK    2  A    between atoms: C_2  and  C_3
REMARK    3  A    between atoms: C_2  and  C_4
REMARK    4  A    between atoms: C_4  and  C_5
REMARK    5  A    between atoms: C_8  and  C_10
REMARK    6  A    between atoms: C_11  and  C_12
REMARK    7  A    between atoms: C_20  and  C_21
REMARK    8  A    between atoms: C_21  and  C_22
REMARK    9  A    between atoms: C_22  and  C_23
REMARK   10  A    between atoms: C_22  and  C_24
REMARK                            x       y       z     vdW  Elec       q    Type
REMARK                         _______ _______ _______ _____ _____    ______ ____
ROOT
ATOM      1  C   UNL     1       6.551   5.369  16.647  0.00  0.00    +0.000 C 
ATOM      2  C   UNL     1       5.034   5.499  16.448  0.00  0.00    +0.000 C 
ATOM      3  N   UNL     1       4.426   6.172  17.604  0.00  0.00    +0.000 N 
ATOM      4  C   UNL     1       3.608   7.262  17.353  0.00  0.00    +0.000 C 
ATOM      5  O   UNL     1       3.391   7.664  16.209  0.00  0.00    +0.000 OA
ATOM      6  C   UNL     1       4.684   5.515  18.913  0.00  0.00    +0.000 C 
ATOM      7  C   UNL     1       6.169   5.096  19.062  0.00  0.00    +0.000 C 
ATOM      8  O   UNL     1       6.700   4.922  20.161  0.00  0.00    +0.000 OA
ATOM      9  N   UNL     1       6.855   4.740  17.928  0.00  0.00    +0.000 N 
ATOM     10  H   UNL     1       7.823   4.519  18.129  0.00  0.00    +0.000 HD
ENDROOT
BRANCH   4  11
ATOM     11  C   UNL     1       2.995   7.980  18.503  0.00  0.00    +0.000 C 
ATOM     12  C   UNL     1       1.778   8.529  18.358  0.00  0.00    +0.000 C 
BRANCH  12  13
ATOM     13  C   UNL     1       1.159   9.285  19.444  0.00  0.00    +0.000 A 
ATOM     14  C   UNL     1       0.600  10.546  19.190  0.00  0.00    +0.000 A 
ATOM     15  C   UNL     1       0.048  11.292  20.233  0.00  0.00    +0.000 A 
ATOM     16  C   UNL     1       0.056  10.775  21.524  0.00  0.00    +0.000 A 
ATOM     17  F   UNL     1      -0.463  11.499  22.524  0.00  0.00    +0.000 F 
ATOM     18  C   UNL     1       0.602   9.522  21.777  0.00  0.00    +0.000 A 
ATOM     19  F   UNL     1       0.608   9.027  23.022  0.00  0.00    +0.000 F 
ATOM     20  C   UNL     1       1.155   8.770  20.744  0.00  0.00    +0.000 A 
ENDBRANCH  12  13
ENDBRANCH   4  11
BRANCH   1  21
ATOM     21  C   UNL     1       7.240   4.594  15.511  0.00  0.00    +0.000 C 
BRANCH  21  23
ATOM     22  C   UNL     1       7.848   5.313  13.131  0.00  0.00    +0.000 C 
ATOM     23  C   UNL     1       6.728   4.907  14.090  0.00  0.00    +0.000 C 
ATOM     24  C   UNL     1       5.985   3.695  13.522  0.00  0.00    +0.000 C 
ENDBRANCH  21  23
ENDBRANCH   1  21
BRANCH   6  25
ATOM     25  C   UNL     1       3.743   4.301  19.068  0.00  0.00    +0.000 C 
BRANCH  25  26
ATOM     26  C   UNL     1       2.233   4.604  19.020  0.00  0.00    +0.000 C 
ATOM     27  C   UNL     1       1.455   3.566  18.215  0.00  0.00    +0.000 C 
ATOM     28  C   UNL     1       1.679   4.686  20.446  0.00  0.00    +0.000 C 
ENDBRANCH  25  26
ENDBRANCH   6  25
TORSDOF 6
ENDMDL
MODEL 6
REMARK VINA RESULT:      -7.3      5.297      7.356
REMARK  Name = 
REMARK  10 active torsions:
REMARK  status: ('A' for Active; 'I' for Inactive)
REMARK    1  A    between atoms: C_1  and  C_2
REMARK    2  A    between atoms: C_2  and  C_3
REMARK    3  A    between atoms: C_2  and  C_4
REMARK    4  A    between atoms: C_4  and  C_5
REMARK    5  A    between atoms: C_8  and  C_10
REMARK    6  A    between atoms: C_11  and  C_12
REMARK    7  A    between atoms: C_20  and  C_21
REMARK    8  A    between atoms: C_21  and  C_22
REMARK    9  A    between atoms: C_22  and  C_23
REMARK   10  A    between atoms: C_22  and  C_24
REMARK                            x       y       z     vdW  Elec       q    Type
REMARK                         _______ _______ _______ _____ _____    ______ ____
ROOT
ATOM      1  C   UNL     1       4.544   5.007  19.116  0.00  0.00    +0.000 C 
ATOM      2  C   UNL     1       5.887   4.990  18.370  0.00  0.00    +0.000 C 
ATOM      3  N   UNL     1       6.250   6.349  17.946  0.00  0.00    +0.000 N 
ATOM      4  C   UNL     1       7.512   6.810  18.286  0.00  0.00    +0.000 C 
ATOM      5  O   UNL     1       8.309   6.119  18.921  0.00  0.00    +0.000 OA
ATOM      6  C   UNL     1       5.236   7.026  17.094  0.00  0.00    +0.000 C 
ATOM      7  C   UNL     1       3.801   6.838  17.650  0.00  0.00    +0.000 C 
ATOM      8  O   UNL     1       2.880   7.610  17.377  0.00  0.00    +0.000 OA
ATOM      9  N   UNL     1       3.518   5.676  18.324  0.00  0.00    +0.000 N 
ATOM     10  H   UNL     1       2.568   5.668  18.675  0.00  0.00    +0.000 HD
ENDROOT
BRANCH   4  11
ATOM     11  C   UNL     1       7.902   8.190  17.891  0.00  0.00    +0.000 C 
ATOM     12  C   UNL     1       8.634   8.931  18.739  0.00  0.00    +0.000 C 
BRANCH  12  13
ATOM     13  C   UNL     1       8.998  10.308  18.414  0.00  0.00    +0.000 A 
ATOM     14  C   UNL     1       8.093  11.128  17.725  0.00  0.00    +0.000 A 
ATOM     15  C   UNL     1       8.453  12.430  17.371  0.00  0.00    +0.000 A 
ATOM     16  C   UNL     1       9.715  12.907  17.710  0.00  0.00    +0.000 A 
ATOM     17  F   UNL     1      10.062  14.152  17.359  0.00  0.00    +0.000 F 
ATOM     18  C   UNL     1      10.611  12.099  18.401  0.00  0.00    +0.000 A 
ATOM     19  F   UNL     1      11.826  12.562  18.724  0.00  0.00    +0.000 F 
ATOM     20  C   UNL     1      10.262  10.799  18.757  0.00  0.00    +0.000 A 
ENDBRANCH  12  13
ENDBRANCH   4  11
BRANCH   1  21
ATOM     21  C   UNL     1       4.061   3.602  19.513  0.00  0.00    +0.000 C 
BRANCH  21  23
ATOM     22  C   UNL     1       3.850   1.309  18.394  0.00  0.00    +0.000 C 
ATOM     23  C   UNL     1       3.419   2.777  18.379  0.00  0.00    +0.000 C 
ATOM     24  C   UNL     1       1.894   2.860  18.469  0.00  0.00    +0.000 C 
ENDBRANCH  21  23
ENDBRANCH   1  21
BRANCH   6  25
ATOM     25  C   UNL     1       5.349   6.497  15.649  0.00  0.00    +0.000 C 
BRANCH  25  26
ATOM     26  C   UNL     1       5.976   5.100  15.486  0.00  0.00    +0.000 C 
ATOM     27  C   UNL     1       4.959   4.053  15.039  0.00  0.00    +0.000 C 
ATOM     28  C   UNL     1       7.135   5.168  14.486  0.00  0.00    +0.000 C 
ENDBRANCH  25  26
ENDBRANCH   6  25
TORSDOF 6
ENDMDL
MODEL 7
REMARK VINA RESULT:      -7.3      0.980      1.131
REMARK  Name = 
REMARK  10 active torsions:
REMARK  status: ('A' for Active; 'I' for Inactive)
REMARK    1  A    between atoms: C_1  and  C_2
REMARK    2  A    between atoms: C_2  and  C_3
REMARK    3  A    between atoms: C_2  and  C_4
REMARK    4  A    between atoms: C_4  and  C_5
REMARK    5  A    between atoms: C_8  and  C_10
REMARK    6  A    between atoms: C_11  and  C_12
REMARK    7  A    between atoms: C_20  and  C_21
REMARK    8  A    between atoms: C_21  and  C_22
REMARK    9  A    between atoms: C_22  and  C_23
REMARK   10  A    between atoms: C_22  and  C_24
REMARK                            x       y       z     vdW  Elec       q    Type
REMARK                         _______ _______ _______ _____ _____    ______ ____
ROOT
ATOM      1  C   UNL     1       6.557   5.327  16.607  0.00  0.00    +0.000 C 
ATOM      2  C   UNL     1       5.026   5.428  16.532  0.00  0.00    +0.000 C 
ATOM      3  N   UNL     1       4.507   6.152  17.701  0.00  0.00    +0.000 N 
ATOM      4  C   UNL     1       3.653   7.218  17.467  0.00  0.00    +0.000 C 
ATOM      5  O   UNL     1       3.332   7.558  16.327  0.00  0.00    +0.000 OA
ATOM      6  C   UNL     1       4.887   5.566  19.014  0.00  0.00    +0.000 C 
ATOM      7  C   UNL     1       6.386   5.174  19.057  0.00  0.00    +0.000 C 
ATOM      8  O   UNL     1       7.011   5.063  20.113  0.00  0.00    +0.000 OA
ATOM      9  N   UNL     1       6.979   4.769  17.887  0.00  0.00    +0.000 N 
ATOM     10  H   UNL     1       7.964   4.571  18.015  0.00  0.00    +0.000 HD
ENDROOT
BRANCH   4  11
ATOM     11  C   UNL     1       3.128   7.986  18.628  0.00  0.00    +0.000 C 
ATOM     12  C   UNL     1       1.804   8.174  18.742  0.00  0.00    +0.000 C 
BRANCH  12  13
ATOM     13  C   UNL     1       1.248   8.964  19.839  0.00  0.00    +0.000 A 
ATOM     14  C   UNL     1       1.284   8.466  21.149  0.00  0.00    +0.000 A 
ATOM     15  C   UNL     1       0.713   9.196  22.194  0.00  0.00    +0.000 A 
ATOM     16  C   UNL     1       0.111  10.420  21.925  0.00  0.00    +0.000 A 
ATOM     17  F   UNL     1      -0.446  11.112  22.928  0.00  0.00    +0.000 F 
ATOM     18  C   UNL     1       0.082  10.921  20.628  0.00  0.00    +0.000 A 
ATOM     19  F   UNL     1      -0.499  12.101  20.373  0.00  0.00    +0.000 F 
ATOM     20  C   UNL     1       0.648  10.200  19.580  0.00  0.00    +0.000 A 
ENDBRANCH  12  13
ENDBRANCH   4  11
BRANCH   1  21
ATOM     21  C   UNL     1       7.159   4.504  15.456  0.00  0.00    +0.000 C 
BRANCH  21  23
ATOM     22  C   UNL     1       7.880   5.380  13.162  0.00  0.00    +0.000 C 
ATOM     23  C   UNL     1       6.715   4.921  14.040  0.00  0.00    +0.000 C 
ATOM     24  C   UNL     1       5.989   3.760  13.355  0.00  0.00    +0.000 C 
ENDBRANCH  21  23
ENDBRANCH   1  21
BRANCH   6  25
ATOM     25  C   UNL     1       3.983   4.351  19.311  0.00  0.00    +0.000 C 
BRANCH  25  26
ATOM     26  C   UNL     1       2.499   4.661  19.586  0.00  0.00    +0.000 C 
ATOM     27  C   UNL     1       1.580   4.143  18.482  0.00  0.00    +0.000 C 
ATOM     28  C   UNL     1       2.089   4.062  20.935  0.00  0.00    +0.000 C 
ENDBRANCH  25  26
ENDBRANCH   6  25
TORSDOF 6
ENDMDL
MODEL 8
REMARK VINA RESULT:      -7.2      1.938      3.429
REMARK  Name = 
REMARK  10 active torsions:
REMARK  status: ('A' for Active; 'I' for Inactive)
REMARK    1  A    between atoms: C_1  and  C_2
REMARK    2  A    between atoms: C_2  and  C_3
REMARK    3  A    between atoms: C_2  and  C_4
REMARK    4  A    between atoms: C_4  and  C_5
REMARK    5  A    between atoms: C_8  and  C_10
REMARK    6  A    between atoms: C_11  and  C_12
REMARK    7  A    between atoms: C_20  and  C_21
REMARK    8  A    between atoms: C_21  and  C_22
REMARK    9  A    between atoms: C_22  and  C_23
REMARK   10  A    between atoms: C_22  and  C_24
REMARK                            x       y       z     vdW  Elec       q    Type
REMARK                         _______ _______ _______ _____ _____    ______ ____
ROOT
ATOM      1  C   UNL     1       5.384   4.679  15.079  0.00  0.00    +0.000 C 
ATOM      2  C   UNL     1       4.760   3.963  16.286  0.00  0.00    +0.000 C 
ATOM      3  N   UNL     1       4.170   4.942  17.208  0.00  0.00    +0.000 N 
ATOM      4  C   UNL     1       2.855   4.744  17.598  0.00  0.00    +0.000 C 
ATOM      5  O   UNL     1       2.192   3.788  17.193  0.00  0.00    +0.000 OA
ATOM      6  C   UNL     1       5.115   5.979  17.702  0.00  0.00    +0.000 C 
ATOM      7  C   UNL     1       5.989   6.552  16.556  0.00  0.00    +0.000 C 
ATOM      8  O   UNL     1       6.526   7.659  16.625  0.00  0.00    +0.000 OA
ATOM      9  N   UNL     1       6.311   5.719  15.514  0.00  0.00    +0.000 N 
ATOM     10  H   UNL     1       6.852   6.198  14.805  0.00  0.00    +0.000 HD
ENDROOT
BRANCH   4  11
ATOM     11  C   UNL     1       2.220   5.730  18.514  0.00  0.00    +0.000 C 
ATOM     12  C   UNL     1       2.414   7.041  18.300  0.00  0.00    +0.000 C 
BRANCH  12  13
ATOM     13  C   UNL     1       1.851   8.042  19.203  0.00  0.00    +0.000 A 
ATOM     14  C   UNL     1       1.717   7.756  20.569  0.00  0.00    +0.000 A 
ATOM     15  C   UNL     1       1.137   8.693  21.428  0.00  0.00    +0.000 A 
ATOM     16  C   UNL     1       0.697   9.910  20.919  0.00  0.00    +0.000 A 
ATOM     17  F   UNL     1       0.131  10.800  21.744  0.00  0.00    +0.000 F 
ATOM     18  C   UNL     1       0.838  10.199  19.566  0.00  0.00    +0.000 A 
ATOM     19  F   UNL     1       0.413  11.372  19.080  0.00  0.00    +0.000 F 
ATOM     20  C   UNL     1       1.413   9.272  18.701  0.00  0.00    +0.000 A 
ENDBRANCH  12  13
ENDBRANCH   4  11
BRANCH   1  21
ATOM     21  C   UNL     1       6.097   3.717  14.114  0.00  0.00    +0.000 C 
BRANCH  21  23
ATOM     22  C   UNL     1       7.247   3.857  11.832  0.00  0.00    +0.000 C 
ATOM     23  C   UNL     1       5.948   4.051  12.616  0.00  0.00    +0.000 C 
ATOM     24  C   UNL     1       4.846   3.189  11.994  0.00  0.00    +0.000 C 
ENDBRANCH  21  23
ENDBRANCH   1  21
BRANCH   6  25
ATOM     25  C   UNL     1       5.988   5.380  18.825  0.00  0.00    +0.000 C 
BRANCH  25  26
ATOM     26  C   UNL     1       7.510   5.555  18.666  0.00  0.00    +0.000 C 
ATOM     27  C   UNL     1       8.219   5.737  20.006  0.00  0.00    +0.000 C 
ATOM     28  C   UNL     1       8.092   4.348  17.923  0.00  0.00    +0.000 C 
ENDBRANCH  25  26
ENDBRANCH   6  25
TORSDOF 6
ENDMDL
MODEL 9
REMARK VINA RESULT:      -7.1      2.589      3.219
REMARK  Name = 
REMARK  10 active torsions:
REMARK  status: ('A' for Active; 'I' for Inactive)
REMARK    1  A    between atoms: C_1  and  C_2
REMARK    2  A    between atoms: C_2  and  C_3
REMARK    3  A    between atoms: C_2  and  C_4
REMARK    4  A    between atoms: C_4  and  C_5
REMARK    5  A    between atoms: C_8  and  C_10
REMARK    6  A    between atoms: C_11  and  C_12
REMARK    7  A    between atoms: C_20  and  C_21
REMARK    8  A    between atoms: C_21  and  C_22
REMARK    9  A    between atoms: C_22  and  C_23
REMARK   10  A    between atoms: C_22  and  C_24
REMARK                            x       y       z     vdW  Elec       q    Type
REMARK                         _______ _______ _______ _____ _____    ______ ____
ROOT
ATOM      1  C   UNL     1       4.821   5.812  19.406  0.00  0.00    +0.000 C 
ATOM      2  C   UNL     1       4.169   6.158  18.059  0.00  0.00    +0.000 C 
ATOM      3  N   UNL     1       2.813   6.681  18.270  0.00  0.00    +0.000 N 
ATOM      4  C   UNL     1       2.491   7.889  17.672  0.00  0.00    +0.000 C 
ATOM      5  O   UNL     1       3.303   8.513  16.987  0.00  0.00    +0.000 OA
ATOM      6  C   UNL     1       1.906   5.773  19.023  0.00  0.00    +0.000 C 
ATOM      7  C   UNL     1       2.608   5.158  20.261  0.00  0.00    +0.000 C 
ATOM      8  O   UNL     1       1.981   4.726  21.230  0.00  0.00    +0.000 OA
ATOM      9  N   UNL     1       3.960   4.932  20.189  0.00  0.00    +0.000 N 
ATOM     10  H   UNL     1       4.325   4.563  21.058  0.00  0.00    +0.000 HD
ENDROOT
BRANCH   4  11
ATOM     11  C   UNL     1       1.133   8.457  17.885  0.00  0.00    +0.000 C 
ATOM     12  C   UNL     1       0.995   9.784  18.036  0.00  0.00    +0.000 C 
BRANCH  12  13
ATOM     13  C   UNL     1      -0.313  10.380  18.296  0.00  0.00    +0.000 A 
ATOM     14  C   UNL     1      -0.446  11.379  19.271  0.00  0.00    +0.000 A 
ATOM     15  C   UNL     1      -1.702  11.919  19.556  0.00  0.00    +0.000 A 
ATOM     16  C   UNL     1      -2.817  11.461  18.863  0.00  0.00    +0.000 A 
ATOM     17  F   UNL     1      -4.022  11.974  19.148  0.00  0.00    +0.000 F 
ATOM     18  C   UNL     1      -2.687  10.478  17.890  0.00  0.00    +0.000 A 
ATOM     19  F   UNL     1      -3.764  10.040  17.225  0.00  0.00    +0.000 F 
ATOM     20  C   UNL     1      -1.440   9.932  17.599  0.00  0.00    +0.000 A 
ENDBRANCH  12  13
ENDBRANCH   4  11
BRANCH   1  21
ATOM     21  C   UNL     1       6.213   5.177  19.252  0.00  0.00    +0.000 C 
BRANCH  21  23
ATOM     22  C   UNL     1       7.936   6.819  18.312  0.00  0.00    +0.000 C 
ATOM     23  C   UNL     1       7.016   5.632  18.018  0.00  0.00    +0.000 C 
ATOM     24  C   UNL     1       7.848   4.468  17.474  0.00  0.00    +0.000 C 
ENDBRANCH  21  23
ENDBRANCH   1  21
BRANCH   6  25
ATOM     25  C   UNL     1       1.383   4.674  18.074  0.00  0.00    +0.000 C 
BRANCH  25  26
ATOM     26  C   UNL     1       1.848   3.237  18.379  0.00  0.00    +0.000 C 
ATOM     27  C   UNL     1       0.682   2.295  18.668  0.00  0.00    +0.000 C 
ATOM     28  C   UNL     1       2.676   2.704  17.205  0.00  0.00    +0.000 C 
ENDBRANCH  25  26
ENDBRANCH   6  25
TORSDOF 6
ENDMDL
