MODEL 1
REMARK VINA RESULT:      -6.8      0.000      0.000
REMARK  Name = 
REMARK  8 active torsions:
REMARK  status: ('A' for Active; 'I' for Inactive)
REMARK    1  A    between atoms: C_1  and  C_2
REMARK    2  A    between atoms: C_2  and  N_3
REMARK    3  A    between atoms: N_3  and  C_4
REMARK    4  A    between atoms: N_3  and  C_11
REMARK    5  A    between atoms: C_4  and  C_5
REMARK    6  A    between atoms: C_11  and  C_12
REMARK    7  A    between atoms: C_15  and  C_16
REMARK    8  A    between atoms: N_17  and  C_18
REMARK                            x       y       z     vdW  Elec       q    Type
REMARK                         _______ _______ _______ _____ _____    ______ ____
ROOT
ATOM      1  N   UNL     1       6.097   6.443  16.624  0.00  0.00    +0.000 NA
ENDROOT
BRANCH   1   3
ATOM      2  C   UNL     1       7.927   6.923  18.322  0.00  0.00    +0.000 C 
ATOM      3  C   UNL     1       6.965   7.458  17.265  0.00  0.00    +0.000 C 
ENDBRANCH   1   3
BRANCH   1   4
ATOM      4  C   UNL     1       6.836   5.200  16.330  0.00  0.00    +0.000 C 
BRANCH   4   5
ATOM      5  C   UNL     1       6.944   4.790  14.865  0.00  0.00    +0.000 A 
ATOM      6  C   UNL     1       6.089   3.839  14.313  0.00  0.00    +0.000 A 
ATOM      7  C   UNL     1       6.138   3.599  12.937  0.00  0.00    +0.000 A 
ATOM      8  C   UNL     1       7.033   4.315  12.153  0.00  0.00    +0.000 A 
ATOM      9  C   UNL     1       7.858   5.229  12.781  0.00  0.00    +0.000 A 
ATOM     10  N   UNL     1       7.842   5.473  14.110  0.00  0.00    +0.000 NA
ENDBRANCH   4   5
ENDBRANCH   1   4
BRANCH   1  11
ATOM     11  C   UNL     1       4.884   6.211  17.454  0.00  0.00    +0.000 C 
BRANCH  11  12
ATOM     12  C   UNL     1       4.794   4.895  18.175  0.00  0.00    +0.000 A 
ATOM     13  N   UNL     1       5.516   4.523  19.215  0.00  0.00    +0.000 NA
ATOM     14  N   UNL     1       5.172   3.241  19.553  0.00  0.00    +0.000 NA
ATOM     15  C   UNL     1       4.211   2.852  18.743  0.00  0.00    +0.000 A 
ATOM     16  C   UNL     1       3.562   1.520  18.726  0.00  0.00    +0.000 C 
ATOM     17  N   UNL     1       3.894   3.890  17.903  0.00  0.00    +0.000 N 
ATOM     18  C   UNL     1       2.800   3.926  16.970  0.00  0.00    +0.000 C 
ENDBRANCH  11  12
ENDBRANCH   1  11
TORSDOF 5
ENDMDL
MODEL 2
REMARK VINA RESULT:      -6.8      1.238      1.595
REMARK  Name = 
REMARK  8 active torsions:
REMARK  status: ('A' for Active; 'I' for Inactive)
REMARK    1  A    between atoms: C_1  and  C_2
REMARK    2  A    between atoms: C_2  and  N_3
REMARK    3  A    between atoms: N_3  and  C_4
REMARK    4  A    between atoms: N_3  and  C_11
REMARK    5  A    between atoms: C_4  and  C_5
REMARK    6  A    between atoms: C_11  and  C_12
REMARK    7  A    between atoms: C_15  and  C_16
REMARK    8  A    between atoms: N_17  and  C_18
REMARK                            x       y       z     vdW  Elec       q    Type
REMARK                         _______ _______ _______ _____ _____    ______ ____
ROOT
ATOM      1  N   UNL     1       6.842   5.789  18.127  0.00  0.00    +0.000 NA
ENDROOT
BRANCH   1   3
ATOM      2  C   UNL     1       7.823   8.075  17.604  0.00  0.00    +0.000 C 
ATOM      3  C   UNL     1       7.852   6.818  18.468  0.00  0.00    +0.000 C 
ENDBRANCH   1   3
BRANCH   1   4
ATOM      4  C   UNL     1       7.442   4.657  17.394  0.00  0.00    +0.000 C 
BRANCH   4   5
ATOM      5  C   UNL     1       6.991   4.451  15.952  0.00  0.00    +0.000 A 
ATOM      6  C   UNL     1       5.847   3.715  15.649  0.00  0.00    +0.000 A 
ATOM      7  C   UNL     1       5.399   3.671  14.325  0.00  0.00    +0.000 A 
ATOM      8  C   UNL     1       6.102   4.360  13.346  0.00  0.00    +0.000 A 
ATOM      9  C   UNL     1       7.237   5.052  13.727  0.00  0.00    +0.000 A 
ATOM     10  N   UNL     1       7.699   5.104  14.996  0.00  0.00    +0.000 NA
ENDBRANCH   4   5
ENDBRANCH   1   4
BRANCH   1  11
ATOM     11  C   UNL     1       6.113   5.362  19.352  0.00  0.00    +0.000 C 
BRANCH  11  12
ATOM     12  C   UNL     1       5.003   4.364  19.170  0.00  0.00    +0.000 A 
ATOM     13  N   UNL     1       4.975   3.132  19.640  0.00  0.00    +0.000 NA
ATOM     14  N   UNL     1       3.819   2.528  19.222  0.00  0.00    +0.000 NA
ATOM     15  C   UNL     1       3.126   3.410  18.534  0.00  0.00    +0.000 A 
ATOM     16  C   UNL     1       1.826   3.176  17.864  0.00  0.00    +0.000 C 
ATOM     17  N   UNL     1       3.805   4.603  18.536  0.00  0.00    +0.000 N 
ATOM     18  C   UNL     1       3.322   5.857  18.024  0.00  0.00    +0.000 C 
ENDBRANCH  11  12
ENDBRANCH   1  11
TORSDOF 5
ENDMDL
MODEL 3
REMARK VINA RESULT:      -6.6      2.898      6.328
REMARK  Name = 
REMARK  8 active torsions:
REMARK  status: ('A' for Active; 'I' for Inactive)
REMARK    1  A    between atoms: C_1  and  C_2
REMARK    2  A    between atoms: C_2  and  N_3
REMARK    3  A    between atoms: N_3  and  C_4
REMARK    4  A    between atoms: N_3  and  C_11
REMARK    5  A    between atoms: C_4  and  C_5
REMARK    6  A    between atoms: C_11  and  C_12
REMARK    7  A    between atoms: C_15  and  C_16
REMARK    8  A    between atoms: N_17  and  C_18
REMARK                            x       y       z     vdW  Elec       q    Type
REMARK                         _______ _______ _______ _____ _____    ______ ____
ROOT
ATOM      1  N   UNL     1       2.564   4.837  18.436  0.00  0.00    +0.000 NA
ENDROOT
BRANCH   1   3
ATOM      2  C   UNL     1       1.795   2.422  18.631  0.00  0.00    +0.000 C 
ATOM      3  C   UNL     1       1.463   3.905  18.771  0.00  0.00    +0.000 C 
ENDBRANCH   1   3
BRANCH   1   4
ATOM      4  C   UNL     1       2.819   5.797  19.528  0.00  0.00    +0.000 C 
BRANCH   4   5
ATOM      5  C   UNL     1       2.318   7.223  19.326  0.00  0.00    +0.000 A 
ATOM      6  C   UNL     1       2.400   7.851  18.084  0.00  0.00    +0.000 A 
ATOM      7  C   UNL     1       1.802   9.104  17.917  0.00  0.00    +0.000 A 
ATOM      8  C   UNL     1       1.142   9.691  18.987  0.00  0.00    +0.000 A 
ATOM      9  C   UNL     1       1.121   9.010  20.190  0.00  0.00    +0.000 A 
ATOM     10  N   UNL     1       1.698   7.803  20.385  0.00  0.00    +0.000 NA
ENDBRANCH   4   5
ENDBRANCH   1   4
BRANCH   1  11
ATOM     11  C   UNL     1       3.779   4.073  18.043  0.00  0.00    +0.000 C 
BRANCH  11  12
ATOM     12  C   UNL     1       5.108   4.718  18.324  0.00  0.00    +0.000 A 
ATOM     13  N   UNL     1       5.956   4.379  19.277  0.00  0.00    +0.000 NA
ATOM     14  N   UNL     1       7.027   5.232  19.235  0.00  0.00    +0.000 NA
ATOM     15  C   UNL     1       6.847   6.061  18.229  0.00  0.00    +0.000 A 
ATOM     16  C   UNL     1       7.744   7.173  17.838  0.00  0.00    +0.000 C 
ATOM     17  N   UNL     1       5.683   5.727  17.585  0.00  0.00    +0.000 N 
ATOM     18  C   UNL     1       5.202   6.289  16.351  0.00  0.00    +0.000 C 
ENDBRANCH  11  12
ENDBRANCH   1  11
TORSDOF 5
ENDMDL
MODEL 4
REMARK VINA RESULT:      -6.6      1.187      1.767
REMARK  Name = 
REMARK  8 active torsions:
REMARK  status: ('A' for Active; 'I' for Inactive)
REMARK    1  A    between atoms: C_1  and  C_2
REMARK    2  A    between atoms: C_2  and  N_3
REMARK    3  A    between atoms: N_3  and  C_4
REMARK    4  A    between atoms: N_3  and  C_11
REMARK    5  A    between atoms: C_4  and  C_5
REMARK    6  A    between atoms: C_11  and  C_12
REMARK    7  A    between atoms: C_15  and  C_16
REMARK    8  A    between atoms: N_17  and  C_18
REMARK                            x       y       z     vdW  Elec       q    Type
REMARK                         _______ _______ _______ _____ _____    ______ ____
ROOT
ATOM      1  N   UNL     1       5.842   5.833  17.145  0.00  0.00    +0.000 NA
ENDROOT
BRANCH   1   3
ATOM      2  C   UNL     1       7.735   7.386  17.827  0.00  0.00    +0.000 C 
ATOM      3  C   UNL     1       6.321   7.228  17.274  0.00  0.00    +0.000 C 
ENDBRANCH   1   3
BRANCH   1   4
ATOM      4  C   UNL     1       6.911   4.928  16.679  0.00  0.00    +0.000 C 
BRANCH   4   5
ATOM      5  C   UNL     1       6.985   4.659  15.180  0.00  0.00    +0.000 A 
ATOM      6  C   UNL     1       6.126   3.753  14.563  0.00  0.00    +0.000 A 
ATOM      7  C   UNL     1       6.141   3.644  13.169  0.00  0.00    +0.000 A 
ATOM      8  C   UNL     1       7.008   4.441  12.435  0.00  0.00    +0.000 A 
ATOM      9  C   UNL     1       7.840   5.303  13.125  0.00  0.00    +0.000 A 
ATOM     10  N   UNL     1       7.856   5.421  14.471  0.00  0.00    +0.000 NA
ENDBRANCH   4   5
ENDBRANCH   1   4
BRANCH   1  11
ATOM     11  C   UNL     1       5.222   5.385  18.421  0.00  0.00    +0.000 C 
BRANCH  11  12
ATOM     12  C   UNL     1       3.821   4.843  18.344  0.00  0.00    +0.000 A 
ATOM     13  N   UNL     1       2.812   5.378  17.683  0.00  0.00    +0.000 NA
ATOM     14  N   UNL     1       1.694   4.616  17.896  0.00  0.00    +0.000 NA
ATOM     15  C   UNL     1       2.037   3.594  18.651  0.00  0.00    +0.000 A 
ATOM     16  C   UNL     1       1.134   2.535  19.157  0.00  0.00    +0.000 C 
ATOM     17  N   UNL     1       3.385   3.662  18.899  0.00  0.00    +0.000 N 
ATOM     18  C   UNL     1       4.180   2.661  19.559  0.00  0.00    +0.000 C 
ENDBRANCH  11  12
ENDBRANCH   1  11
TORSDOF 5
ENDMDL
MODEL 5
REMARK VINA RESULT:      -6.5      1.580      2.121
REMARK  Name = 
REMARK  8 active torsions:
REMARK  status: ('A' for Active; 'I' for Inactive)
REMARK    1  A    between atoms: C_1  and  C_2
REMARK    2  A    between atoms: C_2  and  N_3
REMARK    3  A    between atoms: N_3  and  C_4
REMARK    4  A    between atoms: N_3  and  C_11
REMARK    5  A    between atoms: C_4  and  C_5
REMARK    6  A    between atoms: C_11  and  C_12
REMARK    7  A    between atoms: C_15  and  C_16
REMARK    8  A    between atoms: N_17  and  C_18
REMARK                            x       y       z     vdW  Elec       q    Type
REMARK                         _______ _______ _______ _____ _____    ______ ____
ROOT
ATOM      1  N   UNL     1       5.388   4.548  16.763  0.00  0.00    +0.000 NA
ENDROOT
BRANCH   1   3
ATOM      2  C   UNL     1       5.421   7.064  17.128  0.00  0.00    +0.000 C 
ATOM      3  C   UNL     1       4.643   5.826  16.691  0.00  0.00    +0.000 C 
ENDBRANCH   1   3
BRANCH   1   4
ATOM      4  C   UNL     1       6.766   4.690  16.252  0.00  0.00    +0.000 C 
BRANCH   4   5
ATOM      5  C   UNL     1       6.963   4.544  14.748  0.00  0.00    +0.000 A 
ATOM      6  C   UNL     1       6.183   3.669  13.996  0.00  0.00    +0.000 A 
ATOM      7  C   UNL     1       6.308   3.672  12.603  0.00  0.00    +0.000 A 
ATOM      8  C   UNL     1       7.204   4.547  12.003  0.00  0.00    +0.000 A 
ATOM      9  C   UNL     1       7.953   5.372  12.822  0.00  0.00    +0.000 A 
ATOM     10  N   UNL     1       7.862   5.382  14.170  0.00  0.00    +0.000 NA
ENDBRANCH   4   5
ENDBRANCH   1   4
BRANCH   1  11
ATOM     11  C   UNL     1       5.338   4.005  18.147  0.00  0.00    +0.000 C 
BRANCH  11  12
ATOM     12  C   UNL     1       4.059   3.338  18.571  0.00  0.00    +0.000 A 
ATOM     13  N   UNL     1       3.700   2.096  18.305  0.00  0.00    +0.000 NA
ATOM     14  N   UNL     1       2.449   1.880  18.821  0.00  0.00    +0.000 NA
ATOM     15  C   UNL     1       2.070   2.979  19.437  0.00  0.00    +0.000 A 
ATOM     16  C   UNL     1       0.769   3.203  20.109  0.00  0.00    +0.000 C 
ATOM     17  N   UNL     1       3.084   3.900  19.363  0.00  0.00    +0.000 N 
ATOM     18  C   UNL     1       3.130   5.171  20.034  0.00  0.00    +0.000 C 
ENDBRANCH  11  12
ENDBRANCH   1  11
TORSDOF 5
ENDMDL
MODEL 6
REMARK VINA RESULT:      -6.4      1.534      3.879
REMARK  Name = 
REMARK  8 active torsions:
REMARK  status: ('A' for Active; 'I' for Inactive)
REMARK    1  A    between atoms: C_1  and  C_2
REMARK    2  A    between atoms: C_2  and  N_3
REMARK    3  A    between atoms: N_3  and  C_4
REMARK    4  A    between atoms: N_3  and  C_11
REMARK    5  A    between atoms: C_4  and  C_5
REMARK    6  A    between atoms: C_11  and  C_12
REMARK    7  A    between atoms: C_15  and  C_16
REMARK    8  A    between atoms: N_17  and  C_18
REMARK                            x       y       z     vdW  Elec       q    Type
REMARK                         _______ _______ _______ _____ _____    ______ ____
ROOT
ATOM      1  N   UNL     1       5.609   3.914  15.634  0.00  0.00    +0.000 NA
ENDROOT
BRANCH   1   3
ATOM      2  C   UNL     1       6.070   3.643  13.149  0.00  0.00    +0.000 C 
ATOM      3  C   UNL     1       5.419   4.452  14.267  0.00  0.00    +0.000 C 
ENDBRANCH   1   3
BRANCH   1   4
ATOM      4  C   UNL     1       7.002   4.074  16.095  0.00  0.00    +0.000 C 
BRANCH   4   5
ATOM      5  C   UNL     1       7.290   5.241  17.033  0.00  0.00    +0.000 A 
ATOM      6  C   UNL     1       7.621   5.031  18.370  0.00  0.00    +0.000 A 
ATOM      7  C   UNL     1       8.010   6.123  19.153  0.00  0.00    +0.000 A 
ATOM      8  C   UNL     1       8.059   7.387  18.580  0.00  0.00    +0.000 A 
ATOM      9  C   UNL     1       7.699   7.512  17.252  0.00  0.00    +0.000 A 
ATOM     10  N   UNL     1       7.308   6.478  16.474  0.00  0.00    +0.000 NA
ENDBRANCH   4   5
ENDBRANCH   1   4
BRANCH   1  11
ATOM     11  C   UNL     1       4.620   4.522  16.564  0.00  0.00    +0.000 C 
BRANCH  11  12
ATOM     12  C   UNL     1       4.074   3.636  17.650  0.00  0.00    +0.000 A 
ATOM     13  N   UNL     1       3.836   2.342  17.557  0.00  0.00    +0.000 NA
ATOM     14  N   UNL     1       3.302   1.907  18.741  0.00  0.00    +0.000 NA
ATOM     15  C   UNL     1       3.257   2.931  19.566  0.00  0.00    +0.000 A 
ATOM     16  C   UNL     1       2.718   2.923  20.945  0.00  0.00    +0.000 C 
ATOM     17  N   UNL     1       3.799   4.025  18.941  0.00  0.00    +0.000 N 
ATOM     18  C   UNL     1       4.073   5.301  19.546  0.00  0.00    +0.000 C 
ENDBRANCH  11  12
ENDBRANCH   1  11
TORSDOF 5
ENDMDL
MODEL 7
REMARK VINA RESULT:      -6.4      1.610      5.376
REMARK  Name = 
REMARK  8 active torsions:
REMARK  status: ('A' for Active; 'I' for Inactive)
REMARK    1  A    between atoms: C_1  and  C_2
REMARK    2  A    between atoms: C_2  and  N_3
REMARK    3  A    between atoms: N_3  and  C_4
REMARK    4  A    between atoms: N_3  and  C_11
REMARK    5  A    between atoms: C_4  and  C_5
REMARK    6  A    between atoms: C_11  and  C_12
REMARK    7  A    between atoms: C_15  and  C_16
REMARK    8  A    between atoms: N_17  and  C_18
REMARK                            x       y       z     vdW  Elec       q    Type
REMARK                         _______ _______ _______ _____ _____    ______ ____
ROOT
ATOM      1  N   UNL     1       5.644   5.279  18.641  0.00  0.00    +0.000 NA
ENDROOT
BRANCH   1   3
ATOM      2  C   UNL     1       7.958   6.180  19.188  0.00  0.00    +0.000 C 
ATOM      3  C   UNL     1       6.824   5.219  19.534  0.00  0.00    +0.000 C 
ENDBRANCH   1   3
BRANCH   1   4
ATOM      4  C   UNL     1       4.406   5.571  19.390  0.00  0.00    +0.000 C 
BRANCH   4   5
ATOM      5  C   UNL     1       3.266   4.567  19.260  0.00  0.00    +0.000 A 
ATOM      6  C   UNL     1       2.214   4.777  18.371  0.00  0.00    +0.000 A 
ATOM      7  C   UNL     1       1.267   3.764  18.189  0.00  0.00    +0.000 A 
ATOM      8  C   UNL     1       1.399   2.575  18.894  0.00  0.00    +0.000 A 
ATOM      9  C   UNL     1       2.462   2.454  19.769  0.00  0.00    +0.000 A 
ATOM     10  N   UNL     1       3.385   3.419  19.974  0.00  0.00    +0.000 NA
ENDBRANCH   4   5
ENDBRANCH   1   4
BRANCH   1  11
ATOM     11  C   UNL     1       5.890   6.243  17.534  0.00  0.00    +0.000 C 
BRANCH  11  12
ATOM     12  C   UNL     1       6.398   5.674  16.237  0.00  0.00    +0.000 A 
ATOM     13  N   UNL     1       7.550   5.954  15.659  0.00  0.00    +0.000 NA
ATOM     14  N   UNL     1       7.624   5.272  14.474  0.00  0.00    +0.000 NA
ATOM     15  C   UNL     1       6.533   4.545  14.355  0.00  0.00    +0.000 A 
ATOM     16  C   UNL     1       6.178   3.678  13.209  0.00  0.00    +0.000 C 
ATOM     17  N   UNL     1       5.765   4.716  15.479  0.00  0.00    +0.000 N 
ATOM     18  C   UNL     1       4.570   3.988  15.810  0.00  0.00    +0.000 C 
ENDBRANCH  11  12
ENDBRANCH   1  11
TORSDOF 5
ENDMDL
MODEL 8
REMARK VINA RESULT:      -6.4      1.731      2.665
REMARK  Name = 
REMARK  8 active torsions:
REMARK  status: ('A' for Active; 'I' for Inactive)
REMARK    1  A    between atoms: C_1  and  C_2
REMARK    2  A    between atoms: C_2  and  N_3
REMARK    3  A    between atoms: N_3  and  C_4
REMARK    4  A    between atoms: N_3  and  C_11
REMARK    5  A    between atoms: C_4  and  C_5
REMARK    6  A    between atoms: C_11  and  C_12
REMARK    7  A    between atoms: C_15  and  C_16
REMARK    8  A    between atoms: N_17  and  C_18
REMARK                            x       y       z     vdW  Elec       q    Type
REMARK                         _______ _______ _______ _____ _____    ______ ____
ROOT
ATOM      1  N   UNL     1       4.522   4.471  16.570  0.00  0.00    +0.000 NA
ENDROOT
BRANCH   1   3
ATOM      2  C   UNL     1       4.354   6.964  17.039  0.00  0.00    +0.000 C 
ATOM      3  C   UNL     1       4.001   5.539  17.455  0.00  0.00    +0.000 C 
ENDBRANCH   1   3
BRANCH   1   4
ATOM      4  C   UNL     1       5.978   4.597  16.362  0.00  0.00    +0.000 C 
BRANCH   4   5
ATOM      5  C   UNL     1       6.483   4.491  14.928  0.00  0.00    +0.000 A 
ATOM      6  C   UNL     1       5.852   3.670  13.995  0.00  0.00    +0.000 A 
ATOM      7  C   UNL     1       6.267   3.713  12.661  0.00  0.00    +0.000 A 
ATOM      8  C   UNL     1       7.295   4.572  12.296  0.00  0.00    +0.000 A 
ATOM      9  C   UNL     1       7.881   5.340  13.285  0.00  0.00    +0.000 A 
ATOM     10  N   UNL     1       7.508   5.312  14.584  0.00  0.00    +0.000 NA
ENDBRANCH   4   5
ENDBRANCH   1   4
BRANCH   1  11
ATOM     11  C   UNL     1       4.127   3.136  17.093  0.00  0.00    +0.000 C 
BRANCH  11  12
ATOM     12  C   UNL     1       2.970   3.097  18.054  0.00  0.00    +0.000 A 
ATOM     13  N   UNL     1       1.697   3.263  17.751  0.00  0.00    +0.000 NA
ATOM     14  N   UNL     1       0.959   3.204  18.904  0.00  0.00    +0.000 NA
ATOM     15  C   UNL     1       1.783   2.958  19.900  0.00  0.00    +0.000 A 
ATOM     16  C   UNL     1       1.420   2.848  21.332  0.00  0.00    +0.000 C 
ATOM     17  N   UNL     1       3.052   2.814  19.398  0.00  0.00    +0.000 N 
ATOM     18  C   UNL     1       4.215   2.394  20.133  0.00  0.00    +0.000 C 
ENDBRANCH  11  12
ENDBRANCH   1  11
TORSDOF 5
ENDMDL
MODEL 9
REMARK VINA RESULT:      -6.4      3.054      6.334
REMARK  Name = 
REMARK  8 active torsions:
REMARK  status: ('A' for Active; 'I' for Inactive)
REMARK    1  A    between atoms: C_1  and  C_2
REMARK    2  A    between atoms: C_2  and  N_3
REMARK    3  A    between atoms: N_3  and  C_4
REMARK    4  A    between atoms: N_3  and  C_11
REMARK    5  A    between atoms: C_4  and  C_5
REMARK    6  A    between atoms: C_11  and  C_12
REMARK    7  A    between atoms: C_15  and  C_16
REMARK    8  A    between atoms: N_17  and  C_18
REMARK                            x       y       z     vdW  Elec       q    Type
REMARK                         _______ _______ _______ _____ _____    ______ ____
ROOT
ATOM      1  N   UNL     1       2.130   4.542  19.574  0.00  0.00    +0.000 NA
ENDROOT
BRANCH   1   3
ATOM      2  C   UNL     1       1.419   2.872  21.354  0.00  0.00    +0.000 C 
ATOM      3  C   UNL     1       1.020   3.791  20.203  0.00  0.00    +0.000 C 
ENDBRANCH   1   3
BRANCH   1   4
ATOM      4  C   UNL     1       2.466   5.761  20.335  0.00  0.00    +0.000 C 
BRANCH   4   5
ATOM      5  C   UNL     1       2.242   7.097  19.635  0.00  0.00    +0.000 A 
ATOM      6  C   UNL     1       2.606   7.287  18.303  0.00  0.00    +0.000 A 
ATOM      7  C   UNL     1       2.255   8.482  17.668  0.00  0.00    +0.000 A 
ATOM      8  C   UNL     1       1.553   9.448  18.376  0.00  0.00    +0.000 A 
ATOM      9  C   UNL     1       1.246   9.189  19.699  0.00  0.00    +0.000 A 
ATOM     10  N   UNL     1       1.582   8.049  20.342  0.00  0.00    +0.000 NA
ENDBRANCH   4   5
ENDBRANCH   1   4
BRANCH   1  11
ATOM     11  C   UNL     1       3.302   3.647  19.371  0.00  0.00    +0.000 C 
BRANCH  11  12
ATOM     12  C   UNL     1       4.160   3.913  18.165  0.00  0.00    +0.000 A 
ATOM     13  N   UNL     1       3.857   3.630  16.912  0.00  0.00    +0.000 NA
ATOM     14  N   UNL     1       4.913   3.983  16.114  0.00  0.00    +0.000 NA
ATOM     15  C   UNL     1       5.839   4.519  16.880  0.00  0.00    +0.000 A 
ATOM     16  C   UNL     1       7.166   5.008  16.440  0.00  0.00    +0.000 C 
ATOM     17  N   UNL     1       5.376   4.558  18.171  0.00  0.00    +0.000 N 
ATOM     18  C   UNL     1       6.018   5.200  19.286  0.00  0.00    +0.000 C 
ENDBRANCH  11  12
ENDBRANCH   1  11
TORSDOF 5
ENDMDL
