MODEL 1
REMARK VINA RESULT:      -8.4      0.000      0.000
REMARK  Name = 
REMARK  6 active torsions:
REMARK  status: ('A' for Active; 'I' for Inactive)
REMARK    1  A    between atoms: C_2  and  C_3
REMARK    2  A    between atoms: N_6  and  C_7
REMARK    3  A    between atoms: C_18  and  C_19
REMARK    4  A    between atoms: C_19  and  N_20
REMARK    5  A    between atoms: N_20  and  S_21
REMARK    6  A    between atoms: S_21  and  C_24
REMARK                            x       y       z     vdW  Elec       q    Type
REMARK                         _______ _______ _______ _____ _____    ______ ____
ROOT
ATOM      1  O   UNL     1       0.265  10.220  17.891  0.00  0.00    +0.000 OA
ATOM      2  C   UNL     1       0.066  10.171  19.105  0.00  0.00    +0.000 C 
ATOM      3  N   UNL     1       0.722   9.249  19.886  0.00  0.00    +0.000 N 
ATOM      4  C   UNL     1       0.461   8.937  21.275  0.00  0.00    +0.000 C 
ATOM      5  C   UNL     1       1.717   8.204  21.706  0.00  0.00    +0.000 C 
ATOM      6  C   UNL     1       2.111   7.398  20.459  0.00  0.00    +0.000 C 
ATOM      7  C   UNL     1       1.702   8.332  19.313  0.00  0.00    +0.000 C 
ENDROOT
BRANCH   2   8
ATOM      8  C   UNL     1      -0.864  11.160  19.820  0.00  0.00    +0.000 C 
ATOM      9  C   UNL     1      -1.575  12.084  18.826  0.00  0.00    +0.000 C 
ATOM     10  C   UNL     1      -0.635  13.109  18.188  0.00  0.00    +0.000 C 
ATOM     11  N   UNL     1       0.089  13.816  19.248  0.00  0.00    +0.000 N 
ATOM     12  C   UNL     1       0.860  12.977  20.166  0.00  0.00    +0.000 C 
ATOM     13  C   UNL     1      -0.106  12.011  20.854  0.00  0.00    +0.000 C 
BRANCH  11  14
ATOM     14  C   UNL     1       0.301  15.182  19.177  0.00  0.00    +0.000 A 
ATOM     15  C   UNL     1      -0.723  16.089  19.467  0.00  0.00    +0.000 A 
ATOM     16  C   UNL     1      -0.512  17.450  19.295  0.00  0.00    +0.000 A 
ATOM     17  N   UNL     1       0.646  17.983  18.861  0.00  0.00    +0.000 NA
ATOM     18  C   UNL     1       1.633  17.108  18.599  0.00  0.00    +0.000 A 
ATOM     19  C   UNL     1       1.512  15.735  18.745  0.00  0.00    +0.000 A 
ENDBRANCH  11  14
ENDBRANCH   2   8
BRANCH   6  20
ATOM     20  C   UNL     1       1.382   6.050  20.428  0.00  0.00    +0.000 C 
BRANCH  20  21
ATOM     21  N   UNL     1       2.022   5.091  21.337  0.00  0.00    +0.000 NA
ATOM     22  H   UNL     1       1.775   5.121  22.327  0.00  0.00    +0.000 HD
BRANCH  21  23
ATOM     23  S   UNL     1       2.138   3.488  20.813  0.00  0.00    +0.000 S 
ATOM     24  O   UNL     1       2.926   2.800  21.801  0.00  0.00    +0.000 OA
ATOM     25  O   UNL     1       0.804   3.048  20.456  0.00  0.00    +0.000 OA
BRANCH  23  26
ATOM     26  C   UNL     1       3.116   3.626  19.340  0.00  0.00    +0.000 A 
ATOM     27  C   UNL     1       2.538   3.320  18.109  0.00  0.00    +0.000 A 
ATOM     28  C   UNL     1       3.295   3.456  16.944  0.00  0.00    +0.000 A 
ATOM     29  C   UNL     1       4.627   3.902  17.000  0.00  0.00    +0.000 A 
ATOM     30  C   UNL     1       5.398   4.049  15.836  0.00  0.00    +0.000 A 
ATOM     31  C   UNL     1       6.719   4.495  15.904  0.00  0.00    +0.000 A 
ATOM     32  C   UNL     1       7.287   4.801  17.137  0.00  0.00    +0.000 A 
ATOM     33  C   UNL     1       6.534   4.664  18.305  0.00  0.00    +0.000 A 
ATOM     34  C   UNL     1       5.205   4.216  18.254  0.00  0.00    +0.000 A 
ATOM     35  C   UNL     1       4.436   4.078  19.420  0.00  0.00    +0.000 A 
ENDBRANCH  23  26
ENDBRANCH  21  23
ENDBRANCH  20  21
ENDBRANCH   6  20
TORSDOF 6
ENDMDL
MODEL 2
REMARK VINA RESULT:      -8.1      1.027      1.228
REMARK  Name = 
REMARK  6 active torsions:
REMARK  status: ('A' for Active; 'I' for Inactive)
REMARK    1  A    between atoms: C_2  and  C_3
REMARK    2  A    between atoms: N_6  and  C_7
REMARK    3  A    between atoms: C_18  and  C_19
REMARK    4  A    between atoms: C_19  and  N_20
REMARK    5  A    between atoms: N_20  and  S_21
REMARK    6  A    between atoms: S_21  and  C_24
REMARK                            x       y       z     vdW  Elec       q    Type
REMARK                         _______ _______ _______ _____ _____    ______ ____
ROOT
ATOM      1  O   UNL     1      -0.136  10.195  17.883  0.00  0.00    +0.000 OA
ATOM      2  C   UNL     1      -0.319  10.311  19.095  0.00  0.00    +0.000 C 
ATOM      3  N   UNL     1       0.388   9.540  19.988  0.00  0.00    +0.000 N 
ATOM      4  C   UNL     1       0.158   9.419  21.411  0.00  0.00    +0.000 C 
ATOM      5  C   UNL     1       1.451   8.812  21.920  0.00  0.00    +0.000 C 
ATOM      6  C   UNL     1       1.869   7.855  20.793  0.00  0.00    +0.000 C 
ATOM      7  C   UNL     1       1.404   8.596  19.533  0.00  0.00    +0.000 C 
ENDROOT
BRANCH   2   8
ATOM      8  C   UNL     1      -1.288  11.349  19.679  0.00  0.00    +0.000 C 
ATOM      9  C   UNL     1      -1.755  12.344  18.612  0.00  0.00    +0.000 C 
ATOM     10  C   UNL     1      -0.654  13.313  18.176  0.00  0.00    +0.000 C 
ATOM     11  N   UNL     1      -0.073  13.941  19.366  0.00  0.00    +0.000 N 
ATOM     12  C   UNL     1       0.473  13.027  20.370  0.00  0.00    +0.000 C 
ATOM     13  C   UNL     1      -0.658  12.119  20.853  0.00  0.00    +0.000 C 
BRANCH  11  14
ATOM     14  C   UNL     1       0.241  15.289  19.379  0.00  0.00    +0.000 A 
ATOM     15  C   UNL     1       1.200  15.800  20.259  0.00  0.00    +0.000 A 
ATOM     16  C   UNL     1       1.425  17.168  20.319  0.00  0.00    +0.000 A 
ATOM     17  N   UNL     1       0.773  18.072  19.563  0.00  0.00    +0.000 NA
ATOM     18  C   UNL     1      -0.138  17.574  18.707  0.00  0.00    +0.000 A 
ATOM     19  C   UNL     1      -0.425  16.224  18.579  0.00  0.00    +0.000 A 
ENDBRANCH  11  14
ENDBRANCH   2   8
BRANCH   6  20
ATOM     20  C   UNL     1       1.205   6.485  20.966  0.00  0.00    +0.000 C 
BRANCH  20  21
ATOM     21  N   UNL     1       2.208   5.454  21.261  0.00  0.00    +0.000 NA
ATOM     22  H   UNL     1       2.547   5.366  22.220  0.00  0.00    +0.000 HD
BRANCH  21  23
ATOM     23  S   UNL     1       1.965   3.924  20.584  0.00  0.00    +0.000 S 
ATOM     24  O   UNL     1       2.567   2.985  21.494  0.00  0.00    +0.000 OA
ATOM     25  O   UNL     1       0.570   3.832  20.201  0.00  0.00    +0.000 OA
BRANCH  23  26
ATOM     26  C   UNL     1       2.965   3.978  19.121  0.00  0.00    +0.000 A 
ATOM     27  C   UNL     1       3.304   2.784  18.484  0.00  0.00    +0.000 A 
ATOM     28  C   UNL     1       4.066   2.825  17.316  0.00  0.00    +0.000 A 
ATOM     29  C   UNL     1       4.489   4.051  16.774  0.00  0.00    +0.000 A 
ATOM     30  C   UNL     1       5.250   4.106  15.596  0.00  0.00    +0.000 A 
ATOM     31  C   UNL     1       5.662   5.330  15.067  0.00  0.00    +0.000 A 
ATOM     32  C   UNL     1       5.317   6.516  15.707  0.00  0.00    +0.000 A 
ATOM     33  C   UNL     1       4.557   6.481  16.878  0.00  0.00    +0.000 A 
ATOM     34  C   UNL     1       4.136   5.258  17.425  0.00  0.00    +0.000 A 
ATOM     35  C   UNL     1       3.368   5.209  18.598  0.00  0.00    +0.000 A 
ENDBRANCH  23  26
ENDBRANCH  21  23
ENDBRANCH  20  21
ENDBRANCH   6  20
TORSDOF 6
ENDMDL
MODEL 3
REMARK VINA RESULT:      -8.0      0.922      1.586
REMARK  Name = 
REMARK  6 active torsions:
REMARK  status: ('A' for Active; 'I' for Inactive)
REMARK    1  A    between atoms: C_2  and  C_3
REMARK    2  A    between atoms: N_6  and  C_7
REMARK    3  A    between atoms: C_18  and  C_19
REMARK    4  A    between atoms: C_19  and  N_20
REMARK    5  A    between atoms: N_20  and  S_21
REMARK    6  A    between atoms: S_21  and  C_24
REMARK                            x       y       z     vdW  Elec       q    Type
REMARK                         _______ _______ _______ _____ _____    ______ ____
ROOT
ATOM      1  O   UNL     1       0.284  10.232  17.832  0.00  0.00    +0.000 OA
ATOM      2  C   UNL     1      -0.126  10.187  18.992  0.00  0.00    +0.000 C 
ATOM      3  N   UNL     1       0.472   9.362  19.915  0.00  0.00    +0.000 N 
ATOM      4  C   UNL     1      -0.003   9.052  21.246  0.00  0.00    +0.000 C 
ATOM      5  C   UNL     1       1.225   8.475  21.924  0.00  0.00    +0.000 C 
ATOM      6  C   UNL     1       1.924   7.693  20.802  0.00  0.00    +0.000 C 
ATOM      7  C   UNL     1       1.632   8.550  19.564  0.00  0.00    +0.000 C 
ENDROOT
BRANCH   2   8
ATOM      8  C   UNL     1      -1.272  11.079  19.488  0.00  0.00    +0.000 C 
ATOM      9  C   UNL     1      -1.693  12.098  18.423  0.00  0.00    +0.000 C 
ATOM     10  C   UNL     1      -0.653  13.200  18.209  0.00  0.00    +0.000 C 
ATOM     11  N   UNL     1      -0.313  13.794  19.504  0.00  0.00    +0.000 N 
ATOM     12  C   UNL     1       0.184  12.869  20.523  0.00  0.00    +0.000 C 
ATOM     13  C   UNL     1      -0.898  11.820  20.783  0.00  0.00    +0.000 C 
BRANCH  11  14
ATOM     14  C   UNL     1      -0.152  15.162  19.640  0.00  0.00    +0.000 A 
ATOM     15  C   UNL     1      -0.245  16.015  18.536  0.00  0.00    +0.000 A 
ATOM     16  C   UNL     1       0.016  17.370  18.683  0.00  0.00    +0.000 A 
ATOM     17  N   UNL     1       0.358  17.947  19.851  0.00  0.00    +0.000 NA
ATOM     18  C   UNL     1       0.430  17.126  20.913  0.00  0.00    +0.000 A 
ATOM     19  C   UNL     1       0.183  15.763  20.858  0.00  0.00    +0.000 A 
ENDBRANCH  11  14
ENDBRANCH   2   8
BRANCH   6  20
ATOM     20  C   UNL     1       1.362   6.270  20.696  0.00  0.00    +0.000 C 
BRANCH  20  21
ATOM     21  N   UNL     1       2.398   5.278  21.010  0.00  0.00    +0.000 NA
ATOM     22  H   UNL     1       2.511   4.984  21.981  0.00  0.00    +0.000 HD
BRANCH  21  23
ATOM     23  S   UNL     1       2.529   3.945  19.978  0.00  0.00    +0.000 S 
ATOM     24  O   UNL     1       2.986   2.851  20.794  0.00  0.00    +0.000 OA
ATOM     25  O   UNL     1       1.303   3.867  19.208  0.00  0.00    +0.000 OA
BRANCH  23  26
ATOM     26  C   UNL     1       3.859   4.411  18.902  0.00  0.00    +0.000 A 
ATOM     27  C   UNL     1       4.877   5.227  19.393  0.00  0.00    +0.000 A 
ATOM     28  C   UNL     1       5.941   5.572  18.558  0.00  0.00    +0.000 A 
ATOM     29  C   UNL     1       5.999   5.102  17.234  0.00  0.00    +0.000 A 
ATOM     30  C   UNL     1       7.066   5.436  16.386  0.00  0.00    +0.000 A 
ATOM     31  C   UNL     1       7.112   4.960  15.074  0.00  0.00    +0.000 A 
ATOM     32  C   UNL     1       6.094   4.144  14.593  0.00  0.00    +0.000 A 
ATOM     33  C   UNL     1       5.026   3.799  15.424  0.00  0.00    +0.000 A 
ATOM     34  C   UNL     1       4.963   4.269  16.745  0.00  0.00    +0.000 A 
ATOM     35  C   UNL     1       3.898   3.926  17.592  0.00  0.00    +0.000 A 
ENDBRANCH  23  26
ENDBRANCH  21  23
ENDBRANCH  20  21
ENDBRANCH   6  20
TORSDOF 6
ENDMDL
MODEL 4
REMARK VINA RESULT:      -7.9      1.052      1.783
REMARK  Name = 
REMARK  6 active torsions:
REMARK  status: ('A' for Active; 'I' for Inactive)
REMARK    1  A    between atoms: C_2  and  C_3
REMARK    2  A    between atoms: N_6  and  C_7
REMARK    3  A    between atoms: C_18  and  C_19
REMARK    4  A    between atoms: C_19  and  N_20
REMARK    5  A    between atoms: N_20  and  S_21
REMARK    6  A    between atoms: S_21  and  C_24
REMARK                            x       y       z     vdW  Elec       q    Type
REMARK                         _______ _______ _______ _____ _____    ______ ____
ROOT
ATOM      1  O   UNL     1       1.226  10.384  17.948  0.00  0.00    +0.000 OA
ATOM      2  C   UNL     1       0.904  10.169  19.117  0.00  0.00    +0.000 C 
ATOM      3  N   UNL     1       1.277   9.003  19.743  0.00  0.00    +0.000 N 
ATOM      4  C   UNL     1       0.824   8.520  21.030  0.00  0.00    +0.000 C 
ATOM      5  C   UNL     1       1.853   7.464  21.384  0.00  0.00    +0.000 C 
ATOM      6  C   UNL     1       2.191   6.821  20.030  0.00  0.00    +0.000 C 
ATOM      7  C   UNL     1       2.097   8.007  19.062  0.00  0.00    +0.000 C 
ENDROOT
BRANCH   2   8
ATOM      8  C   UNL     1       0.133  11.199  19.954  0.00  0.00    +0.000 C 
ATOM      9  C   UNL     1      -0.757  12.084  19.075  0.00  0.00    +0.000 C 
ATOM     10  C   UNL     1       0.041  13.070  18.220  0.00  0.00    +0.000 C 
ATOM     11  N   UNL     1       0.960  13.817  19.084  0.00  0.00    +0.000 N 
ATOM     12  C   UNL     1       1.894  13.012  19.872  0.00  0.00    +0.000 C 
ATOM     13  C   UNL     1       1.080  12.088  20.778  0.00  0.00    +0.000 C 
BRANCH  11  14
ATOM     14  C   UNL     1       1.156  15.176  18.910  0.00  0.00    +0.000 A 
ATOM     15  C   UNL     1       2.433  15.739  18.990  0.00  0.00    +0.000 A 
ATOM     16  C   UNL     1       2.590  17.115  18.909  0.00  0.00    +0.000 A 
ATOM     17  N   UNL     1       1.571  17.980  18.746  0.00  0.00    +0.000 NA
ATOM     18  C   UNL     1       0.346  17.433  18.654  0.00  0.00    +0.000 A 
ATOM     19  C   UNL     1       0.097  16.071  18.722  0.00  0.00    +0.000 A 
ENDBRANCH  11  14
ENDBRANCH   2   8
BRANCH   6  20
ATOM     20  C   UNL     1       1.206   5.693  19.700  0.00  0.00    +0.000 C 
BRANCH  20  21
ATOM     21  N   UNL     1       1.691   4.410  20.223  0.00  0.00    +0.000 NA
ATOM     22  H   UNL     1       1.226   4.012  21.040  0.00  0.00    +0.000 HD
BRANCH  21  23
ATOM     23  S   UNL     1       2.033   3.196  19.097  0.00  0.00    +0.000 S 
ATOM     24  O   UNL     1       2.298   2.006  19.860  0.00  0.00    +0.000 OA
ATOM     25  O   UNL     1       1.000   3.240  18.080  0.00  0.00    +0.000 OA
BRANCH  23  26
ATOM     26  C   UNL     1       3.565   3.738  18.388  0.00  0.00    +0.000 A 
ATOM     27  C   UNL     1       4.614   4.102  19.232  0.00  0.00    +0.000 A 
ATOM     28  C   UNL     1       5.831   4.502  18.678  0.00  0.00    +0.000 A 
ATOM     29  C   UNL     1       6.012   4.534  17.284  0.00  0.00    +0.000 A 
ATOM     30  C   UNL     1       7.233   4.927  16.715  0.00  0.00    +0.000 A 
ATOM     31  C   UNL     1       7.400   4.954  15.329  0.00  0.00    +0.000 A 
ATOM     32  C   UNL     1       6.350   4.586  14.494  0.00  0.00    +0.000 A 
ATOM     33  C   UNL     1       5.128   4.189  15.044  0.00  0.00    +0.000 A 
ATOM     34  C   UNL     1       4.943   4.158  16.435  0.00  0.00    +0.000 A 
ATOM     35  C   UNL     1       3.723   3.756  17.000  0.00  0.00    +0.000 A 
ENDBRANCH  23  26
ENDBRANCH  21  23
ENDBRANCH  20  21
ENDBRANCH   6  20
TORSDOF 6
ENDMDL
MODEL 5
REMARK VINA RESULT:      -7.8      3.017      4.275
REMARK  Name = 
REMARK  6 active torsions:
REMARK  status: ('A' for Active; 'I' for Inactive)
REMARK    1  A    between atoms: C_2  and  C_3
REMARK    2  A    between atoms: N_6  and  C_7
REMARK    3  A    between atoms: C_18  and  C_19
REMARK    4  A    between atoms: C_19  and  N_20
REMARK    5  A    between atoms: N_20  and  S_21
REMARK    6  A    between atoms: S_21  and  C_24
REMARK                            x       y       z     vdW  Elec       q    Type
REMARK                         _______ _______ _______ _____ _____    ______ ____
ROOT
ATOM      1  O   UNL     1       0.725   8.809  20.853  0.00  0.00    +0.000 OA
ATOM      2  C   UNL     1       1.268   8.946  19.756  0.00  0.00    +0.000 C 
ATOM      3  N   UNL     1       2.012   7.926  19.211  0.00  0.00    +0.000 N 
ATOM      4  C   UNL     1       2.861   7.994  18.040  0.00  0.00    +0.000 C 
ATOM      5  C   UNL     1       3.064   6.536  17.677  0.00  0.00    +0.000 C 
ATOM      6  C   UNL     1       3.134   5.830  19.040  0.00  0.00    +0.000 C 
ATOM      7  C   UNL     1       2.147   6.641  19.889  0.00  0.00    +0.000 C 
ENDROOT
BRANCH   2   8
ATOM      8  C   UNL     1       1.101  10.219  18.916  0.00  0.00    +0.000 C 
ATOM      9  C   UNL     1       1.329  11.481  19.754  0.00  0.00    +0.000 C 
ATOM     10  C   UNL     1       0.201  11.745  20.754  0.00  0.00    +0.000 C 
ATOM     11  N   UNL     1      -1.081  11.723  20.044  0.00  0.00    +0.000 N 
ATOM     12  C   UNL     1      -1.382  10.496  19.306  0.00  0.00    +0.000 C 
ATOM     13  C   UNL     1      -0.289  10.289  18.258  0.00  0.00    +0.000 C 
BRANCH  11  14
ATOM     14  C   UNL     1      -2.070  12.648  20.330  0.00  0.00    +0.000 A 
ATOM     15  C   UNL     1      -3.404  12.409  19.988  0.00  0.00    +0.000 A 
ATOM     16  C   UNL     1      -4.360  13.393  20.199  0.00  0.00    +0.000 A 
ATOM     17  N   UNL     1      -4.091  14.601  20.731  0.00  0.00    +0.000 NA
ATOM     18  C   UNL     1      -2.809  14.820  21.073  0.00  0.00    +0.000 A 
ATOM     19  C   UNL     1      -1.792  13.894  20.902  0.00  0.00    +0.000 A 
ENDBRANCH  11  14
ENDBRANCH   2   8
BRANCH   6  20
ATOM     20  C   UNL     1       4.564   5.851  19.593  0.00  0.00    +0.000 C 
BRANCH  20  21
ATOM     21  N   UNL     1       5.390   4.831  18.937  0.00  0.00    +0.000 NA
ATOM     22  H   UNL     1       4.922   4.092  18.411  0.00  0.00    +0.000 HD
BRANCH  21  23
ATOM     23  S   UNL     1       6.759   5.365  18.102  0.00  0.00    +0.000 S 
ATOM     24  O   UNL     1       6.670   6.801  18.063  0.00  0.00    +0.000 OA
ATOM     25  O   UNL     1       7.908   4.685  18.667  0.00  0.00    +0.000 OA
BRANCH  23  26
ATOM     26  C   UNL     1       6.478   4.760  16.459  0.00  0.00    +0.000 A 
ATOM     27  C   UNL     1       5.435   3.863  16.234  0.00  0.00    +0.000 A 
ATOM     28  C   UNL     1       5.192   3.407  14.937  0.00  0.00    +0.000 A 
ATOM     29  C   UNL     1       5.982   3.846  13.860  0.00  0.00    +0.000 A 
ATOM     30  C   UNL     1       5.744   3.400  12.551  0.00  0.00    +0.000 A 
ATOM     31  C   UNL     1       6.534   3.845  11.489  0.00  0.00    +0.000 A 
ATOM     32  C   UNL     1       7.571   4.742  11.722  0.00  0.00    +0.000 A 
ATOM     33  C   UNL     1       7.820   5.199  13.018  0.00  0.00    +0.000 A 
ATOM     34  C   UNL     1       7.036   4.761  14.097  0.00  0.00    +0.000 A 
ATOM     35  C   UNL     1       7.273   5.216  15.403  0.00  0.00    +0.000 A 
ENDBRANCH  23  26
ENDBRANCH  21  23
ENDBRANCH  20  21
ENDBRANCH   6  20
TORSDOF 6
ENDMDL
MODEL 6
REMARK VINA RESULT:      -7.6      6.558     11.244
REMARK  Name = 
REMARK  6 active torsions:
REMARK  status: ('A' for Active; 'I' for Inactive)
REMARK    1  A    between atoms: C_2  and  C_3
REMARK    2  A    between atoms: N_6  and  C_7
REMARK    3  A    between atoms: C_18  and  C_19
REMARK    4  A    between atoms: C_19  and  N_20
REMARK    5  A    between atoms: N_20  and  S_21
REMARK    6  A    between atoms: S_21  and  C_24
REMARK                            x       y       z     vdW  Elec       q    Type
REMARK                         _______ _______ _______ _____ _____    ______ ____
ROOT
ATOM      1  O   UNL     1       6.713   7.391  16.403  0.00  0.00    +0.000 OA
ATOM      2  C   UNL     1       7.403   7.229  17.410  0.00  0.00    +0.000 C 
ATOM      3  N   UNL     1       8.000   8.302  18.030  0.00  0.00    +0.000 N 
ATOM      4  C   UNL     1       8.984   8.261  19.090  0.00  0.00    +0.000 C 
ATOM      5  C   UNL     1       8.947   9.670  19.650  0.00  0.00    +0.000 C 
ATOM      6  C   UNL     1       8.710  10.545  18.409  0.00  0.00    +0.000 C 
ATOM      7  C   UNL     1       7.800   9.663  17.545  0.00  0.00    +0.000 C 
ENDROOT
BRANCH   2   8
ATOM      8  C   UNL     1       7.589   5.851  18.059  0.00  0.00    +0.000 C 
ATOM      9  C   UNL     1       7.228   4.720  17.091  0.00  0.00    +0.000 C 
ATOM     10  C   UNL     1       5.724   4.621  16.825  0.00  0.00    +0.000 C 
ATOM     11  N   UNL     1       5.016   4.561  18.107  0.00  0.00    +0.000 N 
ATOM     12  C   UNL     1       5.260   5.673  19.026  0.00  0.00    +0.000 C 
ATOM     13  C   UNL     1       6.755   5.709  19.344  0.00  0.00    +0.000 C 
BRANCH  11  14
ATOM     14  C   UNL     1       3.945   3.702  18.290  0.00  0.00    +0.000 A 
ATOM     15  C   UNL     1       2.702   3.961  17.705  0.00  0.00    +0.000 A 
ATOM     16  C   UNL     1       1.621   3.137  17.983  0.00  0.00    +0.000 A 
ATOM     17  N   UNL     1       1.681   2.065  18.797  0.00  0.00    +0.000 NA
ATOM     18  C   UNL     1       2.883   1.811  19.345  0.00  0.00    +0.000 A 
ATOM     19  C   UNL     1       4.016   2.578  19.120  0.00  0.00    +0.000 A 
ENDBRANCH  11  14
ENDBRANCH   2   8
BRANCH   6  20
ATOM     20  C   UNL     1      10.037  10.894  17.725  0.00  0.00    +0.000 C 
BRANCH  20  21
ATOM     21  N   UNL     1      10.313  12.331  17.829  0.00  0.00    +0.000 NA
ATOM     22  H   UNL     1       9.578  12.988  17.563  0.00  0.00    +0.000 HD
BRANCH  21  23
ATOM     23  S   UNL     1      11.098  12.870  19.226  0.00  0.00    +0.000 S 
ATOM     24  O   UNL     1      11.843  11.745  19.726  0.00  0.00    +0.000 OA
ATOM     25  O   UNL     1      11.737  14.132  18.909  0.00  0.00    +0.000 OA
BRANCH  23  26
ATOM     26  C   UNL     1       9.753  13.167  20.342  0.00  0.00    +0.000 A 
ATOM     27  C   UNL     1       8.803  14.136  20.020  0.00  0.00    +0.000 A 
ATOM     28  C   UNL     1       7.726  14.353  20.881  0.00  0.00    +0.000 A 
ATOM     29  C   UNL     1       7.587  13.603  22.062  0.00  0.00    +0.000 A 
ATOM     30  C   UNL     1       6.506  13.806  22.933  0.00  0.00    +0.000 A 
ATOM     31  C   UNL     1       6.378  13.054  24.102  0.00  0.00    +0.000 A 
ATOM     32  C   UNL     1       7.328  12.087  24.415  0.00  0.00    +0.000 A 
ATOM     33  C   UNL     1       8.409  11.868  23.558  0.00  0.00    +0.000 A 
ATOM     34  C   UNL     1       8.554  12.617  22.379  0.00  0.00    +0.000 A 
ATOM     35  C   UNL     1       9.632  12.405  21.507  0.00  0.00    +0.000 A 
ENDBRANCH  23  26
ENDBRANCH  21  23
ENDBRANCH  20  21
ENDBRANCH   6  20
TORSDOF 6
ENDMDL
MODEL 7
REMARK VINA RESULT:      -7.6      1.182      1.909
REMARK  Name = 
REMARK  6 active torsions:
REMARK  status: ('A' for Active; 'I' for Inactive)
REMARK    1  A    between atoms: C_2  and  C_3
REMARK    2  A    between atoms: N_6  and  C_7
REMARK    3  A    between atoms: C_18  and  C_19
REMARK    4  A    between atoms: C_19  and  N_20
REMARK    5  A    between atoms: N_20  and  S_21
REMARK    6  A    between atoms: S_21  and  C_24
REMARK                            x       y       z     vdW  Elec       q    Type
REMARK                         _______ _______ _______ _____ _____    ______ ____
ROOT
ATOM      1  O   UNL     1       1.155  10.448  18.197  0.00  0.00    +0.000 OA
ATOM      2  C   UNL     1       0.797   9.889  19.234  0.00  0.00    +0.000 C 
ATOM      3  N   UNL     1       1.338   8.678  19.598  0.00  0.00    +0.000 N 
ATOM      4  C   UNL     1       0.894   7.810  20.668  0.00  0.00    +0.000 C 
ATOM      5  C   UNL     1       2.077   6.884  20.874  0.00  0.00    +0.000 C 
ATOM      6  C   UNL     1       2.626   6.678  19.454  0.00  0.00    +0.000 C 
ATOM      7  C   UNL     1       2.378   8.042  18.797  0.00  0.00    +0.000 C 
ENDROOT
BRANCH   2   8
ATOM      8  C   UNL     1      -0.212  10.525  20.198  0.00  0.00    +0.000 C 
ATOM      9  C   UNL     1      -1.355  11.213  19.444  0.00  0.00    +0.000 C 
ATOM     10  C   UNL     1      -0.914  12.494  18.733  0.00  0.00    +0.000 C 
ATOM     11  N   UNL     1      -0.225  13.360  19.695  0.00  0.00    +0.000 N 
ATOM     12  C   UNL     1       0.932  12.773  20.370  0.00  0.00    +0.000 C 
ATOM     13  C   UNL     1       0.460  11.539  21.140  0.00  0.00    +0.000 C 
BRANCH  11  14
ATOM     14  C   UNL     1      -0.445  14.727  19.707  0.00  0.00    +0.000 A 
ATOM     15  C   UNL     1      -0.109  15.524  18.608  0.00  0.00    +0.000 A 
ATOM     16  C   UNL     1      -0.249  16.902  18.684  0.00  0.00    +0.000 A 
ATOM     17  N   UNL     1      -0.706  17.553  19.770  0.00  0.00    +0.000 NA
ATOM     18  C   UNL     1      -1.043  16.782  20.819  0.00  0.00    +0.000 A 
ATOM     19  C   UNL     1      -0.938  15.400  20.830  0.00  0.00    +0.000 A 
ENDBRANCH  11  14
ENDBRANCH   2   8
BRANCH   6  20
ATOM     20  C   UNL     1       1.898   5.528  18.748  0.00  0.00    +0.000 C 
BRANCH  20  21
ATOM     21  N   UNL     1       1.713   4.393  19.660  0.00  0.00    +0.000 NA
ATOM     22  H   UNL     1       0.762   4.141  19.936  0.00  0.00    +0.000 HD
BRANCH  21  23
ATOM     23  S   UNL     1       2.619   2.999  19.353  0.00  0.00    +0.000 S 
ATOM     24  O   UNL     1       3.109   2.551  20.630  0.00  0.00    +0.000 OA
ATOM     25  O   UNL     1       1.826   2.142  18.494  0.00  0.00    +0.000 OA
BRANCH  23  26
ATOM     26  C   UNL     1       4.000   3.623  18.432  0.00  0.00    +0.000 A 
ATOM     27  C   UNL     1       5.098   4.140  19.119  0.00  0.00    +0.000 A 
ATOM     28  C   UNL     1       6.199   4.606  18.398  0.00  0.00    +0.000 A 
ATOM     29  C   UNL     1       6.214   4.552  16.993  0.00  0.00    +0.000 A 
ATOM     30  C   UNL     1       7.317   5.010  16.257  0.00  0.00    +0.000 A 
ATOM     31  C   UNL     1       7.321   4.950  14.862  0.00  0.00    +0.000 A 
ATOM     32  C   UNL     1       6.223   4.430  14.185  0.00  0.00    +0.000 A 
ATOM     33  C   UNL     1       5.118   3.966  14.902  0.00  0.00    +0.000 A 
ATOM     34  C   UNL     1       5.097   4.020  16.304  0.00  0.00    +0.000 A 
ATOM     35  C   UNL     1       3.995   3.553  17.036  0.00  0.00    +0.000 A 
ENDBRANCH  23  26
ENDBRANCH  21  23
ENDBRANCH  20  21
ENDBRANCH   6  20
TORSDOF 6
ENDMDL
MODEL 8
REMARK VINA RESULT:      -7.5      1.616      1.919
REMARK  Name = 
REMARK  6 active torsions:
REMARK  status: ('A' for Active; 'I' for Inactive)
REMARK    1  A    between atoms: C_2  and  C_3
REMARK    2  A    between atoms: N_6  and  C_7
REMARK    3  A    between atoms: C_18  and  C_19
REMARK    4  A    between atoms: C_19  and  N_20
REMARK    5  A    between atoms: N_20  and  S_21
REMARK    6  A    between atoms: S_21  and  C_24
REMARK                            x       y       z     vdW  Elec       q    Type
REMARK                         _______ _______ _______ _____ _____    ______ ____
ROOT
ATOM      1  O   UNL     1       1.695  10.079  17.882  0.00  0.00    +0.000 OA
ATOM      2  C   UNL     1       1.086   9.973  18.946  0.00  0.00    +0.000 C 
ATOM      3  N   UNL     1       1.263   8.870  19.748  0.00  0.00    +0.000 N 
ATOM      4  C   UNL     1       0.490   8.506  20.916  0.00  0.00    +0.000 C 
ATOM      5  C   UNL     1       1.374   7.488  21.611  0.00  0.00    +0.000 C 
ATOM      6  C   UNL     1       2.026   6.723  20.449  0.00  0.00    +0.000 C 
ATOM      7  C   UNL     1       2.204   7.815  19.386  0.00  0.00    +0.000 C 
ENDROOT
BRANCH   2   8
ATOM      8  C   UNL     1       0.153  11.075  19.466  0.00  0.00    +0.000 C 
ATOM      9  C   UNL     1      -0.132  12.126  18.388  0.00  0.00    +0.000 C 
ATOM     10  C   UNL     1       1.079  13.009  18.081  0.00  0.00    +0.000 C 
ATOM     11  N   UNL     1       1.595  13.564  19.336  0.00  0.00    +0.000 N 
ATOM     12  C   UNL     1       1.969  12.590  20.361  0.00  0.00    +0.000 C 
ATOM     13  C   UNL     1       0.729  11.768  20.713  0.00  0.00    +0.000 C 
BRANCH  11  14
ATOM     14  C   UNL     1       2.012  14.882  19.414  0.00  0.00    +0.000 A 
ATOM     15  C   UNL     1       2.579  15.528  18.310  0.00  0.00    +0.000 A 
ATOM     16  C   UNL     1       3.077  16.816  18.442  0.00  0.00    +0.000 A 
ATOM     17  N   UNL     1       3.049  17.519  19.591  0.00  0.00    +0.000 NA
ATOM     18  C   UNL     1       2.489  16.900  20.645  0.00  0.00    +0.000 A 
ATOM     19  C   UNL     1       1.965  15.618  20.603  0.00  0.00    +0.000 A 
ENDBRANCH  11  14
ENDBRANCH   2   8
BRANCH   6  20
ATOM     20  C   UNL     1       1.130   5.570  19.983  0.00  0.00    +0.000 C 
BRANCH  20  21
ATOM     21  N   UNL     1       1.654   4.282  20.453  0.00  0.00    +0.000 NA
ATOM     22  H   UNL     1       1.080   3.727  21.090  0.00  0.00    +0.000 HD
BRANCH  21  23
ATOM     23  S   UNL     1       2.386   3.280  19.305  0.00  0.00    +0.000 S 
ATOM     24  O   UNL     1       3.026   2.225  20.046  0.00  0.00    +0.000 OA
ATOM     25  O   UNL     1       1.404   3.005  18.275  0.00  0.00    +0.000 OA
BRANCH  23  26
ATOM     26  C   UNL     1       3.656   4.317  18.632  0.00  0.00    +0.000 A 
ATOM     27  C   UNL     1       3.418   4.996  17.437  0.00  0.00    +0.000 A 
ATOM     28  C   UNL     1       4.405   5.836  16.919  0.00  0.00    +0.000 A 
ATOM     29  C   UNL     1       5.628   6.010  17.589  0.00  0.00    +0.000 A 
ATOM     30  C   UNL     1       6.625   6.857  17.082  0.00  0.00    +0.000 A 
ATOM     31  C   UNL     1       7.835   7.022  17.759  0.00  0.00    +0.000 A 
ATOM     32  C   UNL     1       8.064   6.344  18.951  0.00  0.00    +0.000 A 
ATOM     33  C   UNL     1       7.081   5.499  19.473  0.00  0.00    +0.000 A 
ATOM     34  C   UNL     1       5.859   5.321  18.805  0.00  0.00    +0.000 A 
ATOM     35  C   UNL     1       4.862   4.479  19.320  0.00  0.00    +0.000 A 
ENDBRANCH  23  26
ENDBRANCH  21  23
ENDBRANCH  20  21
ENDBRANCH   6  20
TORSDOF 6
ENDMDL
MODEL 9
REMARK VINA RESULT:      -7.5      3.382      5.348
REMARK  Name = 
REMARK  6 active torsions:
REMARK  status: ('A' for Active; 'I' for Inactive)
REMARK    1  A    between atoms: C_2  and  C_3
REMARK    2  A    between atoms: N_6  and  C_7
REMARK    3  A    between atoms: C_18  and  C_19
REMARK    4  A    between atoms: C_19  and  N_20
REMARK    5  A    between atoms: N_20  and  S_21
REMARK    6  A    between atoms: S_21  and  C_24
REMARK                            x       y       z     vdW  Elec       q    Type
REMARK                         _______ _______ _______ _____ _____    ______ ____
ROOT
ATOM      1  O   UNL     1       2.321  13.922  21.444  0.00  0.00    +0.000 OA
ATOM      2  C   UNL     1       1.602  14.042  20.452  0.00  0.00    +0.000 C 
ATOM      3  N   UNL     1       0.484  13.257  20.298  0.00  0.00    +0.000 N 
ATOM      4  C   UNL     1      -0.345  13.139  19.118  0.00  0.00    +0.000 C 
ATOM      5  C   UNL     1      -1.616  12.507  19.651  0.00  0.00    +0.000 C 
ATOM      6  C   UNL     1      -1.113  11.542  20.735  0.00  0.00    +0.000 C 
ATOM      7  C   UNL     1       0.090  12.292  21.320  0.00  0.00    +0.000 C 
ENDROOT
BRANCH   2   8
ATOM      8  C   UNL     1       1.871  15.098  19.372  0.00  0.00    +0.000 C 
ATOM      9  C   UNL     1       2.661  14.513  18.197  0.00  0.00    +0.000 C 
ATOM     10  C   UNL     1       4.118  14.207  18.551  0.00  0.00    +0.000 C 
ATOM     11  N   UNL     1       4.725  15.401  19.145  0.00  0.00    +0.000 N 
ATOM     12  C   UNL     1       4.055  15.939  20.329  0.00  0.00    +0.000 C 
ATOM     13  C   UNL     1       2.625  16.314  19.938  0.00  0.00    +0.000 C 
BRANCH  11  14
ATOM     14  C   UNL     1       6.015  15.783  18.818  0.00  0.00    +0.000 A 
ATOM     15  C   UNL     1       6.471  17.081  19.068  0.00  0.00    +0.000 A 
ATOM     16  C   UNL     1       7.734  17.465  18.643  0.00  0.00    +0.000 A 
ATOM     17  N   UNL     1       8.587  16.654  17.989  0.00  0.00    +0.000 NA
ATOM     18  C   UNL     1       8.151  15.402  17.764  0.00  0.00    +0.000 A 
ATOM     19  C   UNL     1       6.907  14.932  18.156  0.00  0.00    +0.000 A 
ENDBRANCH  11  14
ENDBRANCH   2   8
BRANCH   6  20
ATOM     20  C   UNL     1      -0.739  10.185  20.128  0.00  0.00    +0.000 C 
BRANCH  20  21
ATOM     21  N   UNL     1       0.717  10.060  19.990  0.00  0.00    +0.000 NA
ATOM     22  H   UNL     1       1.223   9.488  20.667  0.00  0.00    +0.000 HD
BRANCH  21  23
ATOM     23  S   UNL     1       1.326   9.797  18.434  0.00  0.00    +0.000 S 
ATOM     24  O   UNL     1       0.185   9.542  17.595  0.00  0.00    +0.000 OA
ATOM     25  O   UNL     1       2.265  10.864  18.147  0.00  0.00    +0.000 OA
BRANCH  23  26
ATOM     26  C   UNL     1       2.218   8.275  18.614  0.00  0.00    +0.000 A 
ATOM     27  C   UNL     1       2.004   7.491  19.748  0.00  0.00    +0.000 A 
ATOM     28  C   UNL     1       2.682   6.279  19.879  0.00  0.00    +0.000 A 
ATOM     29  C   UNL     1       3.570   5.838  18.881  0.00  0.00    +0.000 A 
ATOM     30  C   UNL     1       4.252   4.618  18.998  0.00  0.00    +0.000 A 
ATOM     31  C   UNL     1       5.129   4.191  17.999  0.00  0.00    +0.000 A 
ATOM     32  C   UNL     1       5.334   4.977  16.870  0.00  0.00    +0.000 A 
ATOM     33  C   UNL     1       4.660   6.193  16.736  0.00  0.00    +0.000 A 
ATOM     34  C   UNL     1       3.776   6.638  17.731  0.00  0.00    +0.000 A 
ATOM     35  C   UNL     1       3.090   7.855  17.606  0.00  0.00    +0.000 A 
ENDBRANCH  23  26
ENDBRANCH  21  23
ENDBRANCH  20  21
ENDBRANCH   6  20
TORSDOF 6
ENDMDL
