MODEL 1
REMARK VINA RESULT:      -6.3      0.000      0.000
REMARK  Name = 
REMARK  10 active torsions:
REMARK  status: ('A' for Active; 'I' for Inactive)
REMARK    1  A    between atoms: C_1  and  C_2
REMARK    2  A    between atoms: C_2  and  C_3
REMARK    3  A    between atoms: C_3  and  C_4
REMARK    4  A    between atoms: C_4  and  C_5
REMARK    5  A    between atoms: C_4  and  N_13
REMARK    6  A    between atoms: N_7  and  C_8
REMARK    7  A    between atoms: N_13  and  C_25
REMARK    8  A    between atoms: C_14  and  C_16
REMARK    9  A    between atoms: C_19  and  C_20
REMARK   10  A    between atoms: C_23  and  N_24
REMARK                            x       y       z     vdW  Elec       q    Type
REMARK                         _______ _______ _______ _____ _____    ______ ____
ROOT
ATOM      1  N   UNL     1      -1.077  13.587  21.224  0.00  0.00    +0.000 N 
ATOM      2  C   UNL     1      -0.532  14.914  21.301  0.00  0.00    +0.000 C 
ATOM      3  O   UNL     1      -1.180  15.794  21.884  0.00  0.00    +0.000 OA
ENDROOT
BRANCH   1   4
ATOM      4  C   UNL     1      -2.321  13.323  21.921  0.00  0.00    +0.000 A 
ATOM      5  C   UNL     1      -2.335  13.001  23.289  0.00  0.00    +0.000 A 
ATOM      6  C   UNL     1      -3.549  12.786  23.961  0.00  0.00    +0.000 A 
ATOM      7  C   UNL     1      -4.750  12.931  23.278  0.00  0.00    +0.000 A 
ATOM      8  F   UNL     1      -5.910  12.754  23.924  0.00  0.00    +0.000 F 
ATOM      9  C   UNL     1      -4.760  13.258  21.928  0.00  0.00    +0.000 A 
ATOM     10  C   UNL     1      -3.547  13.428  21.245  0.00  0.00    +0.000 A 
ENDBRANCH   1   4
BRANCH   2  11
ATOM     11  C   UNL     1       0.730  15.290  20.661  0.00  0.00    +0.000 A 
ATOM     12  S   UNL     1       2.218  15.406  21.481  0.00  0.00    +0.000 S 
ATOM     13  N   UNL     1       3.176  15.661  20.187  0.00  0.00    +0.000 NA
ATOM     14  C   UNL     1       2.394  15.924  19.130  0.00  0.00    +0.000 A 
ATOM     15  C   UNL     1       0.971  15.814  19.392  0.00  0.00    +0.000 A 
BRANCH  14  16
ATOM     16  C   UNL     1       3.044  16.272  17.861  0.00  0.00    +0.000 C 
ATOM     17  N   UNL     1       3.600  15.209  17.202  0.00  0.00    +0.000 N 
ATOM     18  O   UNL     1       3.089  17.402  17.391  0.00  0.00    +0.000 OA
ATOM     19  H   UNL     1       3.505  14.274  17.598  0.00  0.00    +0.000 HD
ATOM     20  H   UNL     1       4.007  15.332  16.289  0.00  0.00    +0.000 HD
ENDBRANCH  14  16
BRANCH  15  21
ATOM     21  N   UNL     1       0.006  16.131  18.493  0.00  0.00    +0.000 N 
ATOM     22  H   UNL     1      -0.973  15.927  18.713  0.00  0.00    +0.000 HD
ATOM     23  H   UNL     1       0.197  16.101  17.490  0.00  0.00    +0.000 HD
ENDBRANCH  15  21
ENDBRANCH   2  11
BRANCH   1  24
ATOM     24  C   UNL     1      -0.509  12.394  20.479  0.00  0.00    +0.000 C 
BRANCH  24  25
ATOM     25  C   UNL     1      -0.930  12.412  18.977  0.00  0.00    +0.000 C 
ATOM     26  O   UNL     1      -0.363  13.089  18.124  0.00  0.00    +0.000 OA
ATOM     27  N   UNL     1      -2.023  11.631  18.651  0.00  0.00    +0.000 N 
ATOM     28  H   UNL     1      -2.554  11.195  19.392  0.00  0.00    +0.000 HD
BRANCH  27  29
ATOM     29  C   UNL     1      -2.367  11.365  17.272  0.00  0.00    +0.000 C 
ATOM     30  C   UNL     1      -2.020   9.950  16.826  0.00  0.00    +0.000 C 
ATOM     31  C   UNL     1      -2.829   9.780  15.548  0.00  0.00    +0.000 C 
ATOM     32  C   UNL     1      -4.056  10.680  15.710  0.00  0.00    +0.000 C 
ATOM     33  C   UNL     1      -3.860  11.452  17.010  0.00  0.00    +0.000 C 
ENDBRANCH  27  29
ENDBRANCH  24  25
BRANCH  24  34
ATOM     34  C   UNL     1      -0.707  11.054  21.231  0.00  0.00    +0.000 C 
BRANCH  34  36
ATOM     35  C   UNL     1      -0.146   8.604  21.537  0.00  0.00    +0.000 C 
ATOM     36  C   UNL     1       0.258   9.913  20.868  0.00  0.00    +0.000 C 
ENDBRANCH  34  36
ENDBRANCH  24  34
ENDBRANCH   1  24
TORSDOF 9
ENDMDL
MODEL 2
REMARK VINA RESULT:      -6.1      7.996     10.427
REMARK  Name = 
REMARK  10 active torsions:
REMARK  status: ('A' for Active; 'I' for Inactive)
REMARK    1  A    between atoms: C_1  and  C_2
REMARK    2  A    between atoms: C_2  and  C_3
REMARK    3  A    between atoms: C_3  and  C_4
REMARK    4  A    between atoms: C_4  and  C_5
REMARK    5  A    between atoms: C_4  and  N_13
REMARK    6  A    between atoms: N_7  and  C_8
REMARK    7  A    between atoms: N_13  and  C_25
REMARK    8  A    between atoms: C_14  and  C_16
REMARK    9  A    between atoms: C_19  and  C_20
REMARK   10  A    between atoms: C_23  and  N_24
REMARK                            x       y       z     vdW  Elec       q    Type
REMARK                         _______ _______ _______ _____ _____    ______ ____
ROOT
ATOM      1  N   UNL     1       3.598   5.607  18.541  0.00  0.00    +0.000 N 
ATOM      2  C   UNL     1       2.341   6.147  18.981  0.00  0.00    +0.000 C 
ATOM      3  O   UNL     1       1.432   5.367  19.297  0.00  0.00    +0.000 OA
ENDROOT
BRANCH   1   4
ATOM      4  C   UNL     1       3.769   4.169  18.581  0.00  0.00    +0.000 A 
ATOM      5  C   UNL     1       4.361   3.536  19.688  0.00  0.00    +0.000 A 
ATOM      6  C   UNL     1       4.485   2.139  19.732  0.00  0.00    +0.000 A 
ATOM      7  C   UNL     1       3.985   1.369  18.689  0.00  0.00    +0.000 A 
ATOM      8  F   UNL     1       4.079   0.033  18.741  0.00  0.00    +0.000 F 
ATOM      9  C   UNL     1       3.389   1.972  17.589  0.00  0.00    +0.000 A 
ATOM     10  C   UNL     1       3.304   3.370  17.524  0.00  0.00    +0.000 A 
ENDBRANCH   1   4
BRANCH   2  11
ATOM     11  C   UNL     1       2.063   7.584  19.011  0.00  0.00    +0.000 A 
ATOM     12  S   UNL     1       2.367   8.641  17.710  0.00  0.00    +0.000 S 
ATOM     13  N   UNL     1       1.673   9.979  18.332  0.00  0.00    +0.000 NA
ATOM     14  C   UNL     1       1.418   9.756  19.629  0.00  0.00    +0.000 A 
ATOM     15  C   UNL     1       1.723   8.410  20.080  0.00  0.00    +0.000 A 
BRANCH  14  16
ATOM     16  C   UNL     1       0.865  10.860  20.423  0.00  0.00    +0.000 C 
ATOM     17  N   UNL     1      -0.025  11.650  19.747  0.00  0.00    +0.000 N 
ATOM     18  O   UNL     1       1.139  11.076  21.596  0.00  0.00    +0.000 OA
ATOM     19  H   UNL     1      -0.267  11.415  18.784  0.00  0.00    +0.000 HD
ATOM     20  H   UNL     1      -0.513  12.391  20.224  0.00  0.00    +0.000 HD
ENDBRANCH  14  16
BRANCH  15  21
ATOM     21  N   UNL     1       1.632   8.003  21.370  0.00  0.00    +0.000 N 
ATOM     22  H   UNL     1       2.220   7.230  21.696  0.00  0.00    +0.000 HD
ATOM     23  H   UNL     1       0.747   8.063  21.876  0.00  0.00    +0.000 HD
ENDBRANCH  15  21
ENDBRANCH   2  11
BRANCH   1  24
ATOM     24  C   UNL     1       4.799   6.369  18.015  0.00  0.00    +0.000 C 
BRANCH  24  25
ATOM     25  C   UNL     1       4.874   6.305  16.459  0.00  0.00    +0.000 C 
ATOM     26  O   UNL     1       4.525   7.226  15.726  0.00  0.00    +0.000 OA
ATOM     27  N   UNL     1       5.335   5.114  15.929  0.00  0.00    +0.000 N 
ATOM     28  H   UNL     1       5.484   4.327  16.544  0.00  0.00    +0.000 HD
BRANCH  27  29
ATOM     29  C   UNL     1       5.683   5.004  14.529  0.00  0.00    +0.000 C 
ATOM     30  C   UNL     1       7.185   5.053  14.276  0.00  0.00    +0.000 C 
ATOM     31  C   UNL     1       7.316   4.508  12.860  0.00  0.00    +0.000 C 
ATOM     32  C   UNL     1       6.136   3.552  12.672  0.00  0.00    +0.000 C 
ATOM     33  C   UNL     1       5.276   3.672  13.925  0.00  0.00    +0.000 C 
ENDBRANCH  27  29
ENDBRANCH  24  25
BRANCH  24  34
ATOM     34  C   UNL     1       6.108   6.047  18.779  0.00  0.00    +0.000 C 
BRANCH  34  36
ATOM     35  C   UNL     1       7.798   7.706  17.884  0.00  0.00    +0.000 C 
ATOM     36  C   UNL     1       7.422   6.234  18.001  0.00  0.00    +0.000 C 
ENDBRANCH  34  36
ENDBRANCH  24  34
ENDBRANCH   1  24
TORSDOF 9
ENDMDL
MODEL 3
REMARK VINA RESULT:      -6.0      2.869      4.546
REMARK  Name = 
REMARK  10 active torsions:
REMARK  status: ('A' for Active; 'I' for Inactive)
REMARK    1  A    between atoms: C_1  and  C_2
REMARK    2  A    between atoms: C_2  and  C_3
REMARK    3  A    between atoms: C_3  and  C_4
REMARK    4  A    between atoms: C_4  and  C_5
REMARK    5  A    between atoms: C_4  and  N_13
REMARK    6  A    between atoms: N_7  and  C_8
REMARK    7  A    between atoms: N_13  and  C_25
REMARK    8  A    between atoms: C_14  and  C_16
REMARK    9  A    between atoms: C_19  and  C_20
REMARK   10  A    between atoms: C_23  and  N_24
REMARK                            x       y       z     vdW  Elec       q    Type
REMARK                         _______ _______ _______ _____ _____    ______ ____
ROOT
ATOM      1  N   UNL     1      -0.659  12.228  20.136  0.00  0.00    +0.000 N 
ATOM      2  C   UNL     1       0.047  13.412  19.733  0.00  0.00    +0.000 C 
ATOM      3  O   UNL     1      -0.307  13.999  18.701  0.00  0.00    +0.000 OA
ENDROOT
BRANCH   1   4
ATOM      4  C   UNL     1      -1.819  11.834  19.361  0.00  0.00    +0.000 A 
ATOM      5  C   UNL     1      -3.105  12.297  19.688  0.00  0.00    +0.000 A 
ATOM      6  C   UNL     1      -4.215  11.939  18.906  0.00  0.00    +0.000 A 
ATOM      7  C   UNL     1      -4.036  11.152  17.775  0.00  0.00    +0.000 A 
ATOM      8  F   UNL     1      -5.090  10.831  17.012  0.00  0.00    +0.000 F 
ATOM      9  C   UNL     1      -2.773  10.691  17.428  0.00  0.00    +0.000 A 
ATOM     10  C   UNL     1      -1.671  11.010  18.233  0.00  0.00    +0.000 A 
ENDBRANCH   1   4
BRANCH   2  11
ATOM     11  C   UNL     1       1.215  13.922  20.454  0.00  0.00    +0.000 A 
ATOM     12  S   UNL     1       1.131  14.762  21.933  0.00  0.00    +0.000 S 
ATOM     13  N   UNL     1       2.730  14.849  22.241  0.00  0.00    +0.000 NA
ATOM     14  C   UNL     1       3.391  14.485  21.134  0.00  0.00    +0.000 A 
ATOM     15  C   UNL     1       2.543  14.034  20.046  0.00  0.00    +0.000 A 
BRANCH  14  16
ATOM     16  C   UNL     1       4.857  14.567  21.147  0.00  0.00    +0.000 C 
ATOM     17  N   UNL     1       5.430  14.243  22.347  0.00  0.00    +0.000 N 
ATOM     18  O   UNL     1       5.544  14.879  20.182  0.00  0.00    +0.000 OA
ATOM     19  H   UNL     1       4.831  13.943  23.118  0.00  0.00    +0.000 HD
ATOM     20  H   UNL     1       6.431  14.200  22.440  0.00  0.00    +0.000 HD
ENDBRANCH  14  16
BRANCH  15  21
ATOM     21  N   UNL     1       2.999  13.715  18.809  0.00  0.00    +0.000 N 
ATOM     22  H   UNL     1       3.810  13.096  18.717  0.00  0.00    +0.000 HD
ATOM     23  H   UNL     1       2.922  14.378  18.036  0.00  0.00    +0.000 HD
ENDBRANCH  15  21
ENDBRANCH   2  11
BRANCH   1  24
ATOM     24  C   UNL     1      -0.334  11.305  21.294  0.00  0.00    +0.000 C 
BRANCH  24  25
ATOM     25  C   UNL     1       0.055   9.881  20.792  0.00  0.00    +0.000 C 
ATOM     26  O   UNL     1      -0.505   8.855  21.170  0.00  0.00    +0.000 OA
ATOM     27  N   UNL     1       1.110   9.825  19.900  0.00  0.00    +0.000 N 
ATOM     28  H   UNL     1       1.639  10.665  19.713  0.00  0.00    +0.000 HD
BRANCH  27  29
ATOM     29  C   UNL     1       1.412   8.612  19.175  0.00  0.00    +0.000 C 
ATOM     30  C   UNL     1       2.392   8.823  18.027  0.00  0.00    +0.000 C 
ATOM     31  C   UNL     1       2.867   7.412  17.711  0.00  0.00    +0.000 C 
ATOM     32  C   UNL     1       2.767   6.635  19.026  0.00  0.00    +0.000 C 
ATOM     33  C   UNL     1       2.109   7.571  20.034  0.00  0.00    +0.000 C 
ENDBRANCH  27  29
ENDBRANCH  24  25
BRANCH  24  34
ATOM     34  C   UNL     1      -1.379  11.368  22.437  0.00  0.00    +0.000 C 
BRANCH  34  36
ATOM     35  C   UNL     1      -3.056  12.989  23.423  0.00  0.00    +0.000 C 
ATOM     36  C   UNL     1      -1.586  12.737  23.106  0.00  0.00    +0.000 C 
ENDBRANCH  34  36
ENDBRANCH  24  34
ENDBRANCH   1  24
TORSDOF 9
ENDMDL
MODEL 4
REMARK VINA RESULT:      -6.0      7.947     10.411
REMARK  Name = 
REMARK  10 active torsions:
REMARK  status: ('A' for Active; 'I' for Inactive)
REMARK    1  A    between atoms: C_1  and  C_2
REMARK    2  A    between atoms: C_2  and  C_3
REMARK    3  A    between atoms: C_3  and  C_4
REMARK    4  A    between atoms: C_4  and  C_5
REMARK    5  A    between atoms: C_4  and  N_13
REMARK    6  A    between atoms: N_7  and  C_8
REMARK    7  A    between atoms: N_13  and  C_25
REMARK    8  A    between atoms: C_14  and  C_16
REMARK    9  A    between atoms: C_19  and  C_20
REMARK   10  A    between atoms: C_23  and  N_24
REMARK                            x       y       z     vdW  Elec       q    Type
REMARK                         _______ _______ _______ _____ _____    ______ ____
ROOT
ATOM      1  N   UNL     1       3.913   4.574  18.666  0.00  0.00    +0.000 N 
ATOM      2  C   UNL     1       5.330   4.394  18.515  0.00  0.00    +0.000 C 
ATOM      3  O   UNL     1       5.961   3.823  19.415  0.00  0.00    +0.000 OA
ENDROOT
BRANCH   1   4
ATOM      4  C   UNL     1       3.275   3.988  19.828  0.00  0.00    +0.000 A 
ATOM      5  C   UNL     1       2.404   4.737  20.637  0.00  0.00    +0.000 A 
ATOM      6  C   UNL     1       1.763   4.147  21.737  0.00  0.00    +0.000 A 
ATOM      7  C   UNL     1       1.960   2.798  22.008  0.00  0.00    +0.000 A 
ATOM      8  F   UNL     1       1.328   2.226  23.042  0.00  0.00    +0.000 F 
ATOM      9  C   UNL     1       2.810   2.037  21.217  0.00  0.00    +0.000 A 
ATOM     10  C   UNL     1       3.486   2.636  20.145  0.00  0.00    +0.000 A 
ENDBRANCH   1   4
BRANCH   2  11
ATOM     11  C   UNL     1       6.077   4.918  17.369  0.00  0.00    +0.000 A 
ATOM     12  S   UNL     1       7.027   6.330  17.416  0.00  0.00    +0.000 S 
ATOM     13  N   UNL     1       7.690   6.212  15.931  0.00  0.00    +0.000 NA
ATOM     14  C   UNL     1       7.034   5.259  15.253  0.00  0.00    +0.000 A 
ATOM     15  C   UNL     1       6.026   4.556  16.025  0.00  0.00    +0.000 A 
BRANCH  14  16
ATOM     16  C   UNL     1       7.404   5.032  13.850  0.00  0.00    +0.000 C 
ATOM     17  N   UNL     1       8.473   5.771  13.421  0.00  0.00    +0.000 N 
ATOM     18  O   UNL     1       6.839   4.244  13.102  0.00  0.00    +0.000 OA
ATOM     19  H   UNL     1       8.950   6.384  14.084  0.00  0.00    +0.000 HD
ATOM     20  H   UNL     1       8.849   5.636  12.497  0.00  0.00    +0.000 HD
ENDBRANCH  14  16
BRANCH  15  21
ATOM     21  N   UNL     1       5.184   3.627  15.507  0.00  0.00    +0.000 N 
ATOM     22  H   UNL     1       4.915   3.688  14.521  0.00  0.00    +0.000 HD
ATOM     23  H   UNL     1       4.461   3.198  16.086  0.00  0.00    +0.000 HD
ENDBRANCH  15  21
ENDBRANCH   2  11
BRANCH   1  24
ATOM     24  C   UNL     1       2.972   5.327  17.746  0.00  0.00    +0.000 C 
BRANCH  24  25
ATOM     25  C   UNL     1       3.007   6.860  18.031  0.00  0.00    +0.000 C 
ATOM     26  O   UNL     1       3.829   7.622  17.530  0.00  0.00    +0.000 OA
ATOM     27  N   UNL     1       2.062   7.326  18.926  0.00  0.00    +0.000 N 
ATOM     28  H   UNL     1       1.489   6.661  19.427  0.00  0.00    +0.000 HD
BRANCH  27  29
ATOM     29  C   UNL     1       1.825   8.743  19.093  0.00  0.00    +0.000 C 
ATOM     30  C   UNL     1       0.979   9.348  17.979  0.00  0.00    +0.000 C 
ATOM     31  C   UNL     1       0.524  10.675  18.571  0.00  0.00    +0.000 C 
ATOM     32  C   UNL     1       0.471  10.458  20.086  0.00  0.00    +0.000 C 
ATOM     33  C   UNL     1       1.027   9.062  20.344  0.00  0.00    +0.000 C 
ENDBRANCH  27  29
ENDBRANCH  24  25
BRANCH  24  34
ATOM     34  C   UNL     1       1.567   4.680  17.646  0.00  0.00    +0.000 C 
BRANCH  34  36
ATOM     35  C   UNL     1       0.514   2.514  18.425  0.00  0.00    +0.000 C 
ATOM     36  C   UNL     1       1.524   3.152  17.479  0.00  0.00    +0.000 C 
ENDBRANCH  34  36
ENDBRANCH  24  34
ENDBRANCH   1  24
TORSDOF 9
ENDMDL
MODEL 5
REMARK VINA RESULT:      -6.0      3.307      4.752
REMARK  Name = 
REMARK  10 active torsions:
REMARK  status: ('A' for Active; 'I' for Inactive)
REMARK    1  A    between atoms: C_1  and  C_2
REMARK    2  A    between atoms: C_2  and  C_3
REMARK    3  A    between atoms: C_3  and  C_4
REMARK    4  A    between atoms: C_4  and  C_5
REMARK    5  A    between atoms: C_4  and  N_13
REMARK    6  A    between atoms: N_7  and  C_8
REMARK    7  A    between atoms: N_13  and  C_25
REMARK    8  A    between atoms: C_14  and  C_16
REMARK    9  A    between atoms: C_19  and  C_20
REMARK   10  A    between atoms: C_23  and  N_24
REMARK                            x       y       z     vdW  Elec       q    Type
REMARK                         _______ _______ _______ _____ _____    ______ ____
ROOT
ATOM      1  N   UNL     1      -2.227  13.192  22.090  0.00  0.00    +0.000 N 
ATOM      2  C   UNL     1      -0.943  12.719  22.528  0.00  0.00    +0.000 C 
ATOM      3  O   UNL     1      -0.214  13.481  23.179  0.00  0.00    +0.000 OA
ENDROOT
BRANCH   1   4
ATOM      4  C   UNL     1      -2.645  14.513  22.518  0.00  0.00    +0.000 A 
ATOM      5  C   UNL     1      -3.265  14.713  23.764  0.00  0.00    +0.000 A 
ATOM      6  C   UNL     1      -3.629  16.002  24.183  0.00  0.00    +0.000 A 
ATOM      7  C   UNL     1      -3.341  17.097  23.376  0.00  0.00    +0.000 A 
ATOM      8  F   UNL     1      -3.663  18.331  23.786  0.00  0.00    +0.000 F 
ATOM      9  C   UNL     1      -2.722  16.923  22.145  0.00  0.00    +0.000 A 
ATOM     10  C   UNL     1      -2.398  15.631  21.706  0.00  0.00    +0.000 A 
ENDBRANCH   1   4
BRANCH   2  11
ATOM     11  C   UNL     1      -0.428  11.393  22.182  0.00  0.00    +0.000 A 
ATOM     12  S   UNL     1      -0.654  10.003  23.139  0.00  0.00    +0.000 S 
ATOM     13  N   UNL     1      -0.021   8.908  22.109  0.00  0.00    +0.000 NA
ATOM     14  C   UNL     1       0.611   9.570  21.129  0.00  0.00    +0.000 A 
ATOM     15  C   UNL     1       0.479  11.014  21.195  0.00  0.00    +0.000 A 
BRANCH  14  16
ATOM     16  C   UNL     1       1.336   8.784  20.123  0.00  0.00    +0.000 C 
ATOM     17  N   UNL     1       1.872   7.617  20.597  0.00  0.00    +0.000 N 
ATOM     18  O   UNL     1       1.457   9.104  18.947  0.00  0.00    +0.000 OA
ATOM     19  H   UNL     1       1.713   7.357  21.571  0.00  0.00    +0.000 HD
ATOM     20  H   UNL     1       2.328   6.974  19.970  0.00  0.00    +0.000 HD
ENDBRANCH  14  16
BRANCH  15  21
ATOM     21  N   UNL     1       1.118  11.873  20.363  0.00  0.00    +0.000 N 
ATOM     22  H   UNL     1       1.091  12.878  20.560  0.00  0.00    +0.000 HD
ATOM     23  H   UNL     1       1.197  11.672  19.364  0.00  0.00    +0.000 HD
ENDBRANCH  15  21
ENDBRANCH   2  11
BRANCH   1  24
ATOM     24  C   UNL     1      -3.227  12.472  21.206  0.00  0.00    +0.000 C 
BRANCH  24  25
ATOM     25  C   UNL     1      -2.752  12.446  19.720  0.00  0.00    +0.000 C 
ATOM     26  O   UNL     1      -1.754  13.039  19.319  0.00  0.00    +0.000 OA
ATOM     27  N   UNL     1      -3.550  11.730  18.847  0.00  0.00    +0.000 N 
ATOM     28  H   UNL     1      -4.435  11.369  19.174  0.00  0.00    +0.000 HD
BRANCH  27  29
ATOM     29  C   UNL     1      -3.102  11.422  17.507  0.00  0.00    +0.000 C 
ATOM     30  C   UNL     1      -2.471  10.041  17.384  0.00  0.00    +0.000 C 
ATOM     31  C   UNL     1      -2.479   9.787  15.883  0.00  0.00    +0.000 C 
ATOM     32  C   UNL     1      -3.672  10.574  15.335  0.00  0.00    +0.000 C 
ATOM     33  C   UNL     1      -4.240  11.371  16.504  0.00  0.00    +0.000 C 
ENDBRANCH  27  29
ENDBRANCH  24  25
BRANCH  24  34
ATOM     34  C   UNL     1      -4.691  12.918  21.450  0.00  0.00    +0.000 C 
BRANCH  34  36
ATOM     35  C   UNL     1      -6.009  15.044  21.063  0.00  0.00    +0.000 C 
ATOM     36  C   UNL     1      -5.305  13.863  20.405  0.00  0.00    +0.000 C 
ENDBRANCH  34  36
ENDBRANCH  24  34
ENDBRANCH   1  24
TORSDOF 9
ENDMDL
MODEL 6
REMARK VINA RESULT:      -5.9      0.817      1.187
REMARK  Name = 
REMARK  10 active torsions:
REMARK  status: ('A' for Active; 'I' for Inactive)
REMARK    1  A    between atoms: C_1  and  C_2
REMARK    2  A    between atoms: C_2  and  C_3
REMARK    3  A    between atoms: C_3  and  C_4
REMARK    4  A    between atoms: C_4  and  C_5
REMARK    5  A    between atoms: C_4  and  N_13
REMARK    6  A    between atoms: N_7  and  C_8
REMARK    7  A    between atoms: N_13  and  C_25
REMARK    8  A    between atoms: C_14  and  C_16
REMARK    9  A    between atoms: C_19  and  C_20
REMARK   10  A    between atoms: C_23  and  N_24
REMARK                            x       y       z     vdW  Elec       q    Type
REMARK                         _______ _______ _______ _____ _____    ______ ____
ROOT
ATOM      1  N   UNL     1      -1.597  13.964  21.554  0.00  0.00    +0.000 N 
ATOM      2  C   UNL     1      -1.221  15.350  21.519  0.00  0.00    +0.000 C 
ATOM      3  O   UNL     1      -1.971  16.187  22.040  0.00  0.00    +0.000 OA
ENDROOT
BRANCH   1   4
ATOM      4  C   UNL     1      -2.795  13.605  22.286  0.00  0.00    +0.000 A 
ATOM      5  C   UNL     1      -4.021  13.408  21.627  0.00  0.00    +0.000 A 
ATOM      6  C   UNL     1      -5.165  13.022  22.343  0.00  0.00    +0.000 A 
ATOM      7  C   UNL     1      -5.078  12.796  23.711  0.00  0.00    +0.000 A 
ATOM      8  F   UNL     1      -6.162  12.401  24.392  0.00  0.00    +0.000 F 
ATOM      9  C   UNL     1      -3.875  12.976  24.381  0.00  0.00    +0.000 A 
ATOM     10  C   UNL     1      -2.743  13.405  23.675  0.00  0.00    +0.000 A 
ENDBRANCH   1   4
BRANCH   2  11
ATOM     11  C   UNL     1      -0.018  15.828  20.833  0.00  0.00    +0.000 A 
ATOM     12  S   UNL     1       1.487  16.056  21.597  0.00  0.00    +0.000 S 
ATOM     13  N   UNL     1       2.371  16.392  20.269  0.00  0.00    +0.000 NA
ATOM     14  C   UNL     1       1.530  16.598  19.245  0.00  0.00    +0.000 A 
ATOM     15  C   UNL     1       0.131  16.375  19.561  0.00  0.00    +0.000 A 
BRANCH  14  16
ATOM     16  C   UNL     1       2.101  17.003  17.954  0.00  0.00    +0.000 C 
ATOM     17  N   UNL     1       3.303  16.419  17.661  0.00  0.00    +0.000 N 
ATOM     18  O   UNL     1       1.567  17.779  17.173  0.00  0.00    +0.000 OA
ATOM     19  H   UNL     1       3.698  15.741  18.314  0.00  0.00    +0.000 HD
ATOM     20  H   UNL     1       3.743  16.577  16.769  0.00  0.00    +0.000 HD
ENDBRANCH  14  16
BRANCH  15  21
ATOM     21  N   UNL     1      -0.889  16.621  18.702  0.00  0.00    +0.000 N 
ATOM     22  H   UNL     1      -0.884  16.183  17.776  0.00  0.00    +0.000 HD
ATOM     23  H   UNL     1      -1.371  17.521  18.707  0.00  0.00    +0.000 HD
ENDBRANCH  15  21
ENDBRANCH   2  11
BRANCH   1  24
ATOM     24  C   UNL     1      -0.888  12.796  20.896  0.00  0.00    +0.000 C 
BRANCH  24  25
ATOM     25  C   UNL     1      -1.205  12.727  19.370  0.00  0.00    +0.000 C 
ATOM     26  O   UNL     1      -0.638  13.421  18.531  0.00  0.00    +0.000 OA
ATOM     27  N   UNL     1      -2.205  11.847  19.003  0.00  0.00    +0.000 N 
ATOM     28  H   UNL     1      -2.747  11.392  19.724  0.00  0.00    +0.000 HD
BRANCH  27  29
ATOM     29  C   UNL     1      -2.429  11.506  17.616  0.00  0.00    +0.000 C 
ATOM     30  C   UNL     1      -1.999  10.087  17.266  0.00  0.00    +0.000 C 
ATOM     31  C   UNL     1      -2.699   9.829  15.938  0.00  0.00    +0.000 C 
ATOM     32  C   UNL     1      -3.966  10.688  15.963  0.00  0.00    +0.000 C 
ATOM     33  C   UNL     1      -3.899  11.524  17.236  0.00  0.00    +0.000 C 
ENDBRANCH  27  29
ENDBRANCH  24  25
BRANCH  24  34
ATOM     34  C   UNL     1      -1.033  11.471  21.687  0.00  0.00    +0.000 C 
BRANCH  34  36
ATOM     35  C   UNL     1      -0.247   9.086  22.007  0.00  0.00    +0.000 C 
ATOM     36  C   UNL     1       0.164  10.507  21.637  0.00  0.00    +0.000 C 
ENDBRANCH  34  36
ENDBRANCH  24  34
ENDBRANCH   1  24
TORSDOF 9
ENDMDL
MODEL 7
REMARK VINA RESULT:      -5.9      3.509      6.339
REMARK  Name = 
REMARK  10 active torsions:
REMARK  status: ('A' for Active; 'I' for Inactive)
REMARK    1  A    between atoms: C_1  and  C_2
REMARK    2  A    between atoms: C_2  and  C_3
REMARK    3  A    between atoms: C_3  and  C_4
REMARK    4  A    between atoms: C_4  and  C_5
REMARK    5  A    between atoms: C_4  and  N_13
REMARK    6  A    between atoms: N_7  and  C_8
REMARK    7  A    between atoms: N_13  and  C_25
REMARK    8  A    between atoms: C_14  and  C_16
REMARK    9  A    between atoms: C_19  and  C_20
REMARK   10  A    between atoms: C_23  and  N_24
REMARK                            x       y       z     vdW  Elec       q    Type
REMARK                         _______ _______ _______ _____ _____    ______ ____
ROOT
ATOM      1  N   UNL     1      -0.136  11.491  20.396  0.00  0.00    +0.000 N 
ATOM      2  C   UNL     1       0.687  10.376  20.775  0.00  0.00    +0.000 C 
ATOM      3  O   UNL     1       0.961  10.213  21.972  0.00  0.00    +0.000 OA
ENDROOT
BRANCH   1   4
ATOM      4  C   UNL     1      -0.685  12.318  21.453  0.00  0.00    +0.000 A 
ATOM      5  C   UNL     1      -1.833  11.925  22.163  0.00  0.00    +0.000 A 
ATOM      6  C   UNL     1      -2.332  12.716  23.210  0.00  0.00    +0.000 A 
ATOM      7  C   UNL     1      -1.664  13.878  23.575  0.00  0.00    +0.000 A 
ATOM      8  F   UNL     1      -2.123  14.620  24.592  0.00  0.00    +0.000 F 
ATOM      9  C   UNL     1      -0.523  14.281  22.893  0.00  0.00    +0.000 A 
ATOM     10  C   UNL     1      -0.050  13.516  21.818  0.00  0.00    +0.000 A 
ENDBRANCH   1   4
BRANCH   2  11
ATOM     11  C   UNL     1       1.273   9.457  19.797  0.00  0.00    +0.000 A 
ATOM     12  S   UNL     1       1.239   9.708  18.113  0.00  0.00    +0.000 S 
ATOM     13  N   UNL     1       2.196   8.462  17.674  0.00  0.00    +0.000 NA
ATOM     14  C   UNL     1       2.365   7.667  18.740  0.00  0.00    +0.000 A 
ATOM     15  C   UNL     1       1.762   8.163  19.964  0.00  0.00    +0.000 A 
BRANCH  14  16
ATOM     16  C   UNL     1       3.129   6.426  18.560  0.00  0.00    +0.000 C 
ATOM     17  N   UNL     1       4.102   6.496  17.601  0.00  0.00    +0.000 N 
ATOM     18  O   UNL     1       2.951   5.402  19.207  0.00  0.00    +0.000 OA
ATOM     19  H   UNL     1       4.255   7.380  17.112  0.00  0.00    +0.000 HD
ATOM     20  H   UNL     1       4.727   5.721  17.450  0.00  0.00    +0.000 HD
ENDBRANCH  14  16
BRANCH  15  21
ATOM     21  N   UNL     1       1.731   7.471  21.129  0.00  0.00    +0.000 N 
ATOM     22  H   UNL     1       2.358   7.743  21.893  0.00  0.00    +0.000 HD
ATOM     23  H   UNL     1       1.511   6.473  21.139  0.00  0.00    +0.000 HD
ENDBRANCH  15  21
ENDBRANCH   2  11
BRANCH   1  24
ATOM     24  C   UNL     1      -0.508  11.934  18.994  0.00  0.00    +0.000 C 
BRANCH  24  25
ATOM     25  C   UNL     1       0.156  13.299  18.637  0.00  0.00    +0.000 C 
ATOM     26  O   UNL     1      -0.483  14.322  18.406  0.00  0.00    +0.000 OA
ATOM     27  N   UNL     1       1.536  13.294  18.560  0.00  0.00    +0.000 N 
ATOM     28  H   UNL     1       2.028  12.414  18.619  0.00  0.00    +0.000 HD
BRANCH  27  29
ATOM     29  C   UNL     1       2.285  14.529  18.480  0.00  0.00    +0.000 C 
ATOM     30  C   UNL     1       2.412  15.245  19.820  0.00  0.00    +0.000 C 
ATOM     31  C   UNL     1       3.547  16.231  19.581  0.00  0.00    +0.000 C 
ATOM     32  C   UNL     1       4.440  15.586  18.517  0.00  0.00    +0.000 C 
ATOM     33  C   UNL     1       3.731  14.314  18.067  0.00  0.00    +0.000 C 
ENDBRANCH  27  29
ENDBRANCH  24  25
BRANCH  24  34
ATOM     34  C   UNL     1      -2.023  11.810  18.696  0.00  0.00    +0.000 C 
BRANCH  34  36
ATOM     35  C   UNL     1      -2.563   9.893  17.133  0.00  0.00    +0.000 C 
ATOM     36  C   UNL     1      -2.412  11.404  17.265  0.00  0.00    +0.000 C 
ENDBRANCH  34  36
ENDBRANCH  24  34
ENDBRANCH   1  24
TORSDOF 9
ENDMDL
MODEL 8
REMARK VINA RESULT:      -5.9      2.800      4.494
REMARK  Name = 
REMARK  10 active torsions:
REMARK  status: ('A' for Active; 'I' for Inactive)
REMARK    1  A    between atoms: C_1  and  C_2
REMARK    2  A    between atoms: C_2  and  C_3
REMARK    3  A    between atoms: C_3  and  C_4
REMARK    4  A    between atoms: C_4  and  C_5
REMARK    5  A    between atoms: C_4  and  N_13
REMARK    6  A    between atoms: N_7  and  C_8
REMARK    7  A    between atoms: N_13  and  C_25
REMARK    8  A    between atoms: C_14  and  C_16
REMARK    9  A    between atoms: C_19  and  C_20
REMARK   10  A    between atoms: C_23  and  N_24
REMARK                            x       y       z     vdW  Elec       q    Type
REMARK                         _______ _______ _______ _____ _____    ______ ____
ROOT
ATOM      1  N   UNL     1      -0.342  12.147  19.553  0.00  0.00    +0.000 N 
ATOM      2  C   UNL     1       0.183  13.443  19.222  0.00  0.00    +0.000 C 
ATOM      3  O   UNL     1      -0.416  14.137  18.389  0.00  0.00    +0.000 OA
ENDROOT
BRANCH   1   4
ATOM      4  C   UNL     1      -1.607  11.758  18.962  0.00  0.00    +0.000 A 
ATOM      5  C   UNL     1      -2.826  12.252  19.459  0.00  0.00    +0.000 A 
ATOM      6  C   UNL     1      -4.042  11.898  18.853  0.00  0.00    +0.000 A 
ATOM      7  C   UNL     1      -4.040  11.081  17.728  0.00  0.00    +0.000 A 
ATOM      8  F   UNL     1      -5.197  10.764  17.133  0.00  0.00    +0.000 F 
ATOM      9  C   UNL     1      -2.847  10.588  17.216  0.00  0.00    +0.000 A 
ATOM     10  C   UNL     1      -1.636  10.905  17.847  0.00  0.00    +0.000 A 
ENDBRANCH   1   4
BRANCH   2  11
ATOM     11  C   UNL     1       1.437  13.955  19.778  0.00  0.00    +0.000 A 
ATOM     12  S   UNL     1       1.603  14.554  21.364  0.00  0.00    +0.000 S 
ATOM     13  N   UNL     1       3.221  14.755  21.367  0.00  0.00    +0.000 NA
ATOM     14  C   UNL     1       3.662  14.627  20.108  0.00  0.00    +0.000 A 
ATOM     15  C   UNL     1       2.640  14.260  19.145  0.00  0.00    +0.000 A 
BRANCH  14  16
ATOM     16  C   UNL     1       5.090  14.855  19.851  0.00  0.00    +0.000 C 
ATOM     17  N   UNL     1       5.871  14.861  20.975  0.00  0.00    +0.000 N 
ATOM     18  O   UNL     1       5.579  15.011  18.740  0.00  0.00    +0.000 OA
ATOM     19  H   UNL     1       5.438  14.681  21.882  0.00  0.00    +0.000 HD
ATOM     20  H   UNL     1       6.873  14.938  20.900  0.00  0.00    +0.000 HD
ENDBRANCH  14  16
BRANCH  15  21
ATOM     21  N   UNL     1       2.851  14.175  17.809  0.00  0.00    +0.000 N 
ATOM     22  H   UNL     1       2.048  14.150  17.173  0.00  0.00    +0.000 HD
ATOM     23  H   UNL     1       3.660  13.673  17.438  0.00  0.00    +0.000 HD
ENDBRANCH  15  21
ENDBRANCH   2  11
BRANCH   1  24
ATOM     24  C   UNL     1       0.278  11.101  20.459  0.00  0.00    +0.000 C 
BRANCH  24  25
ATOM     25  C   UNL     1       1.196  10.129  19.655  0.00  0.00    +0.000 C 
ATOM     26  O   UNL     1       1.877  10.481  18.695  0.00  0.00    +0.000 OA
ATOM     27  N   UNL     1       1.180   8.810  20.067  0.00  0.00    +0.000 N 
ATOM     28  H   UNL     1       0.511   8.521  20.766  0.00  0.00    +0.000 HD
BRANCH  27  29
ATOM     29  C   UNL     1       2.155   7.861  19.576  0.00  0.00    +0.000 C 
ATOM     30  C   UNL     1       2.085   6.508  20.272  0.00  0.00    +0.000 C 
ATOM     31  C   UNL     1       2.865   5.595  19.337  0.00  0.00    +0.000 C 
ATOM     32  C   UNL     1       2.699   6.193  17.938  0.00  0.00    +0.000 C 
ATOM     33  C   UNL     1       1.947   7.508  18.114  0.00  0.00    +0.000 C 
ENDBRANCH  27  29
ENDBRANCH  24  25
BRANCH  24  34
ATOM     34  C   UNL     1      -0.744  10.442  21.419  0.00  0.00    +0.000 C 
BRANCH  34  36
ATOM     35  C   UNL     1      -2.084  11.830  23.059  0.00  0.00    +0.000 C 
ATOM     36  C   UNL     1      -0.815  11.013  22.845  0.00  0.00    +0.000 C 
ENDBRANCH  34  36
ENDBRANCH  24  34
ENDBRANCH   1  24
TORSDOF 9
ENDMDL
MODEL 9
REMARK VINA RESULT:      -5.9      3.365      5.019
REMARK  Name = 
REMARK  10 active torsions:
REMARK  status: ('A' for Active; 'I' for Inactive)
REMARK    1  A    between atoms: C_1  and  C_2
REMARK    2  A    between atoms: C_2  and  C_3
REMARK    3  A    between atoms: C_3  and  C_4
REMARK    4  A    between atoms: C_4  and  C_5
REMARK    5  A    between atoms: C_4  and  N_13
REMARK    6  A    between atoms: N_7  and  C_8
REMARK    7  A    between atoms: N_13  and  C_25
REMARK    8  A    between atoms: C_14  and  C_16
REMARK    9  A    between atoms: C_19  and  C_20
REMARK   10  A    between atoms: C_23  and  N_24
REMARK                            x       y       z     vdW  Elec       q    Type
REMARK                         _______ _______ _______ _____ _____    ______ ____
ROOT
ATOM      1  N   UNL     1       0.861  10.968  19.645  0.00  0.00    +0.000 N 
ATOM      2  C   UNL     1       1.588  12.128  19.211  0.00  0.00    +0.000 C 
ATOM      3  O   UNL     1       2.647  11.973  18.587  0.00  0.00    +0.000 OA
ENDROOT
BRANCH   1   4
ATOM      4  C   UNL     1       1.358   9.667  19.243  0.00  0.00    +0.000 A 
ATOM      5  C   UNL     1       1.722   9.406  17.911  0.00  0.00    +0.000 A 
ATOM      6  C   UNL     1       2.239   8.154  17.543  0.00  0.00    +0.000 A 
ATOM      7  C   UNL     1       2.429   7.174  18.511  0.00  0.00    +0.000 A 
ATOM      8  F   UNL     1       2.948   5.988  18.167  0.00  0.00    +0.000 F 
ATOM      9  C   UNL     1       2.084   7.414  19.834  0.00  0.00    +0.000 A 
ATOM     10  C   UNL     1       1.526   8.648  20.195  0.00  0.00    +0.000 A 
ENDBRANCH   1   4
BRANCH   2  11
ATOM     11  C   UNL     1       1.166  13.493  19.532  0.00  0.00    +0.000 A 
ATOM     12  S   UNL     1       1.575  14.303  20.973  0.00  0.00    +0.000 S 
ATOM     13  N   UNL     1       0.971  15.769  20.594  0.00  0.00    +0.000 NA
ATOM     14  C   UNL     1       0.219  15.642  19.491  0.00  0.00    +0.000 A 
ATOM     15  C   UNL     1       0.231  14.314  18.905  0.00  0.00    +0.000 A 
BRANCH  14  16
ATOM     16  C   UNL     1      -0.501  16.825  19.007  0.00  0.00    +0.000 C 
ATOM     17  N   UNL     1      -0.819  17.731  19.982  0.00  0.00    +0.000 N 
ATOM     18  O   UNL     1      -0.795  17.028  17.835  0.00  0.00    +0.000 OA
ATOM     19  H   UNL     1      -0.519  17.553  20.942  0.00  0.00    +0.000 HD
ATOM     20  H   UNL     1      -1.251  18.608  19.743  0.00  0.00    +0.000 HD
ENDBRANCH  14  16
BRANCH  15  21
ATOM     21  N   UNL     1      -0.534  13.944  17.848  0.00  0.00    +0.000 N 
ATOM     22  H   UNL     1      -1.549  13.867  17.964  0.00  0.00    +0.000 HD
ATOM     23  H   UNL     1      -0.171  13.305  17.139  0.00  0.00    +0.000 HD
ENDBRANCH  15  21
ENDBRANCH   2  11
BRANCH   1  24
ATOM     24  C   UNL     1      -0.390  10.926  20.501  0.00  0.00    +0.000 C 
BRANCH  24  25
ATOM     25  C   UNL     1      -1.624  11.489  19.729  0.00  0.00    +0.000 C 
ATOM     26  O   UNL     1      -2.284  12.448  20.118  0.00  0.00    +0.000 OA
ATOM     27  N   UNL     1      -1.965  10.816  18.571  0.00  0.00    +0.000 N 
ATOM     28  H   UNL     1      -1.493   9.952  18.347  0.00  0.00    +0.000 HD
BRANCH  27  29
ATOM     29  C   UNL     1      -2.923  11.370  17.639  0.00  0.00    +0.000 C 
ATOM     30  C   UNL     1      -2.791  10.804  16.231  0.00  0.00    +0.000 C 
ATOM     31  C   UNL     1      -4.111  11.190  15.576  0.00  0.00    +0.000 C 
ATOM     32  C   UNL     1      -5.134  11.255  16.713  0.00  0.00    +0.000 C 
ATOM     33  C   UNL     1      -4.359  11.043  18.008  0.00  0.00    +0.000 C 
ENDBRANCH  27  29
ENDBRANCH  24  25
BRANCH  24  34
ATOM     34  C   UNL     1      -0.169  11.476  21.933  0.00  0.00    +0.000 C 
BRANCH  34  36
ATOM     35  C   UNL     1      -0.161   9.406  23.390  0.00  0.00    +0.000 C 
ATOM     36  C   UNL     1      -0.867  10.720  23.075  0.00  0.00    +0.000 C 
ENDBRANCH  34  36
ENDBRANCH  24  34
ENDBRANCH   1  24
TORSDOF 9
ENDMDL
