MODEL 1
REMARK VINA RESULT:      -7.4      0.000      0.000
REMARK  Name = 
REMARK  7 active torsions:
REMARK  status: ('A' for Active; 'I' for Inactive)
REMARK    1  A    between atoms: C_1  and  C_2
REMARK    2  A    between atoms: C_2  and  O_3
REMARK    3  A    between atoms: O_3  and  C_4
REMARK    4  A    between atoms: C_4  and  C_6
REMARK    5  A    between atoms: C_7  and  C_8
REMARK    6  A    between atoms: C_10  and  C_11
REMARK    7  A    between atoms: C_22  and  C_23
REMARK                            x       y       z     vdW  Elec       q    Type
REMARK                         _______ _______ _______ _____ _____    ______ ____
ROOT
ATOM      1  C   UNL     1       3.202   3.442  20.215  0.00  0.00    +0.000 A 
ATOM      2  C   UNL     1       4.255   2.557  19.977  0.00  0.00    +0.000 A 
ATOM      3  C   UNL     1       4.399   1.078  20.096  0.00  0.00    +0.000 C 
ATOM      4  N   UNL     1       5.342   3.299  19.574  0.00  0.00    +0.000 N 
ATOM      5  C   UNL     1       5.017   4.627  19.514  0.00  0.00    +0.000 A 
ATOM      6  C   UNL     1       3.713   4.768  19.941  0.00  0.00    +0.000 A 
ATOM      7  C   UNL     1       2.970   6.051  20.100  0.00  0.00    +0.000 C 
ATOM      8  H   UNL     1       6.252   2.917  19.348  0.00  0.00    +0.000 HD
ENDROOT
BRANCH   5   9
ATOM      9  C   UNL     1       6.001   5.552  19.110  0.00  0.00    +0.000 C 
ATOM     10  C   UNL     1       6.430   5.651  17.843  0.00  0.00    +0.000 C 
ATOM     11  C   UNL     1       7.441   6.706  17.482  0.00  0.00    +0.000 C 
ATOM     12  O   UNL     1       7.937   7.540  18.213  0.00  0.00    +0.000 OA
ATOM     13  N   UNL     1       7.688   6.518  16.132  0.00  0.00    +0.000 N 
ATOM     14  C   UNL     1       6.930   5.468  15.620  0.00  0.00    +0.000 A 
ATOM     15  C   UNL     1       6.938   5.009  14.318  0.00  0.00    +0.000 A 
ATOM     16  C   UNL     1       6.093   3.941  14.010  0.00  0.00    +0.000 A 
ATOM     17  C   UNL     1       5.262   3.377  14.994  0.00  0.00    +0.000 A 
ATOM     18  C   UNL     1       5.272   3.860  16.308  0.00  0.00    +0.000 A 
ATOM     19  C   UNL     1       6.124   4.905  16.617  0.00  0.00    +0.000 A 
ATOM     20  H   UNL     1       8.329   7.094  15.610  0.00  0.00    +0.000 HD
ENDBRANCH   5   9
BRANCH   1  21
ATOM     21  C   UNL     1       1.848   3.155  20.703  0.00  0.00    +0.000 C 
ATOM     22  O   UNL     1       1.623   2.685  21.813  0.00  0.00    +0.000 OA
BRANCH  21  23
ATOM     23  O   UNL     1       0.877   3.389  19.777  0.00  0.00    +0.000 OA
BRANCH  23  25
ATOM     24  C   UNL     1       1.372   3.873  17.493  0.00  0.00    +0.000 C 
ATOM     25  C   UNL     1       1.090   2.772  18.502  0.00  0.00    +0.000 C 
ENDBRANCH  23  25
ENDBRANCH  21  23
ENDBRANCH   1  21
TORSDOF 4
ENDMDL
MODEL 2
REMARK VINA RESULT:      -7.2      1.024      1.674
REMARK  Name = 
REMARK  7 active torsions:
REMARK  status: ('A' for Active; 'I' for Inactive)
REMARK    1  A    between atoms: C_1  and  C_2
REMARK    2  A    between atoms: C_2  and  O_3
REMARK    3  A    between atoms: O_3  and  C_4
REMARK    4  A    between atoms: C_4  and  C_6
REMARK    5  A    between atoms: C_7  and  C_8
REMARK    6  A    between atoms: C_10  and  C_11
REMARK    7  A    between atoms: C_22  and  C_23
REMARK                            x       y       z     vdW  Elec       q    Type
REMARK                         _______ _______ _______ _____ _____    ______ ____
ROOT
ATOM      1  C   UNL     1       2.610   3.431  18.892  0.00  0.00    +0.000 A 
ATOM      2  C   UNL     1       3.662   2.513  18.887  0.00  0.00    +0.000 A 
ATOM      3  C   UNL     1       3.729   1.030  19.018  0.00  0.00    +0.000 C 
ATOM      4  N   UNL     1       4.835   3.220  18.747  0.00  0.00    +0.000 N 
ATOM      5  C   UNL     1       4.573   4.558  18.631  0.00  0.00    +0.000 A 
ATOM      6  C   UNL     1       3.211   4.740  18.755  0.00  0.00    +0.000 A 
ATOM      7  C   UNL     1       2.492   6.046  18.757  0.00  0.00    +0.000 C 
ATOM      8  H   UNL     1       5.760   2.809  18.728  0.00  0.00    +0.000 HD
ENDROOT
BRANCH   5   9
ATOM      9  C   UNL     1       5.652   5.452  18.469  0.00  0.00    +0.000 C 
ATOM     10  C   UNL     1       6.294   5.613  17.303  0.00  0.00    +0.000 C 
ATOM     11  C   UNL     1       7.397   6.632  17.199  0.00  0.00    +0.000 C 
ATOM     12  O   UNL     1       7.797   7.384  18.064  0.00  0.00    +0.000 OA
ATOM     13  N   UNL     1       7.862   6.523  15.898  0.00  0.00    +0.000 N 
ATOM     14  C   UNL     1       7.158   5.555  15.187  0.00  0.00    +0.000 A 
ATOM     15  C   UNL     1       7.367   5.187  13.874  0.00  0.00    +0.000 A 
ATOM     16  C   UNL     1       6.541   4.192  13.347  0.00  0.00    +0.000 A 
ATOM     17  C   UNL     1       5.531   3.609  14.132  0.00  0.00    +0.000 A 
ATOM     18  C   UNL     1       5.337   4.000  15.462  0.00  0.00    +0.000 A 
ATOM     19  C   UNL     1       6.169   4.972  15.989  0.00  0.00    +0.000 A 
ATOM     20  H   UNL     1       8.607   7.097  15.537  0.00  0.00    +0.000 HD
ENDBRANCH   5   9
BRANCH   1  21
ATOM     21  C   UNL     1       1.173   3.186  19.058  0.00  0.00    +0.000 C 
ATOM     22  O   UNL     1       0.495   2.598  18.224  0.00  0.00    +0.000 OA
BRANCH  21  23
ATOM     23  O   UNL     1       0.657   3.741  20.190  0.00  0.00    +0.000 OA
BRANCH  23  25
ATOM     24  C   UNL     1       1.425   2.345  21.965  0.00  0.00    +0.000 C 
ATOM     25  C   UNL     1       1.524   3.720  21.329  0.00  0.00    +0.000 C 
ENDBRANCH  23  25
ENDBRANCH  21  23
ENDBRANCH   1  21
TORSDOF 4
ENDMDL
MODEL 3
REMARK VINA RESULT:      -7.0      2.548      6.096
REMARK  Name = 
REMARK  7 active torsions:
REMARK  status: ('A' for Active; 'I' for Inactive)
REMARK    1  A    between atoms: C_1  and  C_2
REMARK    2  A    between atoms: C_2  and  O_3
REMARK    3  A    between atoms: O_3  and  C_4
REMARK    4  A    between atoms: C_4  and  C_6
REMARK    5  A    between atoms: C_7  and  C_8
REMARK    6  A    between atoms: C_10  and  C_11
REMARK    7  A    between atoms: C_22  and  C_23
REMARK                            x       y       z     vdW  Elec       q    Type
REMARK                         _______ _______ _______ _____ _____    ______ ____
ROOT
ATOM      1  C   UNL     1       6.518   5.343  16.092  0.00  0.00    +0.000 A 
ATOM      2  C   UNL     1       6.960   5.038  17.381  0.00  0.00    +0.000 A 
ATOM      3  C   UNL     1       8.123   4.272  17.912  0.00  0.00    +0.000 C 
ATOM      4  N   UNL     1       6.062   5.583  18.271  0.00  0.00    +0.000 N 
ATOM      5  C   UNL     1       5.075   6.253  17.602  0.00  0.00    +0.000 A 
ATOM      6  C   UNL     1       5.295   6.099  16.249  0.00  0.00    +0.000 A 
ATOM      7  C   UNL     1       4.425   6.609  15.150  0.00  0.00    +0.000 C 
ATOM      8  H   UNL     1       6.125   5.503  19.279  0.00  0.00    +0.000 HD
ENDROOT
BRANCH   5   9
ATOM      9  C   UNL     1       4.060   6.892  18.344  0.00  0.00    +0.000 C 
ATOM     10  C   UNL     1       3.137   6.217  19.044  0.00  0.00    +0.000 C 
ATOM     11  C   UNL     1       2.123   6.976  19.858  0.00  0.00    +0.000 C 
ATOM     12  O   UNL     1       2.030   8.179  19.994  0.00  0.00    +0.000 OA
ATOM     13  N   UNL     1       1.314   6.001  20.419  0.00  0.00    +0.000 N 
ATOM     14  C   UNL     1       1.726   4.724  20.047  0.00  0.00    +0.000 A 
ATOM     15  C   UNL     1       1.139   3.532  20.419  0.00  0.00    +0.000 A 
ATOM     16  C   UNL     1       1.716   2.355  19.937  0.00  0.00    +0.000 A 
ATOM     17  C   UNL     1       2.858   2.400  19.118  0.00  0.00    +0.000 A 
ATOM     18  C   UNL     1       3.436   3.622  18.755  0.00  0.00    +0.000 A 
ATOM     19  C   UNL     1       2.852   4.788  19.217  0.00  0.00    +0.000 A 
ATOM     20  H   UNL     1       0.541   6.219  21.028  0.00  0.00    +0.000 HD
ENDBRANCH   5   9
BRANCH   1  21
ATOM     21  C   UNL     1       7.099   4.955  14.802  0.00  0.00    +0.000 C 
ATOM     22  O   UNL     1       7.947   5.625  14.222  0.00  0.00    +0.000 OA
BRANCH  21  23
ATOM     23  O   UNL     1       6.552   3.822  14.281  0.00  0.00    +0.000 OA
BRANCH  23  25
ATOM     24  C   UNL     1       5.119   3.525  12.397  0.00  0.00    +0.000 C 
ATOM     25  C   UNL     1       6.551   3.749  12.850  0.00  0.00    +0.000 C 
ENDBRANCH  23  25
ENDBRANCH  21  23
ENDBRANCH   1  21
TORSDOF 4
ENDMDL
MODEL 4
REMARK VINA RESULT:      -6.9      2.611      6.427
REMARK  Name = 
REMARK  7 active torsions:
REMARK  status: ('A' for Active; 'I' for Inactive)
REMARK    1  A    between atoms: C_1  and  C_2
REMARK    2  A    between atoms: C_2  and  O_3
REMARK    3  A    between atoms: O_3  and  C_4
REMARK    4  A    between atoms: C_4  and  C_6
REMARK    5  A    between atoms: C_7  and  C_8
REMARK    6  A    between atoms: C_10  and  C_11
REMARK    7  A    between atoms: C_22  and  C_23
REMARK                            x       y       z     vdW  Elec       q    Type
REMARK                         _______ _______ _______ _____ _____    ______ ____
ROOT
ATOM      1  C   UNL     1       6.241   5.315  16.297  0.00  0.00    +0.000 A 
ATOM      2  C   UNL     1       6.664   6.344  17.140  0.00  0.00    +0.000 A 
ATOM      3  C   UNL     1       7.688   7.419  17.013  0.00  0.00    +0.000 C 
ATOM      4  N   UNL     1       5.942   6.251  18.309  0.00  0.00    +0.000 N 
ATOM      5  C   UNL     1       5.049   5.217  18.236  0.00  0.00    +0.000 A 
ATOM      6  C   UNL     1       5.226   4.584  17.023  0.00  0.00    +0.000 A 
ATOM      7  C   UNL     1       4.509   3.364  16.551  0.00  0.00    +0.000 C 
ATOM      8  H   UNL     1       6.053   6.863  19.108  0.00  0.00    +0.000 HD
ENDROOT
BRANCH   5   9
ATOM      9  C   UNL     1       4.206   4.964  19.338  0.00  0.00    +0.000 C 
ATOM     10  C   UNL     1       3.193   5.773  19.679  0.00  0.00    +0.000 C 
ATOM     11  C   UNL     1       2.303   5.401  20.834  0.00  0.00    +0.000 C 
ATOM     12  O   UNL     1       2.365   4.406  21.528  0.00  0.00    +0.000 OA
ATOM     13  N   UNL     1       1.397   6.443  20.938  0.00  0.00    +0.000 N 
ATOM     14  C   UNL     1       1.625   7.412  19.965  0.00  0.00    +0.000 A 
ATOM     15  C   UNL     1       0.914   8.582  19.789  0.00  0.00    +0.000 A 
ATOM     16  C   UNL     1       1.305   9.419  18.742  0.00  0.00    +0.000 A 
ATOM     17  C   UNL     1       2.374   9.063  17.900  0.00  0.00    +0.000 A 
ATOM     18  C   UNL     1       3.080   7.870  18.099  0.00  0.00    +0.000 A 
ATOM     19  C   UNL     1       2.704   7.051  19.148  0.00  0.00    +0.000 A 
ATOM     20  H   UNL     1       0.665   6.462  21.631  0.00  0.00    +0.000 HD
ENDBRANCH   5   9
BRANCH   1  21
ATOM     21  C   UNL     1       6.730   4.959  14.960  0.00  0.00    +0.000 C 
ATOM     22  O   UNL     1       7.871   5.199  14.580  0.00  0.00    +0.000 OA
BRANCH  21  23
ATOM     23  O   UNL     1       5.775   4.406  14.163  0.00  0.00    +0.000 OA
BRANCH  23  25
ATOM     24  C   UNL     1       5.064   3.358  12.140  0.00  0.00    +0.000 C 
ATOM     25  C   UNL     1       6.263   3.776  12.973  0.00  0.00    +0.000 C 
ENDBRANCH  23  25
ENDBRANCH  21  23
ENDBRANCH   1  21
TORSDOF 4
ENDMDL
MODEL 5
REMARK VINA RESULT:      -6.7      4.609      7.184
REMARK  Name = 
REMARK  7 active torsions:
REMARK  status: ('A' for Active; 'I' for Inactive)
REMARK    1  A    between atoms: C_1  and  C_2
REMARK    2  A    between atoms: C_2  and  O_3
REMARK    3  A    between atoms: O_3  and  C_4
REMARK    4  A    between atoms: C_4  and  C_6
REMARK    5  A    between atoms: C_7  and  C_8
REMARK    6  A    between atoms: C_10  and  C_11
REMARK    7  A    between atoms: C_22  and  C_23
REMARK                            x       y       z     vdW  Elec       q    Type
REMARK                         _______ _______ _______ _____ _____    ______ ____
ROOT
ATOM      1  C   UNL     1       2.492   5.703  18.514  0.00  0.00    +0.000 A 
ATOM      2  C   UNL     1       3.036   6.931  18.133  0.00  0.00    +0.000 A 
ATOM      3  C   UNL     1       3.826   7.382  16.953  0.00  0.00    +0.000 C 
ATOM      4  N   UNL     1       2.746   7.842  19.124  0.00  0.00    +0.000 N 
ATOM      5  C   UNL     1       2.010   7.251  20.114  0.00  0.00    +0.000 A 
ATOM      6  C   UNL     1       1.862   5.916  19.798  0.00  0.00    +0.000 A 
ATOM      7  C   UNL     1       1.185   4.882  20.632  0.00  0.00    +0.000 C 
ATOM      8  H   UNL     1       3.033   8.814  19.119  0.00  0.00    +0.000 HD
ENDROOT
BRANCH   5   9
ATOM      9  C   UNL     1       1.604   8.028  21.219  0.00  0.00    +0.000 C 
ATOM     10  C   UNL     1       0.745   9.052  21.112  0.00  0.00    +0.000 C 
ATOM     11  C   UNL     1       0.317   9.794  22.350  0.00  0.00    +0.000 C 
ATOM     12  O   UNL     1       0.643   9.571  23.498  0.00  0.00    +0.000 OA
ATOM     13  N   UNL     1      -0.530  10.790  21.895  0.00  0.00    +0.000 N 
ATOM     14  C   UNL     1      -0.679  10.737  20.511  0.00  0.00    +0.000 A 
ATOM     15  C   UNL     1      -1.442  11.584  19.734  0.00  0.00    +0.000 A 
ATOM     16  C   UNL     1      -1.459  11.351  18.358  0.00  0.00    +0.000 A 
ATOM     17  C   UNL     1      -0.733  10.283  17.802  0.00  0.00    +0.000 A 
ATOM     18  C   UNL     1       0.034   9.436  18.611  0.00  0.00    +0.000 A 
ATOM     19  C   UNL     1       0.065   9.679  19.973  0.00  0.00    +0.000 A 
ATOM     20  H   UNL     1      -0.980  11.447  22.512  0.00  0.00    +0.000 HD
ENDBRANCH   5   9
BRANCH   1  21
ATOM     21  C   UNL     1       2.565   4.410  17.825  0.00  0.00    +0.000 C 
ATOM     22  O   UNL     1       1.578   3.834  17.380  0.00  0.00    +0.000 OA
BRANCH  21  23
ATOM     23  O   UNL     1       3.819   3.880  17.796  0.00  0.00    +0.000 OA
BRANCH  23  25
ATOM     24  C   UNL     1       3.865   2.225  19.514  0.00  0.00    +0.000 C 
ATOM     25  C   UNL     1       4.385   3.584  19.077  0.00  0.00    +0.000 C 
ENDBRANCH  23  25
ENDBRANCH  21  23
ENDBRANCH   1  21
TORSDOF 4
ENDMDL
MODEL 6
REMARK VINA RESULT:      -6.6      2.327      6.310
REMARK  Name = 
REMARK  7 active torsions:
REMARK  status: ('A' for Active; 'I' for Inactive)
REMARK    1  A    between atoms: C_1  and  C_2
REMARK    2  A    between atoms: C_2  and  O_3
REMARK    3  A    between atoms: O_3  and  C_4
REMARK    4  A    between atoms: C_4  and  C_6
REMARK    5  A    between atoms: C_7  and  C_8
REMARK    6  A    between atoms: C_10  and  C_11
REMARK    7  A    between atoms: C_22  and  C_23
REMARK                            x       y       z     vdW  Elec       q    Type
REMARK                         _______ _______ _______ _____ _____    ______ ____
ROOT
ATOM      1  C   UNL     1       5.691   4.277  16.432  0.00  0.00    +0.000 A 
ATOM      2  C   UNL     1       6.665   4.307  17.432  0.00  0.00    +0.000 A 
ATOM      3  C   UNL     1       8.118   4.637  17.439  0.00  0.00    +0.000 C 
ATOM      4  N   UNL     1       6.067   3.917  18.609  0.00  0.00    +0.000 N 
ATOM      5  C   UNL     1       4.737   3.667  18.409  0.00  0.00    +0.000 A 
ATOM      6  C   UNL     1       4.467   3.839  17.067  0.00  0.00    +0.000 A 
ATOM      7  C   UNL     1       3.157   3.606  16.393  0.00  0.00    +0.000 C 
ATOM      8  H   UNL     1       6.543   3.832  19.499  0.00  0.00    +0.000 HD
ENDROOT
BRANCH   5   9
ATOM      9  C   UNL     1       3.946   3.263  19.504  0.00  0.00    +0.000 C 
ATOM     10  C   UNL     1       3.047   4.067  20.088  0.00  0.00    +0.000 C 
ATOM     11  C   UNL     1       2.200   3.539  21.215  0.00  0.00    +0.000 C 
ATOM     12  O   UNL     1       2.204   2.419  21.684  0.00  0.00    +0.000 OA
ATOM     13  N   UNL     1       1.415   4.611  21.606  0.00  0.00    +0.000 N 
ATOM     14  C   UNL     1       1.679   5.740  20.835  0.00  0.00    +0.000 A 
ATOM     15  C   UNL     1       1.083   6.979  20.962  0.00  0.00    +0.000 A 
ATOM     16  C   UNL     1       1.490   7.980  20.078  0.00  0.00    +0.000 A 
ATOM     17  C   UNL     1       2.460   7.717  19.094  0.00  0.00    +0.000 A 
ATOM     18  C   UNL     1       3.049   6.452  18.984  0.00  0.00    +0.000 A 
ATOM     19  C   UNL     1       2.659   5.466  19.872  0.00  0.00    +0.000 A 
ATOM     20  H   UNL     1       0.737   4.548  22.348  0.00  0.00    +0.000 HD
ENDBRANCH   5   9
BRANCH   1  21
ATOM     21  C   UNL     1       5.831   4.563  14.999  0.00  0.00    +0.000 C 
ATOM     22  O   UNL     1       5.738   5.692  14.531  0.00  0.00    +0.000 OA
BRANCH  21  23
ATOM     23  O   UNL     1       6.000   3.447  14.238  0.00  0.00    +0.000 OA
BRANCH  23  25
ATOM     24  C   UNL     1       5.170   3.244  12.010  0.00  0.00    +0.000 C 
ATOM     25  C   UNL     1       6.342   3.689  12.869  0.00  0.00    +0.000 C 
ENDBRANCH  23  25
ENDBRANCH  21  23
ENDBRANCH   1  21
TORSDOF 4
ENDMDL
MODEL 7
REMARK VINA RESULT:      -6.5      1.057      1.922
REMARK  Name = 
REMARK  7 active torsions:
REMARK  status: ('A' for Active; 'I' for Inactive)
REMARK    1  A    between atoms: C_1  and  C_2
REMARK    2  A    between atoms: C_2  and  O_3
REMARK    3  A    between atoms: O_3  and  C_4
REMARK    4  A    between atoms: C_4  and  C_6
REMARK    5  A    between atoms: C_7  and  C_8
REMARK    6  A    between atoms: C_10  and  C_11
REMARK    7  A    between atoms: C_22  and  C_23
REMARK                            x       y       z     vdW  Elec       q    Type
REMARK                         _______ _______ _______ _____ _____    ______ ____
ROOT
ATOM      1  C   UNL     1       2.574   4.064  20.305  0.00  0.00    +0.000 A 
ATOM      2  C   UNL     1       2.261   5.424  20.311  0.00  0.00    +0.000 A 
ATOM      3  C   UNL     1       1.011   6.188  20.585  0.00  0.00    +0.000 C 
ATOM      4  N   UNL     1       3.398   6.117  19.960  0.00  0.00    +0.000 N 
ATOM      5  C   UNL     1       4.439   5.253  19.759  0.00  0.00    +0.000 A 
ATOM      6  C   UNL     1       3.966   3.967  19.922  0.00  0.00    +0.000 A 
ATOM      7  C   UNL     1       4.744   2.709  19.731  0.00  0.00    +0.000 C 
ATOM      8  H   UNL     1       3.457   7.124  19.869  0.00  0.00    +0.000 HD
ENDROOT
BRANCH   5   9
ATOM      9  C   UNL     1       5.699   5.775  19.400  0.00  0.00    +0.000 C 
ATOM     10  C   UNL     1       6.186   5.708  18.153  0.00  0.00    +0.000 C 
ATOM     11  C   UNL     1       7.515   6.342  17.840  0.00  0.00    +0.000 C 
ATOM     12  O   UNL     1       8.239   6.958  18.595  0.00  0.00    +0.000 OA
ATOM     13  N   UNL     1       7.735   6.069  16.500  0.00  0.00    +0.000 N 
ATOM     14  C   UNL     1       6.680   5.344  15.950  0.00  0.00    +0.000 A 
ATOM     15  C   UNL     1       6.581   4.900  14.647  0.00  0.00    +0.000 A 
ATOM     16  C   UNL     1       5.430   4.191  14.298  0.00  0.00    +0.000 A 
ATOM     17  C   UNL     1       4.416   3.958  15.244  0.00  0.00    +0.000 A 
ATOM     18  C   UNL     1       4.540   4.419  16.560  0.00  0.00    +0.000 A 
ATOM     19  C   UNL     1       5.689   5.105  16.910  0.00  0.00    +0.000 A 
ATOM     20  H   UNL     1       8.556   6.383  16.008  0.00  0.00    +0.000 HD
ENDBRANCH   5   9
BRANCH   1  21
ATOM     21  C   UNL     1       1.699   2.915  20.565  0.00  0.00    +0.000 C 
ATOM     22  O   UNL     1       1.790   2.221  21.571  0.00  0.00    +0.000 OA
BRANCH  21  23
ATOM     23  O   UNL     1       0.832   2.653  19.548  0.00  0.00    +0.000 OA
BRANCH  23  25
ATOM     24  C   UNL     1       1.142   3.832  17.497  0.00  0.00    +0.000 C 
ATOM     25  C   UNL     1       1.429   2.545  18.251  0.00  0.00    +0.000 C 
ENDBRANCH  23  25
ENDBRANCH  21  23
ENDBRANCH   1  21
TORSDOF 4
ENDMDL
MODEL 8
REMARK VINA RESULT:      -6.5      4.100      6.141
REMARK  Name = 
REMARK  7 active torsions:
REMARK  status: ('A' for Active; 'I' for Inactive)
REMARK    1  A    between atoms: C_1  and  C_2
REMARK    2  A    between atoms: C_2  and  O_3
REMARK    3  A    between atoms: O_3  and  C_4
REMARK    4  A    between atoms: C_4  and  C_6
REMARK    5  A    between atoms: C_7  and  C_8
REMARK    6  A    between atoms: C_10  and  C_11
REMARK    7  A    between atoms: C_22  and  C_23
REMARK                            x       y       z     vdW  Elec       q    Type
REMARK                         _______ _______ _______ _____ _____    ______ ____
ROOT
ATOM      1  C   UNL     1       0.941   9.244  19.794  0.00  0.00    +0.000 A 
ATOM      2  C   UNL     1       1.318   8.404  20.845  0.00  0.00    +0.000 A 
ATOM      3  C   UNL     1       0.938   8.328  22.284  0.00  0.00    +0.000 C 
ATOM      4  N   UNL     1       2.247   7.513  20.356  0.00  0.00    +0.000 N 
ATOM      5  C   UNL     1       2.458   7.729  19.022  0.00  0.00    +0.000 A 
ATOM      6  C   UNL     1       1.700   8.817  18.639  0.00  0.00    +0.000 A 
ATOM      7  C   UNL     1       1.676   9.444  17.286  0.00  0.00    +0.000 C 
ATOM      8  H   UNL     1       2.705   6.796  20.905  0.00  0.00    +0.000 HD
ENDROOT
BRANCH   5   9
ATOM      9  C   UNL     1       3.374   6.906  18.334  0.00  0.00    +0.000 C 
ATOM     10  C   UNL     1       3.306   5.567  18.356  0.00  0.00    +0.000 C 
ATOM     11  C   UNL     1       4.287   4.762  17.547  0.00  0.00    +0.000 C 
ATOM     12  O   UNL     1       5.168   5.177  16.821  0.00  0.00    +0.000 OA
ATOM     13  N   UNL     1       3.969   3.440  17.812  0.00  0.00    +0.000 N 
ATOM     14  C   UNL     1       2.892   3.343  18.688  0.00  0.00    +0.000 A 
ATOM     15  C   UNL     1       2.325   2.180  19.167  0.00  0.00    +0.000 A 
ATOM     16  C   UNL     1       1.241   2.306  20.038  0.00  0.00    +0.000 A 
ATOM     17  C   UNL     1       0.750   3.575  20.393  0.00  0.00    +0.000 A 
ATOM     18  C   UNL     1       1.342   4.741  19.894  0.00  0.00    +0.000 A 
ATOM     19  C   UNL     1       2.428   4.615  19.046  0.00  0.00    +0.000 A 
ATOM     20  H   UNL     1       4.464   2.667  17.395  0.00  0.00    +0.000 HD
ENDBRANCH   5   9
BRANCH   1  21
ATOM     21  C   UNL     1       0.015  10.382  19.810  0.00  0.00    +0.000 C 
ATOM     22  O   UNL     1       0.300  11.468  20.302  0.00  0.00    +0.000 OA
BRANCH  21  23
ATOM     23  O   UNL     1      -1.211  10.089  19.296  0.00  0.00    +0.000 OA
BRANCH  23  25
ATOM     24  C   UNL     1      -2.045   9.971  17.063  0.00  0.00    +0.000 C 
ATOM     25  C   UNL     1      -1.615  10.899  18.186  0.00  0.00    +0.000 C 
ENDBRANCH  23  25
ENDBRANCH  21  23
ENDBRANCH   1  21
TORSDOF 4
ENDMDL
MODEL 9
REMARK VINA RESULT:      -6.5      2.177      6.454
REMARK  Name = 
REMARK  7 active torsions:
REMARK  status: ('A' for Active; 'I' for Inactive)
REMARK    1  A    between atoms: C_1  and  C_2
REMARK    2  A    between atoms: C_2  and  O_3
REMARK    3  A    between atoms: O_3  and  C_4
REMARK    4  A    between atoms: C_4  and  C_6
REMARK    5  A    between atoms: C_7  and  C_8
REMARK    6  A    between atoms: C_10  and  C_11
REMARK    7  A    between atoms: C_22  and  C_23
REMARK                            x       y       z     vdW  Elec       q    Type
REMARK                         _______ _______ _______ _____ _____    ______ ____
ROOT
ATOM      1  C   UNL     1       6.397   5.091  16.241  0.00  0.00    +0.000 A 
ATOM      2  C   UNL     1       6.758   5.958  17.274  0.00  0.00    +0.000 A 
ATOM      3  C   UNL     1       7.658   7.142  17.353  0.00  0.00    +0.000 C 
ATOM      4  N   UNL     1       6.114   5.537  18.417  0.00  0.00    +0.000 N 
ATOM      5  C   UNL     1       5.329   4.450  18.148  0.00  0.00    +0.000 A 
ATOM      6  C   UNL     1       5.502   4.114  16.821  0.00  0.00    +0.000 A 
ATOM      7  C   UNL     1       4.889   2.951  16.118  0.00  0.00    +0.000 C 
ATOM      8  H   UNL     1       6.205   5.974  19.326  0.00  0.00    +0.000 HD
ENDROOT
BRANCH   5   9
ATOM      9  C   UNL     1       4.577   3.876  19.195  0.00  0.00    +0.000 C 
ATOM     10  C   UNL     1       3.537   4.497  19.768  0.00  0.00    +0.000 C 
ATOM     11  C   UNL     1       2.750   3.791  20.840  0.00  0.00    +0.000 C 
ATOM     12  O   UNL     1       2.922   2.668  21.268  0.00  0.00    +0.000 OA
ATOM     13  N   UNL     1       1.786   4.703  21.235  0.00  0.00    +0.000 N 
ATOM     14  C   UNL     1       1.886   5.891  20.516  0.00  0.00    +0.000 A 
ATOM     15  C   UNL     1       1.090   7.009  20.663  0.00  0.00    +0.000 A 
ATOM     16  C   UNL     1       1.357   8.099  19.833  0.00  0.00    +0.000 A 
ATOM     17  C   UNL     1       2.390   8.040  18.881  0.00  0.00    +0.000 A 
ATOM     18  C   UNL     1       3.184   6.895  18.751  0.00  0.00    +0.000 A 
ATOM     19  C   UNL     1       2.931   5.822  19.587  0.00  0.00    +0.000 A 
ATOM     20  H   UNL     1       1.101   4.498  21.946  0.00  0.00    +0.000 HD
ENDBRANCH   5   9
BRANCH   1  21
ATOM     21  C   UNL     1       6.846   5.085  14.844  0.00  0.00    +0.000 C 
ATOM     22  O   UNL     1       7.942   5.508  14.493  0.00  0.00    +0.000 OA
BRANCH  21  23
ATOM     23  O   UNL     1       5.901   4.636  13.973  0.00  0.00    +0.000 OA
BRANCH  23  25
ATOM     24  C   UNL     1       5.199   3.309  12.118  0.00  0.00    +0.000 C 
ATOM     25  C   UNL     1       6.393   3.806  12.914  0.00  0.00    +0.000 C 
ENDBRANCH  23  25
ENDBRANCH  21  23
ENDBRANCH   1  21
TORSDOF 4
ENDMDL
