MODEL 1
REMARK VINA RESULT:      -6.9      0.000      0.000
REMARK  Name = 
REMARK  10 active torsions:
REMARK  status: ('A' for Active; 'I' for Inactive)
REMARK    1  A    between atoms: C_1  and  O_2
REMARK    2  A    between atoms: O_2  and  C_3
REMARK    3  A    between atoms: C_5  and  C_6
REMARK    4  A    between atoms: N_7  and  N_8
REMARK    5  A    between atoms: C_9  and  C_11
REMARK    6  A    between atoms: C_11  and  N_12
REMARK    7  A    between atoms: C_19  and  O_20
REMARK    8  A    between atoms: O_20  and  C_21
REMARK    9  A    between atoms: C_22  and  O_23
REMARK   10  A    between atoms: O_23  and  C_24
REMARK                            x       y       z     vdW  Elec       q    Type
REMARK                         _______ _______ _______ _____ _____    ______ ____
ROOT
ATOM      1  C   UNL     1       2.213   8.287  17.727  0.00  0.00    +0.000 C 
ATOM      2  N   UNL     1       1.607   9.034  18.598  0.00  0.00    +0.000 NA
ENDROOT
BRANCH   1   5
ATOM      3  C   UNL     1       4.778   5.501  17.958  0.00  0.00    +0.000 A 
ATOM      4  C   UNL     1       4.021   6.576  17.442  0.00  0.00    +0.000 A 
ATOM      5  C   UNL     1       2.906   7.045  18.139  0.00  0.00    +0.000 A 
ATOM      6  C   UNL     1       2.481   6.381  19.282  0.00  0.00    +0.000 A 
ATOM      7  C   UNL     1       3.167   5.247  19.752  0.00  0.00    +0.000 A 
ATOM      8  C   UNL     1       4.345   4.803  19.106  0.00  0.00    +0.000 A 
BRANCH   3  10
ATOM      9  C   UNL     1       5.813   4.249  16.248  0.00  0.00    +0.000 C 
ATOM     10  O   UNL     1       5.957   5.140  17.357  0.00  0.00    +0.000 OA
ENDBRANCH   3  10
BRANCH   7  11
ATOM     11  O   UNL     1       2.563   4.727  20.875  0.00  0.00    +0.000 OA
ATOM     12  C   UNL     1       1.319   4.051  20.746  0.00  0.00    +0.000 C 
ENDBRANCH   7  11
BRANCH   8  13
ATOM     13  O   UNL     1       4.960   3.740  19.700  0.00  0.00    +0.000 OA
ATOM     14  C   UNL     1       4.506   2.408  19.607  0.00  0.00    +0.000 C 
ENDBRANCH   8  13
ENDBRANCH   1   5
BRANCH   2  15
ATOM     15  N   UNL     1       0.975  10.169  18.155  0.00  0.00    +0.000 N 
ATOM     16  C   UNL     1      -0.158  10.570  18.854  0.00  0.00    +0.000 C 
ATOM     17  O   UNL     1      -0.614   9.967  19.820  0.00  0.00    +0.000 OA
ATOM     18  H   UNL     1       1.344  10.640  17.325  0.00  0.00    +0.000 HD
BRANCH  16  19
ATOM     19  C   UNL     1      -0.834  11.852  18.403  0.00  0.00    +0.000 C 
BRANCH  19  20
ATOM     20  N   UNL     1      -2.222  11.589  17.931  0.00  0.00    +0.000 N 
ATOM     21  C   UNL     1      -2.431  11.164  16.662  0.00  0.00    +0.000 A 
ATOM     22  C   UNL     1      -3.720  11.024  16.158  0.00  0.00    +0.000 A 
ATOM     23  C   UNL     1      -4.807  11.310  16.972  0.00  0.00    +0.000 A 
ATOM     24  C   UNL     1      -4.587  11.681  18.288  0.00  0.00    +0.000 A 
ATOM     25  C   UNL     1      -3.280  11.800  18.759  0.00  0.00    +0.000 A 
ENDBRANCH  19  20
ENDBRANCH  16  19
ENDBRANCH   2  15
TORSDOF 7
ENDMDL
MODEL 2
REMARK VINA RESULT:      -6.8      6.827      9.915
REMARK  Name = 
REMARK  10 active torsions:
REMARK  status: ('A' for Active; 'I' for Inactive)
REMARK    1  A    between atoms: C_1  and  O_2
REMARK    2  A    between atoms: O_2  and  C_3
REMARK    3  A    between atoms: C_5  and  C_6
REMARK    4  A    between atoms: N_7  and  N_8
REMARK    5  A    between atoms: C_9  and  C_11
REMARK    6  A    between atoms: C_11  and  N_12
REMARK    7  A    between atoms: C_19  and  O_20
REMARK    8  A    between atoms: O_20  and  C_21
REMARK    9  A    between atoms: C_22  and  O_23
REMARK   10  A    between atoms: O_23  and  C_24
REMARK                            x       y       z     vdW  Elec       q    Type
REMARK                         _______ _______ _______ _____ _____    ______ ____
ROOT
ATOM      1  C   UNL     1       8.373   9.114  17.926  0.00  0.00    +0.000 C 
ATOM      2  N   UNL     1       8.321   7.954  18.506  0.00  0.00    +0.000 NA
ENDROOT
BRANCH   1   5
ATOM      3  C   UNL     1       9.728  11.557  20.493  0.00  0.00    +0.000 A 
ATOM      4  C   UNL     1       8.889  10.608  19.871  0.00  0.00    +0.000 A 
ATOM      5  C   UNL     1       9.109  10.242  18.542  0.00  0.00    +0.000 A 
ATOM      6  C   UNL     1      10.086  10.896  17.803  0.00  0.00    +0.000 A 
ATOM      7  C   UNL     1      10.864  11.915  18.381  0.00  0.00    +0.000 A 
ATOM      8  C   UNL     1      10.711  12.245  19.748  0.00  0.00    +0.000 A 
BRANCH   3  10
ATOM      9  C   UNL     1       8.547  12.693  22.190  0.00  0.00    +0.000 C 
ATOM     10  O   UNL     1       9.609  11.804  21.838  0.00  0.00    +0.000 OA
ENDBRANCH   3  10
BRANCH   7  11
ATOM     11  O   UNL     1      11.748  12.447  17.470  0.00  0.00    +0.000 OA
ATOM     12  C   UNL     1      11.317  13.500  16.617  0.00  0.00    +0.000 C 
ENDBRANCH   7  11
BRANCH   8  13
ATOM     13  O   UNL     1      11.573  13.196  20.210  0.00  0.00    +0.000 OA
ATOM     14  C   UNL     1      11.282  14.575  20.256  0.00  0.00    +0.000 C 
ENDBRANCH   8  13
ENDBRANCH   1   5
BRANCH   2  15
ATOM     15  N   UNL     1       7.630   6.945  17.884  0.00  0.00    +0.000 N 
ATOM     16  C   UNL     1       7.607   5.712  18.526  0.00  0.00    +0.000 C 
ATOM     17  O   UNL     1       8.170   5.486  19.593  0.00  0.00    +0.000 OA
ATOM     18  H   UNL     1       7.199   7.138  16.977  0.00  0.00    +0.000 HD
BRANCH  16  19
ATOM     19  C   UNL     1       6.803   4.604  17.871  0.00  0.00    +0.000 C 
BRANCH  19  20
ATOM     20  N   UNL     1       5.352   4.739  18.180  0.00  0.00    +0.000 N 
ATOM     21  C   UNL     1       4.431   4.353  17.265  0.00  0.00    +0.000 A 
ATOM     22  C   UNL     1       3.074   4.576  17.478  0.00  0.00    +0.000 A 
ATOM     23  C   UNL     1       2.659   5.189  18.651  0.00  0.00    +0.000 A 
ATOM     24  C   UNL     1       3.601   5.521  19.610  0.00  0.00    +0.000 A 
ATOM     25  C   UNL     1       4.950   5.273  19.364  0.00  0.00    +0.000 A 
ENDBRANCH  19  20
ENDBRANCH  16  19
ENDBRANCH   2  15
TORSDOF 7
ENDMDL
MODEL 3
REMARK VINA RESULT:      -6.7      1.141      1.526
REMARK  Name = 
REMARK  10 active torsions:
REMARK  status: ('A' for Active; 'I' for Inactive)
REMARK    1  A    between atoms: C_1  and  O_2
REMARK    2  A    between atoms: O_2  and  C_3
REMARK    3  A    between atoms: C_5  and  C_6
REMARK    4  A    between atoms: N_7  and  N_8
REMARK    5  A    between atoms: C_9  and  C_11
REMARK    6  A    between atoms: C_11  and  N_12
REMARK    7  A    between atoms: C_19  and  O_20
REMARK    8  A    between atoms: O_20  and  C_21
REMARK    9  A    between atoms: C_22  and  O_23
REMARK   10  A    between atoms: O_23  and  C_24
REMARK                            x       y       z     vdW  Elec       q    Type
REMARK                         _______ _______ _______ _____ _____    ______ ____
ROOT
ATOM      1  C   UNL     1       2.772   7.421  18.010  0.00  0.00    +0.000 C 
ATOM      2  N   UNL     1       2.110   8.147  18.858  0.00  0.00    +0.000 NA
ENDROOT
BRANCH   1   5
ATOM      3  C   UNL     1       5.321   4.710  18.749  0.00  0.00    +0.000 A 
ATOM      4  C   UNL     1       4.724   5.860  18.189  0.00  0.00    +0.000 A 
ATOM      5  C   UNL     1       3.374   6.131  18.419  0.00  0.00    +0.000 A 
ATOM      6  C   UNL     1       2.597   5.210  19.108  0.00  0.00    +0.000 A 
ATOM      7  C   UNL     1       3.155   4.011  19.587  0.00  0.00    +0.000 A 
ATOM      8  C   UNL     1       4.539   3.754  19.433  0.00  0.00    +0.000 A 
BRANCH   3  10
ATOM      9  C   UNL     1       7.192   4.567  17.319  0.00  0.00    +0.000 C 
ATOM     10  O   UNL     1       6.677   4.523  18.652  0.00  0.00    +0.000 OA
ENDBRANCH   3  10
BRANCH   7  11
ATOM     11  O   UNL     1       2.209   3.231  20.211  0.00  0.00    +0.000 OA
ATOM     12  C   UNL     1       2.045   3.329  21.620  0.00  0.00    +0.000 C 
ENDBRANCH   7  11
BRANCH   8  13
ATOM     13  O   UNL     1       4.974   2.595  20.004  0.00  0.00    +0.000 OA
ATOM     14  C   UNL     1       4.663   1.307  19.520  0.00  0.00    +0.000 C 
ENDBRANCH   8  13
ENDBRANCH   1   5
BRANCH   2  15
ATOM     15  N   UNL     1       1.568   9.329  18.419  0.00  0.00    +0.000 N 
ATOM     16  C   UNL     1       0.566   9.889  19.203  0.00  0.00    +0.000 C 
ATOM     17  O   UNL     1       0.147   9.385  20.240  0.00  0.00    +0.000 OA
ATOM     18  H   UNL     1       1.900   9.718  17.533  0.00  0.00    +0.000 HD
BRANCH  16  19
ATOM     19  C   UNL     1      -0.004  11.222  18.753  0.00  0.00    +0.000 C 
BRANCH  19  20
ATOM     20  N   UNL     1      -1.414  11.076  18.297  0.00  0.00    +0.000 N 
ATOM     21  C   UNL     1      -2.378  11.862  18.832  0.00  0.00    +0.000 A 
ATOM     22  C   UNL     1      -3.719  11.667  18.513  0.00  0.00    +0.000 A 
ATOM     23  C   UNL     1      -4.070  10.664  17.621  0.00  0.00    +0.000 A 
ATOM     24  C   UNL     1      -3.073   9.908  17.028  0.00  0.00    +0.000 A 
ATOM     25  C   UNL     1      -1.740  10.140  17.367  0.00  0.00    +0.000 A 
ENDBRANCH  19  20
ENDBRANCH  16  19
ENDBRANCH   2  15
TORSDOF 7
ENDMDL
MODEL 4
REMARK VINA RESULT:      -6.7      1.540      1.604
REMARK  Name = 
REMARK  10 active torsions:
REMARK  status: ('A' for Active; 'I' for Inactive)
REMARK    1  A    between atoms: C_1  and  O_2
REMARK    2  A    between atoms: O_2  and  C_3
REMARK    3  A    between atoms: C_5  and  C_6
REMARK    4  A    between atoms: N_7  and  N_8
REMARK    5  A    between atoms: C_9  and  C_11
REMARK    6  A    between atoms: C_11  and  N_12
REMARK    7  A    between atoms: C_19  and  O_20
REMARK    8  A    between atoms: O_20  and  C_21
REMARK    9  A    between atoms: C_22  and  O_23
REMARK   10  A    between atoms: O_23  and  C_24
REMARK                            x       y       z     vdW  Elec       q    Type
REMARK                         _______ _______ _______ _____ _____    ______ ____
ROOT
ATOM      1  C   UNL     1       2.016   7.558  17.851  0.00  0.00    +0.000 C 
ATOM      2  N   UNL     1       2.472   8.742  18.123  0.00  0.00    +0.000 NA
ENDROOT
BRANCH   1   5
ATOM      3  C   UNL     1       4.810   5.293  19.060  0.00  0.00    +0.000 A 
ATOM      4  C   UNL     1       4.128   6.447  18.617  0.00  0.00    +0.000 A 
ATOM      5  C   UNL     1       2.820   6.348  18.139  0.00  0.00    +0.000 A 
ATOM      6  C   UNL     1       2.234   5.097  17.997  0.00  0.00    +0.000 A 
ATOM      7  C   UNL     1       2.938   3.929  18.341  0.00  0.00    +0.000 A 
ATOM      8  C   UNL     1       4.235   4.013  18.902  0.00  0.00    +0.000 A 
BRANCH   3  10
ATOM      9  C   UNL     1       7.126   5.636  18.779  0.00  0.00    +0.000 C 
ATOM     10  O   UNL     1       6.033   5.409  19.671  0.00  0.00    +0.000 OA
ENDBRANCH   3  10
BRANCH   7  11
ATOM     11  O   UNL     1       2.188   2.801  18.096  0.00  0.00    +0.000 OA
ATOM     12  C   UNL     1       0.999   2.581  18.845  0.00  0.00    +0.000 C 
ENDBRANCH   7  11
BRANCH   8  13
ATOM     13  O   UNL     1       4.783   2.817  19.263  0.00  0.00    +0.000 OA
ATOM     14  C   UNL     1       4.466   2.128  20.452  0.00  0.00    +0.000 C 
ENDBRANCH   8  13
ENDBRANCH   1   5
BRANCH   2  15
ATOM     15  N   UNL     1       1.678   9.825  17.841  0.00  0.00    +0.000 N 
ATOM     16  C   UNL     1       0.882  10.305  18.874  0.00  0.00    +0.000 C 
ATOM     17  O   UNL     1       0.848   9.812  19.998  0.00  0.00    +0.000 OA
ATOM     18  H   UNL     1       1.687  10.202  16.890  0.00  0.00    +0.000 HD
BRANCH  16  19
ATOM     19  C   UNL     1       0.038  11.534  18.588  0.00  0.00    +0.000 C 
BRANCH  19  20
ATOM     20  N   UNL     1      -1.377  11.161  18.310  0.00  0.00    +0.000 N 
ATOM     21  C   UNL     1      -1.650  10.143  17.460  0.00  0.00    +0.000 A 
ATOM     22  C   UNL     1      -2.959   9.850  17.092  0.00  0.00    +0.000 A 
ATOM     23  C   UNL     1      -4.001  10.602  17.615  0.00  0.00    +0.000 A 
ATOM     24  C   UNL     1      -3.719  11.598  18.535  0.00  0.00    +0.000 A 
ATOM     25  C   UNL     1      -2.395  11.855  18.886  0.00  0.00    +0.000 A 
ENDBRANCH  19  20
ENDBRANCH  16  19
ENDBRANCH   2  15
TORSDOF 7
ENDMDL
MODEL 5
REMARK VINA RESULT:      -6.7      1.511      2.478
REMARK  Name = 
REMARK  10 active torsions:
REMARK  status: ('A' for Active; 'I' for Inactive)
REMARK    1  A    between atoms: C_1  and  O_2
REMARK    2  A    between atoms: O_2  and  C_3
REMARK    3  A    between atoms: C_5  and  C_6
REMARK    4  A    between atoms: N_7  and  N_8
REMARK    5  A    between atoms: C_9  and  C_11
REMARK    6  A    between atoms: C_11  and  N_12
REMARK    7  A    between atoms: C_19  and  O_20
REMARK    8  A    between atoms: O_20  and  C_21
REMARK    9  A    between atoms: C_22  and  O_23
REMARK   10  A    between atoms: O_23  and  C_24
REMARK                            x       y       z     vdW  Elec       q    Type
REMARK                         _______ _______ _______ _____ _____    ______ ____
ROOT
ATOM      1  C   UNL     1       2.210   7.336  18.062  0.00  0.00    +0.000 C 
ATOM      2  N   UNL     1       2.067   8.334  18.879  0.00  0.00    +0.000 NA
ENDROOT
BRANCH   1   5
ATOM      3  C   UNL     1       2.862   3.647  18.663  0.00  0.00    +0.000 A 
ATOM      4  C   UNL     1       2.176   4.855  18.413  0.00  0.00    +0.000 A 
ATOM      5  C   UNL     1       2.848   6.075  18.504  0.00  0.00    +0.000 A 
ATOM      6  C   UNL     1       4.164   6.102  18.948  0.00  0.00    +0.000 A 
ATOM      7  C   UNL     1       4.831   4.914  19.297  0.00  0.00    +0.000 A 
ATOM      8  C   UNL     1       4.193   3.661  19.136  0.00  0.00    +0.000 A 
BRANCH   3  10
ATOM      9  C   UNL     1       0.866   2.398  18.796  0.00  0.00    +0.000 C 
ATOM     10  O   UNL     1       2.246   2.445  18.425  0.00  0.00    +0.000 OA
ENDBRANCH   3  10
BRANCH   7  11
ATOM     11  O   UNL     1       6.110   5.168  19.737  0.00  0.00    +0.000 OA
ATOM     12  C   UNL     1       7.109   5.538  18.796  0.00  0.00    +0.000 C 
ENDBRANCH   7  11
BRANCH   8  13
ATOM     13  O   UNL     1       4.968   2.579  19.436  0.00  0.00    +0.000 OA
ATOM     14  C   UNL     1       4.799   1.777  20.583  0.00  0.00    +0.000 C 
ENDBRANCH   8  13
ENDBRANCH   1   5
BRANCH   2  15
ATOM     15  N   UNL     1       1.461   9.474  18.414  0.00  0.00    +0.000 N 
ATOM     16  C   UNL     1       0.442  10.006  19.195  0.00  0.00    +0.000 C 
ATOM     17  O   UNL     1       0.060   9.511  20.251  0.00  0.00    +0.000 OA
ATOM     18  H   UNL     1       1.764   9.854  17.514  0.00  0.00    +0.000 HD
BRANCH  16  19
ATOM     19  C   UNL     1      -0.200  11.295  18.715  0.00  0.00    +0.000 C 
BRANCH  19  20
ATOM     20  N   UNL     1      -1.609  11.068  18.289  0.00  0.00    +0.000 N 
ATOM     21  C   UNL     1      -1.879  10.173  17.310  0.00  0.00    +0.000 A 
ATOM     22  C   UNL     1      -3.170  10.026  16.812  0.00  0.00    +0.000 A 
ATOM     23  C   UNL     1      -4.197  10.797  17.336  0.00  0.00    +0.000 A 
ATOM     24  C   UNL     1      -3.925  11.663  18.383  0.00  0.00    +0.000 A 
ATOM     25  C   UNL     1      -2.620  11.774  18.861  0.00  0.00    +0.000 A 
ENDBRANCH  19  20
ENDBRANCH  16  19
ENDBRANCH   2  15
TORSDOF 7
ENDMDL
MODEL 6
REMARK VINA RESULT:      -6.6      6.930      9.393
REMARK  Name = 
REMARK  10 active torsions:
REMARK  status: ('A' for Active; 'I' for Inactive)
REMARK    1  A    between atoms: C_1  and  O_2
REMARK    2  A    between atoms: O_2  and  C_3
REMARK    3  A    between atoms: C_5  and  C_6
REMARK    4  A    between atoms: N_7  and  N_8
REMARK    5  A    between atoms: C_9  and  C_11
REMARK    6  A    between atoms: C_11  and  N_12
REMARK    7  A    between atoms: C_19  and  O_20
REMARK    8  A    between atoms: O_20  and  C_21
REMARK    9  A    between atoms: C_22  and  O_23
REMARK   10  A    between atoms: O_23  and  C_24
REMARK                            x       y       z     vdW  Elec       q    Type
REMARK                         _______ _______ _______ _____ _____    ______ ____
ROOT
ATOM      1  C   UNL     1       8.146   9.611  18.122  0.00  0.00    +0.000 C 
ATOM      2  N   UNL     1       8.483   8.475  17.591  0.00  0.00    +0.000 NA
ENDROOT
BRANCH   1   5
ATOM      3  C   UNL     1      11.062  12.034  18.281  0.00  0.00    +0.000 A 
ATOM      4  C   UNL     1      10.206  11.007  17.826  0.00  0.00    +0.000 A 
ATOM      5  C   UNL     1       9.173  10.543  18.642  0.00  0.00    +0.000 A 
ATOM      6  C   UNL     1       9.060  11.016  19.943  0.00  0.00    +0.000 A 
ATOM      7  C   UNL     1       9.967  11.967  20.444  0.00  0.00    +0.000 A 
ATOM      8  C   UNL     1      10.972  12.509  19.607  0.00  0.00    +0.000 A 
BRANCH   3  10
ATOM      9  C   UNL     1      11.454  13.631  16.590  0.00  0.00    +0.000 C 
ATOM     10  O   UNL     1      11.976  12.595  17.426  0.00  0.00    +0.000 OA
ENDBRANCH   3  10
BRANCH   7  11
ATOM     11  O   UNL     1       9.695  12.275  21.757  0.00  0.00    +0.000 OA
ATOM     12  C   UNL     1       8.592  13.120  22.059  0.00  0.00    +0.000 C 
ENDBRANCH   7  11
BRANCH   8  13
ATOM     13  O   UNL     1      11.741  13.476  20.186  0.00  0.00    +0.000 OA
ATOM     14  C   UNL     1      11.454  14.855  20.129  0.00  0.00    +0.000 C 
ENDBRANCH   8  13
ENDBRANCH   1   5
BRANCH   2  15
ATOM     15  N   UNL     1       7.488   7.657  17.120  0.00  0.00    +0.000 N 
ATOM     16  C   UNL     1       7.248   6.487  17.832  0.00  0.00    +0.000 C 
ATOM     17  O   UNL     1       7.875   6.155  18.833  0.00  0.00    +0.000 OA
ATOM     18  H   UNL     1       6.999   7.927  16.263  0.00  0.00    +0.000 HD
BRANCH  16  19
ATOM     19  C   UNL     1       6.115   5.600  17.349  0.00  0.00    +0.000 C 
BRANCH  19  20
ATOM     20  N   UNL     1       4.821   5.992  17.974  0.00  0.00    +0.000 N 
ATOM     21  C   UNL     1       4.091   6.996  17.433  0.00  0.00    +0.000 A 
ATOM     22  C   UNL     1       2.941   7.462  18.062  0.00  0.00    +0.000 A 
ATOM     23  C   UNL     1       2.528   6.880  19.251  0.00  0.00    +0.000 A 
ATOM     24  C   UNL     1       3.243   5.810  19.764  0.00  0.00    +0.000 A 
ATOM     25  C   UNL     1       4.386   5.366  19.099  0.00  0.00    +0.000 A 
ENDBRANCH  19  20
ENDBRANCH  16  19
ENDBRANCH   2  15
TORSDOF 7
ENDMDL
MODEL 7
REMARK VINA RESULT:      -6.6      0.569      2.750
REMARK  Name = 
REMARK  10 active torsions:
REMARK  status: ('A' for Active; 'I' for Inactive)
REMARK    1  A    between atoms: C_1  and  O_2
REMARK    2  A    between atoms: O_2  and  C_3
REMARK    3  A    between atoms: C_5  and  C_6
REMARK    4  A    between atoms: N_7  and  N_8
REMARK    5  A    between atoms: C_9  and  C_11
REMARK    6  A    between atoms: C_11  and  N_12
REMARK    7  A    between atoms: C_19  and  O_20
REMARK    8  A    between atoms: O_20  and  C_21
REMARK    9  A    between atoms: C_22  and  O_23
REMARK   10  A    between atoms: O_23  and  C_24
REMARK                            x       y       z     vdW  Elec       q    Type
REMARK                         _______ _______ _______ _____ _____    ______ ____
ROOT
ATOM      1  C   UNL     1       2.249   7.991  18.070  0.00  0.00    +0.000 C 
ATOM      2  N   UNL     1       1.697   8.821  18.901  0.00  0.00    +0.000 NA
ENDROOT
BRANCH   1   5
ATOM      3  C   UNL     1       2.949   4.832  20.051  0.00  0.00    +0.000 A 
ATOM      4  C   UNL     1       2.452   6.110  19.712  0.00  0.00    +0.000 A 
ATOM      5  C   UNL     1       2.891   6.747  18.550  0.00  0.00    +0.000 A 
ATOM      6  C   UNL     1       3.898   6.168  17.789  0.00  0.00    +0.000 A 
ATOM      7  C   UNL     1       4.473   4.942  18.168  0.00  0.00    +0.000 A 
ATOM      8  C   UNL     1       3.987   4.242  19.298  0.00  0.00    +0.000 A 
BRANCH   3  10
ATOM      9  C   UNL     1       1.161   3.501  20.822  0.00  0.00    +0.000 C 
ATOM     10  O   UNL     1       2.407   4.142  21.105  0.00  0.00    +0.000 OA
ENDBRANCH   3  10
BRANCH   7  11
ATOM     11  O   UNL     1       5.469   4.564  17.296  0.00  0.00    +0.000 OA
ATOM     12  C   UNL     1       5.169   4.436  15.912  0.00  0.00    +0.000 C 
ENDBRANCH   7  11
BRANCH   8  13
ATOM     13  O   UNL     1       4.574   3.031  19.519  0.00  0.00    +0.000 OA
ATOM     14  C   UNL     1       4.027   1.798  19.107  0.00  0.00    +0.000 C 
ENDBRANCH   8  13
ENDBRANCH   1   5
BRANCH   2  15
ATOM     15  N   UNL     1       1.111   9.955  18.396  0.00  0.00    +0.000 N 
ATOM     16  C   UNL     1       0.036  10.475  19.107  0.00  0.00    +0.000 C 
ATOM     17  O   UNL     1      -0.410   9.976  20.136  0.00  0.00    +0.000 OA
ATOM     18  H   UNL     1       1.468  10.338  17.518  0.00  0.00    +0.000 HD
BRANCH  16  19
ATOM     19  C   UNL     1      -0.587  11.757  18.585  0.00  0.00    +0.000 C 
BRANCH  19  20
ATOM     20  N   UNL     1      -1.984  11.526  18.123  0.00  0.00    +0.000 N 
ATOM     21  C   UNL     1      -3.021  11.972  18.870  0.00  0.00    +0.000 A 
ATOM     22  C   UNL     1      -4.335  11.668  18.524  0.00  0.00    +0.000 A 
ATOM     23  C   UNL     1      -4.584  10.909  17.390  0.00  0.00    +0.000 A 
ATOM     24  C   UNL     1      -3.522  10.512  16.595  0.00  0.00    +0.000 A 
ATOM     25  C   UNL     1      -2.221  10.845  16.971  0.00  0.00    +0.000 A 
ENDBRANCH  19  20
ENDBRANCH  16  19
ENDBRANCH   2  15
TORSDOF 7
ENDMDL
MODEL 8
REMARK VINA RESULT:      -6.6      6.789      9.575
REMARK  Name = 
REMARK  10 active torsions:
REMARK  status: ('A' for Active; 'I' for Inactive)
REMARK    1  A    between atoms: C_1  and  O_2
REMARK    2  A    between atoms: O_2  and  C_3
REMARK    3  A    between atoms: C_5  and  C_6
REMARK    4  A    between atoms: N_7  and  N_8
REMARK    5  A    between atoms: C_9  and  C_11
REMARK    6  A    between atoms: C_11  and  N_12
REMARK    7  A    between atoms: C_19  and  O_20
REMARK    8  A    between atoms: O_20  and  C_21
REMARK    9  A    between atoms: C_22  and  O_23
REMARK   10  A    between atoms: O_23  and  C_24
REMARK                            x       y       z     vdW  Elec       q    Type
REMARK                         _______ _______ _______ _____ _____    ______ ____
ROOT
ATOM      1  C   UNL     1       8.449   9.182  18.034  0.00  0.00    +0.000 C 
ATOM      2  N   UNL     1       8.351   7.999  18.558  0.00  0.00    +0.000 NA
ENDROOT
BRANCH   1   5
ATOM      3  C   UNL     1      10.546  12.279  18.674  0.00  0.00    +0.000 A 
ATOM      4  C   UNL     1      10.008  11.144  18.028  0.00  0.00    +0.000 A 
ATOM      5  C   UNL     1       9.181  10.265  18.729  0.00  0.00    +0.000 A 
ATOM      6  C   UNL     1       8.980  10.450  20.091  0.00  0.00    +0.000 A 
ATOM      7  C   UNL     1       9.591  11.520  20.770  0.00  0.00    +0.000 A 
ATOM      8  C   UNL     1      10.368  12.467  20.062  0.00  0.00    +0.000 A 
BRANCH   3  10
ATOM      9  C   UNL     1      10.415  14.259  17.399  0.00  0.00    +0.000 C 
ATOM     10  O   UNL     1      11.230  13.222  17.949  0.00  0.00    +0.000 OA
ENDBRANCH   3  10
BRANCH   7  11
ATOM     11  O   UNL     1       9.286  11.501  22.112  0.00  0.00    +0.000 OA
ATOM     12  C   UNL     1       8.009  11.954  22.541  0.00  0.00    +0.000 C 
ENDBRANCH   7  11
BRANCH   8  13
ATOM     13  O   UNL     1      10.845  13.498  20.817  0.00  0.00    +0.000 OA
ATOM     14  C   UNL     1      10.140  14.697  21.055  0.00  0.00    +0.000 C 
ENDBRANCH   8  13
ENDBRANCH   1   5
BRANCH   2  15
ATOM     15  N   UNL     1       7.667   7.033  17.862  0.00  0.00    +0.000 N 
ATOM     16  C   UNL     1       7.627   5.764  18.427  0.00  0.00    +0.000 C 
ATOM     17  O   UNL     1       8.168   5.469  19.489  0.00  0.00    +0.000 OA
ATOM     18  H   UNL     1       7.254   7.283  16.961  0.00  0.00    +0.000 HD
BRANCH  16  19
ATOM     19  C   UNL     1       6.830   4.702  17.691  0.00  0.00    +0.000 C 
BRANCH  19  20
ATOM     20  N   UNL     1       5.389   4.758  18.063  0.00  0.00    +0.000 N 
ATOM     21  C   UNL     1       4.456   4.272  17.211  0.00  0.00    +0.000 A 
ATOM     22  C   UNL     1       3.098   4.418  17.478  0.00  0.00    +0.000 A 
ATOM     23  C   UNL     1       2.696   5.057  18.642  0.00  0.00    +0.000 A 
ATOM     24  C   UNL     1       3.656   5.492  19.541  0.00  0.00    +0.000 A 
ATOM     25  C   UNL     1       5.006   5.319  19.241  0.00  0.00    +0.000 A 
ENDBRANCH  19  20
ENDBRANCH  16  19
ENDBRANCH   2  15
TORSDOF 7
ENDMDL
MODEL 9
REMARK VINA RESULT:      -6.5      1.884      3.303
REMARK  Name = 
REMARK  10 active torsions:
REMARK  status: ('A' for Active; 'I' for Inactive)
REMARK    1  A    between atoms: C_1  and  O_2
REMARK    2  A    between atoms: O_2  and  C_3
REMARK    3  A    between atoms: C_5  and  C_6
REMARK    4  A    between atoms: N_7  and  N_8
REMARK    5  A    between atoms: C_9  and  C_11
REMARK    6  A    between atoms: C_11  and  N_12
REMARK    7  A    between atoms: C_19  and  O_20
REMARK    8  A    between atoms: O_20  and  C_21
REMARK    9  A    between atoms: C_22  and  O_23
REMARK   10  A    between atoms: O_23  and  C_24
REMARK                            x       y       z     vdW  Elec       q    Type
REMARK                         _______ _______ _______ _____ _____    ______ ____
ROOT
ATOM      1  C   UNL     1       2.514   7.005  18.946  0.00  0.00    +0.000 C 
ATOM      2  N   UNL     1       2.312   8.239  18.599  0.00  0.00    +0.000 NA
ENDROOT
BRANCH   1   5
ATOM      3  C   UNL     1       4.328   4.064  17.379  0.00  0.00    +0.000 A 
ATOM      4  C   UNL     1       3.426   4.802  18.176  0.00  0.00    +0.000 A 
ATOM      5  C   UNL     1       3.554   6.188  18.281  0.00  0.00    +0.000 A 
ATOM      6  C   UNL     1       4.638   6.823  17.688  0.00  0.00    +0.000 A 
ATOM      7  C   UNL     1       5.601   6.089  16.975  0.00  0.00    +0.000 A 
ATOM      8  C   UNL     1       5.446   4.694  16.790  0.00  0.00    +0.000 A 
BRANCH   3  10
ATOM      9  C   UNL     1       3.201   2.109  18.063  0.00  0.00    +0.000 C 
ATOM     10  O   UNL     1       4.113   2.729  17.153  0.00  0.00    +0.000 OA
ENDBRANCH   3  10
BRANCH   7  11
ATOM     11  O   UNL     1       6.602   6.905  16.498  0.00  0.00    +0.000 OA
ATOM     12  C   UNL     1       7.499   7.515  17.416  0.00  0.00    +0.000 C 
ENDBRANCH   7  11
BRANCH   8  13
ATOM     13  O   UNL     1       6.405   4.107  16.017  0.00  0.00    +0.000 OA
ATOM     14  C   UNL     1       6.297   3.924  14.623  0.00  0.00    +0.000 C 
ENDBRANCH   8  13
ENDBRANCH   1   5
BRANCH   2  15
ATOM     15  N   UNL     1       1.339   8.949  19.257  0.00  0.00    +0.000 N 
ATOM     16  C   UNL     1       1.167  10.276  18.880  0.00  0.00    +0.000 C 
ATOM     17  O   UNL     1       1.834  10.833  18.013  0.00  0.00    +0.000 OA
ATOM     18  H   UNL     1       0.817   8.484  20.004  0.00  0.00    +0.000 HD
BRANCH  16  19
ATOM     19  C   UNL     1       0.059  11.055  19.566  0.00  0.00    +0.000 C 
BRANCH  19  20
ATOM     20  N   UNL     1      -1.208  10.984  18.788  0.00  0.00    +0.000 N 
ATOM     21  C   UNL     1      -2.220  11.837  19.073  0.00  0.00    +0.000 A 
ATOM     22  C   UNL     1      -3.456  11.717  18.444  0.00  0.00    +0.000 A 
ATOM     23  C   UNL     1      -3.648  10.718  17.501  0.00  0.00    +0.000 A 
ATOM     24  C   UNL     1      -2.588   9.891  17.167  0.00  0.00    +0.000 A 
ATOM     25  C   UNL     1      -1.363  10.050  17.813  0.00  0.00    +0.000 A 
ENDBRANCH  19  20
ENDBRANCH  16  19
ENDBRANCH   2  15
TORSDOF 7
ENDMDL
