MODEL 1
REMARK VINA RESULT:      -7.3      0.000      0.000
REMARK  Name = 
REMARK  3 active torsions:
REMARK  status: ('A' for Active; 'I' for Inactive)
REMARK    1  A    between atoms: C_1  and  C_2
REMARK    2  A    between atoms: C_11  and  C_13
REMARK    3  A    between atoms: C_13  and  C_14
REMARK                            x       y       z     vdW  Elec       q    Type
REMARK                         _______ _______ _______ _____ _____    ______ ____
ROOT
ATOM      1  C   UNL     1       0.306   9.458  23.077  0.00  0.00    +0.000 C 
ATOM      2  C   UNL     1       0.588   9.271  21.635  0.00  0.00    +0.000 A 
ATOM      3  C   UNL     1       0.120  10.037  20.588  0.00  0.00    +0.000 A 
ATOM      4  S   UNL     1       0.750   9.452  19.110  0.00  0.00    +0.000 S 
ATOM      5  C   UNL     1       1.562   8.179  19.961  0.00  0.00    +0.000 A 
ATOM      6  N   UNL     1       2.266   7.222  19.288  0.00  0.00    +0.000 N 
ATOM      7  C   UNL     1       2.420   5.919  19.948  0.00  0.00    +0.000 C 
ATOM      8  C   UNL     1       2.002   4.793  19.008  0.00  0.00    +0.000 C 
ATOM      9  C   UNL     1       2.600   4.780  17.595  0.00  0.00    +0.000 C 
ATOM     10  N   UNL     1       3.854   5.519  17.395  0.00  0.00    +0.000 N 
ATOM     11  C   UNL     1       5.060   4.814  17.388  0.00  0.00    +0.000 C 
ATOM     12  O   UNL     1       5.053   3.587  17.547  0.00  0.00    +0.000 OA
ATOM     13  C   UNL     1       3.694   6.981  17.289  0.00  0.00    +0.000 C 
ATOM     14  C   UNL     1       3.497   7.691  18.635  0.00  0.00    +0.000 C 
ATOM     15  N   UNL     1       1.393   8.210  21.264  0.00  0.00    +0.000 NA
ENDROOT
BRANCH  11  16
ATOM     16  C   UNL     1       6.409   5.537  17.149  0.00  0.00    +0.000 C 
ATOM     17  C   UNL     1       7.469   5.236  18.238  0.00  0.00    +0.000 C 
ATOM     18  C   UNL     1       8.036   6.580  18.705  0.00  0.00    +0.000 C 
ATOM     19  C   UNL     1       7.646   7.568  17.625  0.00  0.00    +0.000 C 
ATOM     20  C   UNL     1       6.263   7.079  17.217  0.00  0.00    +0.000 C 
BRANCH  16  21
ATOM     21  C   UNL     1       6.918   5.212  15.806  0.00  0.00    +0.000 C 
ATOM     22  N   UNL     1       7.324   5.001  14.736  0.00  0.00    +0.000 NA
ENDBRANCH  16  21
ENDBRANCH  11  16
TORSDOF 2
ENDMDL
MODEL 2
REMARK VINA RESULT:      -6.9      1.065      1.205
REMARK  Name = 
REMARK  3 active torsions:
REMARK  status: ('A' for Active; 'I' for Inactive)
REMARK    1  A    between atoms: C_1  and  C_2
REMARK    2  A    between atoms: C_11  and  C_13
REMARK    3  A    between atoms: C_13  and  C_14
REMARK                            x       y       z     vdW  Elec       q    Type
REMARK                         _______ _______ _______ _____ _____    ______ ____
ROOT
ATOM      1  C   UNL     1       0.216   9.585  23.555  0.00  0.00    +0.000 C 
ATOM      2  C   UNL     1       0.359   9.335  22.102  0.00  0.00    +0.000 A 
ATOM      3  C   UNL     1      -0.169  10.084  21.070  0.00  0.00    +0.000 A 
ATOM      4  S   UNL     1       0.301   9.419  19.567  0.00  0.00    +0.000 S 
ATOM      5  C   UNL     1       1.132   8.141  20.393  0.00  0.00    +0.000 A 
ATOM      6  N   UNL     1       1.731   7.130  19.698  0.00  0.00    +0.000 N 
ATOM      7  C   UNL     1       1.888   5.846  20.392  0.00  0.00    +0.000 C 
ATOM      8  C   UNL     1       1.341   4.707  19.538  0.00  0.00    +0.000 C 
ATOM      9  C   UNL     1       1.809   4.616  18.079  0.00  0.00    +0.000 C 
ATOM     10  N   UNL     1       3.070   5.291  17.741  0.00  0.00    +0.000 N 
ATOM     11  C   UNL     1       4.239   4.531  17.655  0.00  0.00    +0.000 C 
ATOM     12  O   UNL     1       4.195   3.312  17.862  0.00  0.00    +0.000 OA
ATOM     13  C   UNL     1       2.962   6.754  17.592  0.00  0.00    +0.000 C 
ATOM     14  C   UNL     1       2.917   7.519  18.921  0.00  0.00    +0.000 C 
ATOM     15  N   UNL     1       1.082   8.226  21.702  0.00  0.00    +0.000 NA
ENDROOT
BRANCH  11  16
ATOM     16  C   UNL     1       5.590   5.183  17.270  0.00  0.00    +0.000 C 
ATOM     17  C   UNL     1       6.729   4.156  17.052  0.00  0.00    +0.000 C 
ATOM     18  C   UNL     1       7.934   4.634  17.868  0.00  0.00    +0.000 C 
ATOM     19  C   UNL     1       7.649   6.090  18.175  0.00  0.00    +0.000 C 
ATOM     20  C   UNL     1       6.143   6.088  18.400  0.00  0.00    +0.000 C 
BRANCH  16  21
ATOM     21  C   UNL     1       5.410   6.038  16.084  0.00  0.00    +0.000 C 
ATOM     22  N   UNL     1       5.276   6.751  15.174  0.00  0.00    +0.000 NA
ENDBRANCH  16  21
ENDBRANCH  11  16
TORSDOF 2
ENDMDL
MODEL 3
REMARK VINA RESULT:      -6.9      1.634      2.104
REMARK  Name = 
REMARK  3 active torsions:
REMARK  status: ('A' for Active; 'I' for Inactive)
REMARK    1  A    between atoms: C_1  and  C_2
REMARK    2  A    between atoms: C_11  and  C_13
REMARK    3  A    between atoms: C_13  and  C_14
REMARK                            x       y       z     vdW  Elec       q    Type
REMARK                         _______ _______ _______ _____ _____    ______ ____
ROOT
ATOM      1  C   UNL     1       0.273   9.631  23.682  0.00  0.00    +0.000 C 
ATOM      2  C   UNL     1       0.374   9.306  22.241  0.00  0.00    +0.000 A 
ATOM      3  C   UNL     1      -0.161  10.016  21.186  0.00  0.00    +0.000 A 
ATOM      4  S   UNL     1       0.254   9.266  19.707  0.00  0.00    +0.000 S 
ATOM      5  C   UNL     1       1.075   8.010  20.575  0.00  0.00    +0.000 A 
ATOM      6  N   UNL     1       1.633   6.952  19.918  0.00  0.00    +0.000 N 
ATOM      7  C   UNL     1       1.777   5.699  20.671  0.00  0.00    +0.000 C 
ATOM      8  C   UNL     1       1.182   4.534  19.888  0.00  0.00    +0.000 C 
ATOM      9  C   UNL     1       1.611   4.360  18.425  0.00  0.00    +0.000 C 
ATOM     10  N   UNL     1       2.878   4.985  18.023  0.00  0.00    +0.000 N 
ATOM     11  C   UNL     1       4.027   4.194  17.947  0.00  0.00    +0.000 C 
ATOM     12  O   UNL     1       3.959   2.988  18.215  0.00  0.00    +0.000 OA
ATOM     13  C   UNL     1       2.802   6.442  17.804  0.00  0.00    +0.000 C 
ATOM     14  C   UNL     1       2.808   7.272  19.094  0.00  0.00    +0.000 C 
ATOM     15  N   UNL     1       1.060   8.160  21.880  0.00  0.00    +0.000 NA
ENDROOT
BRANCH  11  16
ATOM     16  C   UNL     1       5.383   4.793  17.498  0.00  0.00    +0.000 C 
ATOM     17  C   UNL     1       5.234   6.032  16.579  0.00  0.00    +0.000 C 
ATOM     18  C   UNL     1       6.130   5.803  15.359  0.00  0.00    +0.000 C 
ATOM     19  C   UNL     1       7.083   4.700  15.771  0.00  0.00    +0.000 C 
ATOM     20  C   UNL     1       6.197   3.804  16.626  0.00  0.00    +0.000 C 
BRANCH  16  21
ATOM     21  C   UNL     1       6.206   5.102  18.679  0.00  0.00    +0.000 C 
ATOM     22  N   UNL     1       6.839   5.391  19.612  0.00  0.00    +0.000 NA
ENDBRANCH  16  21
ENDBRANCH  11  16
TORSDOF 2
ENDMDL
MODEL 4
REMARK VINA RESULT:      -6.8      2.505      4.407
REMARK  Name = 
REMARK  3 active torsions:
REMARK  status: ('A' for Active; 'I' for Inactive)
REMARK    1  A    between atoms: C_1  and  C_2
REMARK    2  A    between atoms: C_11  and  C_13
REMARK    3  A    between atoms: C_13  and  C_14
REMARK                            x       y       z     vdW  Elec       q    Type
REMARK                         _______ _______ _______ _____ _____    ______ ____
ROOT
ATOM      1  C   UNL     1      -1.366  11.679  18.310  0.00  0.00    +0.000 C 
ATOM      2  C   UNL     1      -0.360  10.939  19.105  0.00  0.00    +0.000 A 
ATOM      3  C   UNL     1       0.078  11.234  20.380  0.00  0.00    +0.000 A 
ATOM      4  S   UNL     1       1.220  10.068  20.889  0.00  0.00    +0.000 S 
ATOM      5  C   UNL     1       1.097   9.276  19.352  0.00  0.00    +0.000 A 
ATOM      6  N   UNL     1       1.879   8.198  19.053  0.00  0.00    +0.000 N 
ATOM      7  C   UNL     1       2.158   7.950  17.633  0.00  0.00    +0.000 C 
ATOM      8  C   UNL     1       3.656   7.787  17.404  0.00  0.00    +0.000 C 
ATOM      9  C   UNL     1       4.417   6.804  18.305  0.00  0.00    +0.000 C 
ATOM     10  N   UNL     1       3.625   5.759  18.967  0.00  0.00    +0.000 N 
ATOM     11  C   UNL     1       3.600   4.477  18.412  0.00  0.00    +0.000 C 
ATOM     12  O   UNL     1       4.241   4.244  17.380  0.00  0.00    +0.000 OA
ATOM     13  C   UNL     1       2.867   6.218  20.146  0.00  0.00    +0.000 C 
ATOM     14  C   UNL     1       1.576   6.974  19.807  0.00  0.00    +0.000 C 
ATOM     15  N   UNL     1       0.239   9.833  18.528  0.00  0.00    +0.000 NA
ENDROOT
BRANCH  11  16
ATOM     16  C   UNL     1       2.808   3.329  19.085  0.00  0.00    +0.000 C 
ATOM     17  C   UNL     1       1.281   3.407  18.837  0.00  0.00    +0.000 C 
ATOM     18  C   UNL     1       0.591   3.265  20.197  0.00  0.00    +0.000 C 
ATOM     19  C   UNL     1       1.648   2.685  21.116  0.00  0.00    +0.000 C 
ATOM     20  C   UNL     1       2.917   3.375  20.631  0.00  0.00    +0.000 C 
BRANCH  16  21
ATOM     21  C   UNL     1       3.352   2.030  18.655  0.00  0.00    +0.000 C 
ATOM     22  N   UNL     1       3.787   0.991  18.359  0.00  0.00    +0.000 NA
ENDBRANCH  16  21
ENDBRANCH  11  16
TORSDOF 2
ENDMDL
MODEL 5
REMARK VINA RESULT:      -6.7      1.155      1.255
REMARK  Name = 
REMARK  3 active torsions:
REMARK  status: ('A' for Active; 'I' for Inactive)
REMARK    1  A    between atoms: C_1  and  C_2
REMARK    2  A    between atoms: C_11  and  C_13
REMARK    3  A    between atoms: C_13  and  C_14
REMARK                            x       y       z     vdW  Elec       q    Type
REMARK                         _______ _______ _______ _____ _____    ______ ____
ROOT
ATOM      1  C   UNL     1       0.129  11.629  21.419  0.00  0.00    +0.000 C 
ATOM      2  C   UNL     1       0.345  10.764  20.236  0.00  0.00    +0.000 A 
ATOM      3  C   UNL     1      -0.217  10.907  18.984  0.00  0.00    +0.000 A 
ATOM      4  S   UNL     1       0.365   9.685  17.940  0.00  0.00    +0.000 S 
ATOM      5  C   UNL     1       1.286   9.010  19.244  0.00  0.00    +0.000 A 
ATOM      6  N   UNL     1       2.002   7.860  19.076  0.00  0.00    +0.000 N 
ATOM      7  C   UNL     1       2.258   7.052  20.275  0.00  0.00    +0.000 C 
ATOM      8  C   UNL     1       1.852   5.602  20.038  0.00  0.00    +0.000 C 
ATOM      9  C   UNL     1       2.375   4.908  18.773  0.00  0.00    +0.000 C 
ATOM     10  N   UNL     1       3.576   5.479  18.148  0.00  0.00    +0.000 N 
ATOM     11  C   UNL     1       4.816   4.885  18.401  0.00  0.00    +0.000 C 
ATOM     12  O   UNL     1       4.881   3.894  19.139  0.00  0.00    +0.000 OA
ATOM     13  C   UNL     1       3.334   6.698  17.354  0.00  0.00    +0.000 C 
ATOM     14  C   UNL     1       3.171   7.972  18.192  0.00  0.00    +0.000 C 
ATOM     15  N   UNL     1       1.184   9.673  20.374  0.00  0.00    +0.000 NA
ENDROOT
BRANCH  11  16
ATOM     16  C   UNL     1       6.110   5.425  17.744  0.00  0.00    +0.000 C 
ATOM     17  C   UNL     1       7.364   5.276  18.641  0.00  0.00    +0.000 C 
ATOM     18  C   UNL     1       8.067   6.635  18.671  0.00  0.00    +0.000 C 
ATOM     19  C   UNL     1       7.496   7.399  17.494  0.00  0.00    +0.000 C 
ATOM     20  C   UNL     1       6.040   6.952  17.488  0.00  0.00    +0.000 C 
BRANCH  16  21
ATOM     21  C   UNL     1       6.312   4.779  16.436  0.00  0.00    +0.000 C 
ATOM     22  N   UNL     1       6.508   4.245  15.421  0.00  0.00    +0.000 NA
ENDBRANCH  16  21
ENDBRANCH  11  16
TORSDOF 2
ENDMDL
MODEL 6
REMARK VINA RESULT:      -6.6      1.938      2.479
REMARK  Name = 
REMARK  3 active torsions:
REMARK  status: ('A' for Active; 'I' for Inactive)
REMARK    1  A    between atoms: C_1  and  C_2
REMARK    2  A    between atoms: C_11  and  C_13
REMARK    3  A    between atoms: C_13  and  C_14
REMARK                            x       y       z     vdW  Elec       q    Type
REMARK                         _______ _______ _______ _____ _____    ______ ____
ROOT
ATOM      1  C   UNL     1       0.151  12.245  21.566  0.00  0.00    +0.000 C 
ATOM      2  C   UNL     1       0.219  11.253  20.468  0.00  0.00    +0.000 A 
ATOM      3  C   UNL     1      -0.418  11.318  19.246  0.00  0.00    +0.000 A 
ATOM      4  S   UNL     1      -0.003   9.956  18.299  0.00  0.00    +0.000 S 
ATOM      5  C   UNL     1       0.955   9.340  19.606  0.00  0.00    +0.000 A 
ATOM      6  N   UNL     1       1.571   8.126  19.513  0.00  0.00    +0.000 N 
ATOM      7  C   UNL     1       1.850   7.421  20.771  0.00  0.00    +0.000 C 
ATOM      8  C   UNL     1       1.322   5.992  20.711  0.00  0.00    +0.000 C 
ATOM      9  C   UNL     1       1.702   5.138  19.494  0.00  0.00    +0.000 C 
ATOM     10  N   UNL     1       2.895   5.546  18.740  0.00  0.00    +0.000 N 
ATOM     11  C   UNL     1       4.102   4.881  18.974  0.00  0.00    +0.000 C 
ATOM     12  O   UNL     1       4.145   3.966  19.805  0.00  0.00    +0.000 OA
ATOM     13  C   UNL     1       2.688   6.696  17.840  0.00  0.00    +0.000 C 
ATOM     14  C   UNL     1       2.679   8.055  18.550  0.00  0.00    +0.000 C 
ATOM     15  N   UNL     1       0.982  10.117  20.665  0.00  0.00    +0.000 NA
ENDROOT
BRANCH  11  16
ATOM     16  C   UNL     1       5.383   5.248  18.185  0.00  0.00    +0.000 C 
ATOM     17  C   UNL     1       5.216   6.502  17.291  0.00  0.00    +0.000 C 
ATOM     18  C   UNL     1       5.730   6.137  15.895  0.00  0.00    +0.000 C 
ATOM     19  C   UNL     1       6.562   4.886  16.097  0.00  0.00    +0.000 C 
ATOM     20  C   UNL     1       5.780   4.144  17.173  0.00  0.00    +0.000 C 
BRANCH  16  21
ATOM     21  C   UNL     1       6.513   5.405  19.116  0.00  0.00    +0.000 C 
ATOM     22  N   UNL     1       7.433   5.506  19.821  0.00  0.00    +0.000 NA
ENDBRANCH  16  21
ENDBRANCH  11  16
TORSDOF 2
ENDMDL
MODEL 7
REMARK VINA RESULT:      -6.4      3.519      6.118
REMARK  Name = 
REMARK  3 active torsions:
REMARK  status: ('A' for Active; 'I' for Inactive)
REMARK    1  A    between atoms: C_1  and  C_2
REMARK    2  A    between atoms: C_11  and  C_13
REMARK    3  A    between atoms: C_13  and  C_14
REMARK                            x       y       z     vdW  Elec       q    Type
REMARK                         _______ _______ _______ _____ _____    ______ ____
ROOT
ATOM      1  C   UNL     1       7.937  10.549  17.449  0.00  0.00    +0.000 C 
ATOM      2  C   UNL     1       7.913   9.133  17.882  0.00  0.00    +0.000 A 
ATOM      3  C   UNL     1       8.866   8.473  18.630  0.00  0.00    +0.000 A 
ATOM      4  S   UNL     1       8.375   6.859  18.906  0.00  0.00    +0.000 S 
ATOM      5  C   UNL     1       6.948   7.131  17.961  0.00  0.00    +0.000 A 
ATOM      6  N   UNL     1       6.069   6.117  17.709  0.00  0.00    +0.000 N 
ATOM      7  C   UNL     1       5.252   6.229  16.494  0.00  0.00    +0.000 C 
ATOM      8  C   UNL     1       5.350   4.953  15.666  0.00  0.00    +0.000 C 
ATOM      9  C   UNL     1       5.112   3.615  16.380  0.00  0.00    +0.000 C 
ATOM     10  N   UNL     1       4.353   3.657  17.637  0.00  0.00    +0.000 N 
ATOM     11  C   UNL     1       2.994   3.332  17.616  0.00  0.00    +0.000 C 
ATOM     12  O   UNL     1       2.456   3.017  16.547  0.00  0.00    +0.000 OA
ATOM     13  C   UNL     1       5.125   4.118  18.805  0.00  0.00    +0.000 C 
ATOM     14  C   UNL     1       5.312   5.639  18.875  0.00  0.00    +0.000 C 
ATOM     15  N   UNL     1       6.837   8.354  17.496  0.00  0.00    +0.000 NA
ENDROOT
BRANCH  11  16
ATOM     16  C   UNL     1       2.152   3.328  18.916  0.00  0.00    +0.000 C 
ATOM     17  C   UNL     1       1.787   4.749  19.417  0.00  0.00    +0.000 C 
ATOM     18  C   UNL     1       2.151   4.814  20.903  0.00  0.00    +0.000 C 
ATOM     19  C   UNL     1       2.297   3.370  21.336  0.00  0.00    +0.000 C 
ATOM     20  C   UNL     1       2.929   2.722  20.112  0.00  0.00    +0.000 C 
BRANCH  16  21
ATOM     21  C   UNL     1       0.946   2.506  18.725  0.00  0.00    +0.000 C 
ATOM     22  N   UNL     1      -0.011   1.871  18.531  0.00  0.00    +0.000 NA
ENDBRANCH  16  21
ENDBRANCH  11  16
TORSDOF 2
ENDMDL
MODEL 8
REMARK VINA RESULT:      -6.2      5.974     11.144
REMARK  Name = 
REMARK  3 active torsions:
REMARK  status: ('A' for Active; 'I' for Inactive)
REMARK    1  A    between atoms: C_1  and  C_2
REMARK    2  A    between atoms: C_11  and  C_13
REMARK    3  A    between atoms: C_13  and  C_14
REMARK                            x       y       z     vdW  Elec       q    Type
REMARK                         _______ _______ _______ _____ _____    ______ ____
ROOT
ATOM      1  C   UNL     1       2.138   8.854  17.950  0.00  0.00    +0.000 C 
ATOM      2  C   UNL     1       1.623  10.171  18.390  0.00  0.00    +0.000 A 
ATOM      3  C   UNL     1       2.075  11.415  18.002  0.00  0.00    +0.000 A 
ATOM      4  S   UNL     1       1.141  12.636  18.751  0.00  0.00    +0.000 S 
ATOM      5  C   UNL     1       0.230  11.423  19.590  0.00  0.00    +0.000 A 
ATOM      6  N   UNL     1      -0.732  11.768  20.494  0.00  0.00    +0.000 N 
ATOM      7  C   UNL     1      -1.036  10.793  21.549  0.00  0.00    +0.000 C 
ATOM      8  C   UNL     1      -0.980  11.455  22.921  0.00  0.00    +0.000 C 
ATOM      9  C   UNL     1      -1.764  12.759  23.120  0.00  0.00    +0.000 C 
ATOM     10  N   UNL     1      -2.869  13.021  22.188  0.00  0.00    +0.000 N 
ATOM     11  C   UNL     1      -4.176  12.741  22.594  0.00  0.00    +0.000 C 
ATOM     12  O   UNL     1      -4.381  12.282  23.724  0.00  0.00    +0.000 OA
ATOM     13  C   UNL     1      -2.449  13.503  20.859  0.00  0.00    +0.000 C 
ATOM     14  C   UNL     1      -1.930  12.401  19.926  0.00  0.00    +0.000 C 
ATOM     15  N   UNL     1       0.585  10.191  19.304  0.00  0.00    +0.000 NA
ENDROOT
BRANCH  11  16
ATOM     16  C   UNL     1      -5.381  13.028  21.665  0.00  0.00    +0.000 C 
ATOM     17  C   UNL     1      -6.747  12.662  22.298  0.00  0.00    +0.000 C 
ATOM     18  C   UNL     1      -7.510  11.813  21.276  0.00  0.00    +0.000 C 
ATOM     19  C   UNL     1      -6.805  12.058  19.957  0.00  0.00    +0.000 C 
ATOM     20  C   UNL     1      -5.346  12.161  20.380  0.00  0.00    +0.000 C 
BRANCH  16  21
ATOM     21  C   UNL     1      -5.355  14.436  21.234  0.00  0.00    +0.000 C 
ATOM     22  N   UNL     1      -5.374  15.555  20.916  0.00  0.00    +0.000 NA
ENDBRANCH  16  21
ENDBRANCH  11  16
TORSDOF 2
ENDMDL
MODEL 9
REMARK VINA RESULT:      -6.2      1.759      2.305
REMARK  Name = 
REMARK  3 active torsions:
REMARK  status: ('A' for Active; 'I' for Inactive)
REMARK    1  A    between atoms: C_1  and  C_2
REMARK    2  A    between atoms: C_11  and  C_13
REMARK    3  A    between atoms: C_13  and  C_14
REMARK                            x       y       z     vdW  Elec       q    Type
REMARK                         _______ _______ _______ _____ _____    ______ ____
ROOT
ATOM      1  C   UNL     1       0.084  13.062  20.389  0.00  0.00    +0.000 C 
ATOM      2  C   UNL     1       0.074  11.821  19.581  0.00  0.00    +0.000 A 
ATOM      3  C   UNL     1      -0.729  11.539  18.495  0.00  0.00    +0.000 A 
ATOM      4  S   UNL     1      -0.348   9.993  17.873  0.00  0.00    +0.000 S 
ATOM      5  C   UNL     1       0.826   9.778  19.130  0.00  0.00    +0.000 A 
ATOM      6  N   UNL     1       1.513   8.605  19.254  0.00  0.00    +0.000 N 
ATOM      7  C   UNL     1       2.017   8.266  20.591  0.00  0.00    +0.000 C 
ATOM      8  C   UNL     1       1.596   6.852  20.977  0.00  0.00    +0.000 C 
ATOM      9  C   UNL     1       1.867   5.724  19.973  0.00  0.00    +0.000 C 
ATOM     10  N   UNL     1       2.910   5.964  18.966  0.00  0.00    +0.000 N 
ATOM     11  C   UNL     1       4.184   5.429  19.173  0.00  0.00    +0.000 C 
ATOM     12  O   UNL     1       4.412   4.766  20.192  0.00  0.00    +0.000 OA
ATOM     13  C   UNL     1       2.493   6.829  17.847  0.00  0.00    +0.000 C 
ATOM     14  C   UNL     1       2.480   8.326  18.182  0.00  0.00    +0.000 C 
ATOM     15  N   UNL     1       0.941  10.805  19.940  0.00  0.00    +0.000 NA
ENDROOT
BRANCH  11  16
ATOM     16  C   UNL     1       5.311   5.624  18.129  0.00  0.00    +0.000 C 
ATOM     17  C   UNL     1       6.719   5.273  18.673  0.00  0.00    +0.000 C 
ATOM     18  C   UNL     1       7.644   6.446  18.333  0.00  0.00    +0.000 C 
ATOM     19  C   UNL     1       6.912   7.225  17.258  0.00  0.00    +0.000 C 
ATOM     20  C   UNL     1       5.459   7.106  17.700  0.00  0.00    +0.000 C 
BRANCH  16  21
ATOM     21  C   UNL     1       5.003   4.853  16.913  0.00  0.00    +0.000 C 
ATOM     22  N   UNL     1       4.750   4.206  15.979  0.00  0.00    +0.000 NA
ENDBRANCH  16  21
ENDBRANCH  11  16
TORSDOF 2
ENDMDL
