MODEL 1
REMARK VINA RESULT:      -7.0      0.000      0.000
REMARK  Name = 
REMARK  4 active torsions:
REMARK  status: ('A' for Active; 'I' for Inactive)
REMARK    1  A    between atoms: C_1  and  O_2
REMARK    2  A    between atoms: O_2  and  C_3
REMARK    3  A    between atoms: C_9  and  N_10
REMARK    4  A    between atoms: C_13  and  N_14
REMARK                            x       y       z     vdW  Elec       q    Type
REMARK                         _______ _______ _______ _____ _____    ______ ____
ROOT
ATOM      1  N   UNL     1       5.522   4.793  15.374  0.00  0.00    +0.000 N 
ATOM      2  C   UNL     1       5.158   6.153  15.770  0.00  0.00    +0.000 C 
ATOM      3  C   UNL     1       5.754   6.295  17.171  0.00  0.00    +0.000 C 
ATOM      4  C   UNL     1       5.612   4.901  17.784  0.00  0.00    +0.000 C 
ATOM      5  C   UNL     1       5.842   3.980  16.559  0.00  0.00    +0.000 C 
ENDROOT
BRANCH   4   6
ATOM      6  N   UNL     1       4.352   4.592  18.470  0.00  0.00    +0.000 N 
ATOM      7  C   UNL     1       3.198   5.323  18.514  0.00  0.00    +0.000 C 
ATOM      8  O   UNL     1       2.938   6.356  17.912  0.00  0.00    +0.000 OA
ATOM      9  C   UNL     1       2.232   4.650  19.473  0.00  0.00    +0.000 C 
ATOM     10  C   UNL     1       2.293   4.929  20.975  0.00  0.00    +0.000 C 
ATOM     11  C   UNL     1       1.803   3.583  21.557  0.00  0.00    +0.000 C 
ATOM     12  C   UNL     1       2.227   2.536  20.521  0.00  0.00    +0.000 C 
ATOM     13  N   UNL     1       2.803   3.332  19.467  0.00  0.00    +0.000 N 
ATOM     14  C   UNL     1       4.175   3.440  19.216  0.00  0.00    +0.000 C 
ATOM     15  O   UNL     1       5.055   2.708  19.627  0.00  0.00    +0.000 OA
ENDBRANCH   4   6
BRANCH   1  22
ATOM     16  C   UNL     1       7.134   4.757  13.477  0.00  0.00    +0.000 A 
ATOM     17  C   UNL     1       7.446   4.315  12.172  0.00  0.00    +0.000 A 
ATOM     18  C   UNL     1       6.531   3.598  11.414  0.00  0.00    +0.000 A 
ATOM     19  C   UNL     1       5.275   3.328  11.950  0.00  0.00    +0.000 A 
ATOM     20 CL   UNL     1       4.124   2.453  11.034  0.00  0.00    +0.000 Cl
ATOM     21  C   UNL     1       4.962   3.756  13.251  0.00  0.00    +0.000 A 
ATOM     22  C   UNL     1       5.879   4.447  14.074  0.00  0.00    +0.000 A 
BRANCH  16  24
ATOM     23  C   UNL     1       9.149   6.030  13.507  0.00  0.00    +0.000 C 
ATOM     24  O   UNL     1       8.038   5.492  14.215  0.00  0.00    +0.000 OA
ENDBRANCH  16  24
ENDBRANCH   1  22
TORSDOF 3
ENDMDL
MODEL 2
REMARK VINA RESULT:      -6.5      0.816      1.802
REMARK  Name = 
REMARK  4 active torsions:
REMARK  status: ('A' for Active; 'I' for Inactive)
REMARK    1  A    between atoms: C_1  and  O_2
REMARK    2  A    between atoms: O_2  and  C_3
REMARK    3  A    between atoms: C_9  and  N_10
REMARK    4  A    between atoms: C_13  and  N_14
REMARK                            x       y       z     vdW  Elec       q    Type
REMARK                         _______ _______ _______ _____ _____    ______ ____
ROOT
ATOM      1  N   UNL     1       5.633   4.968  15.584  0.00  0.00    +0.000 N 
ATOM      2  C   UNL     1       5.129   6.292  15.944  0.00  0.00    +0.000 C 
ATOM      3  C   UNL     1       5.846   6.610  17.256  0.00  0.00    +0.000 C 
ATOM      4  C   UNL     1       5.966   5.257  17.958  0.00  0.00    +0.000 C 
ATOM      5  C   UNL     1       6.189   4.290  16.768  0.00  0.00    +0.000 C 
ENDROOT
BRANCH   4   6
ATOM      6  N   UNL     1       4.842   4.835  18.802  0.00  0.00    +0.000 N 
ATOM      7  C   UNL     1       4.627   3.626  19.402  0.00  0.00    +0.000 C 
ATOM      8  O   UNL     1       5.376   2.659  19.436  0.00  0.00    +0.000 OA
ATOM      9  C   UNL     1       3.252   3.640  20.046  0.00  0.00    +0.000 C 
ATOM     10  C   UNL     1       2.002   3.296  19.236  0.00  0.00    +0.000 C 
ATOM     11  C   UNL     1       0.932   4.161  19.942  0.00  0.00    +0.000 C 
ATOM     12  C   UNL     1       1.706   5.368  20.485  0.00  0.00    +0.000 C 
ATOM     13  N   UNL     1       3.072   5.062  20.142  0.00  0.00    +0.000 N 
ATOM     14  C   UNL     1       3.785   5.674  19.106  0.00  0.00    +0.000 C 
ATOM     15  O   UNL     1       3.499   6.707  18.531  0.00  0.00    +0.000 OA
ENDBRANCH   4   6
BRANCH   1  22
ATOM     16  C   UNL     1       7.122   4.818  13.595  0.00  0.00    +0.000 A 
ATOM     17  C   UNL     1       7.333   4.336  12.284  0.00  0.00    +0.000 A 
ATOM     18  C   UNL     1       6.339   3.651  11.597  0.00  0.00    +0.000 A 
ATOM     19  C   UNL     1       5.107   3.452  12.214  0.00  0.00    +0.000 A 
ATOM     20 CL   UNL     1       3.863   2.618  11.388  0.00  0.00    +0.000 Cl
ATOM     21  C   UNL     1       4.895   3.919  13.522  0.00  0.00    +0.000 A 
ATOM     22  C   UNL     1       5.893   4.580  14.274  0.00  0.00    +0.000 A 
BRANCH  16  24
ATOM     23  C   UNL     1       9.191   5.996  13.475  0.00  0.00    +0.000 C 
ATOM     24  O   UNL     1       8.104   5.521  14.261  0.00  0.00    +0.000 OA
ENDBRANCH  16  24
ENDBRANCH   1  22
TORSDOF 3
ENDMDL
MODEL 3
REMARK VINA RESULT:      -6.1      4.851      6.528
REMARK  Name = 
REMARK  4 active torsions:
REMARK  status: ('A' for Active; 'I' for Inactive)
REMARK    1  A    between atoms: C_1  and  O_2
REMARK    2  A    between atoms: O_2  and  C_3
REMARK    3  A    between atoms: C_9  and  N_10
REMARK    4  A    between atoms: C_13  and  N_14
REMARK                            x       y       z     vdW  Elec       q    Type
REMARK                         _______ _______ _______ _____ _____    ______ ____
ROOT
ATOM      1  N   UNL     1       2.049   6.893  18.513  0.00  0.00    +0.000 N 
ATOM      2  C   UNL     1       1.588   7.864  17.522  0.00  0.00    +0.000 C 
ATOM      3  C   UNL     1       2.225   9.177  17.976  0.00  0.00    +0.000 C 
ATOM      4  C   UNL     1       2.225   9.089  19.503  0.00  0.00    +0.000 C 
ATOM      5  C   UNL     1       2.483   7.579  19.742  0.00  0.00    +0.000 C 
ENDROOT
BRANCH   4   6
ATOM      6  N   UNL     1       1.024   9.555  20.204  0.00  0.00    +0.000 N 
ATOM      7  C   UNL     1      -0.120  10.090  19.683  0.00  0.00    +0.000 C 
ATOM      8  O   UNL     1      -0.424  10.214  18.505  0.00  0.00    +0.000 OA
ATOM      9  C   UNL     1      -1.008  10.549  20.826  0.00  0.00    +0.000 C 
ATOM     10  C   UNL     1      -0.825  11.929  21.459  0.00  0.00    +0.000 C 
ATOM     11  C   UNL     1      -1.271  11.661  22.915  0.00  0.00    +0.000 C 
ATOM     12  C   UNL     1      -0.936  10.184  23.156  0.00  0.00    +0.000 C 
ATOM     13  N   UNL     1      -0.444   9.746  21.875  0.00  0.00    +0.000 N 
ATOM     14  C   UNL     1       0.903   9.511  21.582  0.00  0.00    +0.000 C 
ATOM     15  O   UNL     1       1.811   9.363  22.378  0.00  0.00    +0.000 OA
ENDBRANCH   4   6
BRANCH   1  22
ATOM     16  C   UNL     1       3.605   5.187  17.585  0.00  0.00    +0.000 A 
ATOM     17  C   UNL     1       3.898   3.824  17.354  0.00  0.00    +0.000 A 
ATOM     18  C   UNL     1       2.990   2.825  17.680  0.00  0.00    +0.000 A 
ATOM     19  C   UNL     1       1.762   3.182  18.229  0.00  0.00    +0.000 A 
ATOM     20 CL   UNL     1       0.621   1.973  18.632  0.00  0.00    +0.000 Cl
ATOM     21  C   UNL     1       1.470   4.535  18.471  0.00  0.00    +0.000 A 
ATOM     22  C   UNL     1       2.382   5.580  18.198  0.00  0.00    +0.000 A 
BRANCH  16  24
ATOM     23  C   UNL     1       5.142   6.035  15.972  0.00  0.00    +0.000 C 
ATOM     24  O   UNL     1       4.501   6.176  17.234  0.00  0.00    +0.000 OA
ENDBRANCH  16  24
ENDBRANCH   1  22
TORSDOF 3
ENDMDL
MODEL 4
REMARK VINA RESULT:      -6.1      5.944      8.364
REMARK  Name = 
REMARK  4 active torsions:
REMARK  status: ('A' for Active; 'I' for Inactive)
REMARK    1  A    between atoms: C_1  and  O_2
REMARK    2  A    between atoms: O_2  and  C_3
REMARK    3  A    between atoms: C_9  and  N_10
REMARK    4  A    between atoms: C_13  and  N_14
REMARK                            x       y       z     vdW  Elec       q    Type
REMARK                         _______ _______ _______ _____ _____    ______ ____
ROOT
ATOM      1  N   UNL     1       1.896   8.274  19.466  0.00  0.00    +0.000 N 
ATOM      2  C   UNL     1       1.506   8.337  20.873  0.00  0.00    +0.000 C 
ATOM      3  C   UNL     1       0.159   9.059  20.846  0.00  0.00    +0.000 C 
ATOM      4  C   UNL     1       0.294  10.066  19.702  0.00  0.00    +0.000 C 
ATOM      5  C   UNL     1       1.167   9.287  18.684  0.00  0.00    +0.000 C 
ENDROOT
BRANCH   4   6
ATOM      6  N   UNL     1       0.867  11.377  20.023  0.00  0.00    +0.000 N 
ATOM      7  C   UNL     1       0.636  12.171  21.111  0.00  0.00    +0.000 C 
ATOM      8  O   UNL     1      -0.036  11.915  22.100  0.00  0.00    +0.000 OA
ATOM      9  C   UNL     1       1.356  13.493  20.911  0.00  0.00    +0.000 C 
ATOM     10  C   UNL     1       0.705  14.631  20.124  0.00  0.00    +0.000 C 
ATOM     11  C   UNL     1       1.942  15.331  19.516  0.00  0.00    +0.000 C 
ATOM     12  C   UNL     1       2.980  14.214  19.357  0.00  0.00    +0.000 C 
ATOM     13  N   UNL     1       2.320  13.069  19.933  0.00  0.00    +0.000 N 
ATOM     14  C   UNL     1       1.773  12.015  19.194  0.00  0.00    +0.000 C 
ATOM     15  O   UNL     1       1.994  11.746  18.029  0.00  0.00    +0.000 OA
ENDBRANCH   4   6
BRANCH   1  22
ATOM     16  C   UNL     1       2.400   5.839  19.347  0.00  0.00    +0.000 A 
ATOM     17  C   UNL     1       3.052   4.777  18.682  0.00  0.00    +0.000 A 
ATOM     18  C   UNL     1       3.892   5.008  17.601  0.00  0.00    +0.000 A 
ATOM     19  C   UNL     1       4.105   6.318  17.180  0.00  0.00    +0.000 A 
ATOM     20 CL   UNL     1       5.141   6.633  15.856  0.00  0.00    +0.000 Cl
ATOM     21  C   UNL     1       3.450   7.378  17.830  0.00  0.00    +0.000 A 
ATOM     22  C   UNL     1       2.551   7.183  18.904  0.00  0.00    +0.000 A 
BRANCH  16  24
ATOM     23  C   UNL     1       1.315   4.243  20.746  0.00  0.00    +0.000 C 
ATOM     24  O   UNL     1       1.587   5.605  20.436  0.00  0.00    +0.000 OA
ENDBRANCH  16  24
ENDBRANCH   1  22
TORSDOF 3
ENDMDL
MODEL 5
REMARK VINA RESULT:      -6.1      3.354      5.064
REMARK  Name = 
REMARK  4 active torsions:
REMARK  status: ('A' for Active; 'I' for Inactive)
REMARK    1  A    between atoms: C_1  and  O_2
REMARK    2  A    between atoms: O_2  and  C_3
REMARK    3  A    between atoms: C_9  and  N_10
REMARK    4  A    between atoms: C_13  and  N_14
REMARK                            x       y       z     vdW  Elec       q    Type
REMARK                         _______ _______ _______ _____ _____    ______ ____
ROOT
ATOM      1  N   UNL     1       3.902   5.852  17.758  0.00  0.00    +0.000 N 
ATOM      2  C   UNL     1       2.884   4.969  18.324  0.00  0.00    +0.000 C 
ATOM      3  C   UNL     1       1.566   5.612  17.896  0.00  0.00    +0.000 C 
ATOM      4  C   UNL     1       1.851   7.115  17.928  0.00  0.00    +0.000 C 
ATOM      5  C   UNL     1       3.328   7.176  17.462  0.00  0.00    +0.000 C 
ENDROOT
BRANCH   4   6
ATOM      6  N   UNL     1       1.651   7.811  19.204  0.00  0.00    +0.000 N 
ATOM      7  C   UNL     1       1.715   7.310  20.473  0.00  0.00    +0.000 C 
ATOM      8  O   UNL     1       2.043   6.185  20.823  0.00  0.00    +0.000 OA
ATOM      9  C   UNL     1       1.289   8.395  21.447  0.00  0.00    +0.000 C 
ATOM     10  C   UNL     1      -0.188   8.626  21.769  0.00  0.00    +0.000 C 
ATOM     11  C   UNL     1      -0.205  10.145  22.059  0.00  0.00    +0.000 C 
ATOM     12  C   UNL     1       0.931  10.715  21.203  0.00  0.00    +0.000 C 
ATOM     13  N   UNL     1       1.516   9.540  20.609  0.00  0.00    +0.000 N 
ATOM     14  C   UNL     1       1.343   9.158  19.274  0.00  0.00    +0.000 C 
ATOM     15  O   UNL     1       0.936   9.851  18.361  0.00  0.00    +0.000 OA
ENDBRANCH   4   6
BRANCH   1  22
ATOM     16  C   UNL     1       6.302   5.227  17.983  0.00  0.00    +0.000 A 
ATOM     17  C   UNL     1       7.466   4.693  17.388  0.00  0.00    +0.000 A 
ATOM     18  C   UNL     1       7.497   4.346  16.044  0.00  0.00    +0.000 A 
ATOM     19  C   UNL     1       6.359   4.548  15.268  0.00  0.00    +0.000 A 
ATOM     20 CL   UNL     1       6.371   4.136  13.608  0.00  0.00    +0.000 Cl
ATOM     21  C   UNL     1       5.194   5.069  15.857  0.00  0.00    +0.000 A 
ATOM     22  C   UNL     1       5.104   5.391  17.230  0.00  0.00    +0.000 A 
BRANCH  16  24
ATOM     23  C   UNL     1       7.548   5.681  19.963  0.00  0.00    +0.000 C 
ATOM     24  O   UNL     1       6.286   5.595  19.312  0.00  0.00    +0.000 OA
ENDBRANCH  16  24
ENDBRANCH   1  22
TORSDOF 3
ENDMDL
MODEL 6
REMARK VINA RESULT:      -6.1      6.012      8.497
REMARK  Name = 
REMARK  4 active torsions:
REMARK  status: ('A' for Active; 'I' for Inactive)
REMARK    1  A    between atoms: C_1  and  O_2
REMARK    2  A    between atoms: O_2  and  C_3
REMARK    3  A    between atoms: C_9  and  N_10
REMARK    4  A    between atoms: C_13  and  N_14
REMARK                            x       y       z     vdW  Elec       q    Type
REMARK                         _______ _______ _______ _____ _____    ______ ____
ROOT
ATOM      1  N   UNL     1       1.635   8.069  20.181  0.00  0.00    +0.000 N 
ATOM      2  C   UNL     1       1.255   8.538  21.513  0.00  0.00    +0.000 C 
ATOM      3  C   UNL     1      -0.009   9.360  21.262  0.00  0.00    +0.000 C 
ATOM      4  C   UNL     1       0.229  10.012  19.900  0.00  0.00    +0.000 C 
ATOM      5  C   UNL     1       1.014   8.911  19.143  0.00  0.00    +0.000 C 
ENDROOT
BRANCH   4   6
ATOM      6  N   UNL     1       0.936  11.298  19.883  0.00  0.00    +0.000 N 
ATOM      7  C   UNL     1       0.890  12.313  20.795  0.00  0.00    +0.000 C 
ATOM      8  O   UNL     1       0.312  12.331  21.874  0.00  0.00    +0.000 OA
ATOM      9  C   UNL     1       1.686  13.489  20.256  0.00  0.00    +0.000 C 
ATOM     10  C   UNL     1       1.044  14.505  19.310  0.00  0.00    +0.000 C 
ATOM     11  C   UNL     1       2.258  14.939  18.457  0.00  0.00    +0.000 C 
ATOM     12  C   UNL     1       3.180  13.715  18.444  0.00  0.00    +0.000 C 
ATOM     13  N   UNL     1       2.499  12.782  19.306  0.00  0.00    +0.000 N 
ATOM     14  C   UNL     1       1.792  11.661  18.859  0.00  0.00    +0.000 C 
ATOM     15  O   UNL     1       1.861  11.142  17.761  0.00  0.00    +0.000 OA
ENDBRANCH   4   6
BRANCH   1  22
ATOM     16  C   UNL     1       3.084   6.513  18.887  0.00  0.00    +0.000 A 
ATOM     17  C   UNL     1       3.637   5.221  18.746  0.00  0.00    +0.000 A 
ATOM     18  C   UNL     1       3.282   4.186  19.602  0.00  0.00    +0.000 A 
ATOM     19  C   UNL     1       2.349   4.431  20.606  0.00  0.00    +0.000 A 
ATOM     20 CL   UNL     1       1.888   3.172  21.669  0.00  0.00    +0.000 Cl
ATOM     21  C   UNL     1       1.805   5.717  20.758  0.00  0.00    +0.000 A 
ATOM     22  C   UNL     1       2.173   6.809  19.939  0.00  0.00    +0.000 A 
BRANCH  16  24
ATOM     23  C   UNL     1       4.439   7.242  17.066  0.00  0.00    +0.000 C 
ATOM     24  O   UNL     1       3.421   7.529  18.018  0.00  0.00    +0.000 OA
ENDBRANCH  16  24
ENDBRANCH   1  22
TORSDOF 3
ENDMDL
MODEL 7
REMARK VINA RESULT:      -6.0      6.908      9.424
REMARK  Name = 
REMARK  4 active torsions:
REMARK  status: ('A' for Active; 'I' for Inactive)
REMARK    1  A    between atoms: C_1  and  O_2
REMARK    2  A    between atoms: O_2  and  C_3
REMARK    3  A    between atoms: C_9  and  N_10
REMARK    4  A    between atoms: C_13  and  N_14
REMARK                            x       y       z     vdW  Elec       q    Type
REMARK                         _______ _______ _______ _____ _____    ______ ____
ROOT
ATOM      1  N   UNL     1       1.092   8.660  21.069  0.00  0.00    +0.000 N 
ATOM      2  C   UNL     1       1.538   9.092  22.392  0.00  0.00    +0.000 C 
ATOM      3  C   UNL     1       0.269   9.641  23.043  0.00  0.00    +0.000 C 
ATOM      4  C   UNL     1      -0.503  10.279  21.887  0.00  0.00    +0.000 C 
ATOM      5  C   UNL     1      -0.172   9.326  20.709  0.00  0.00    +0.000 C 
ENDROOT
BRANCH   4   6
ATOM      6  N   UNL     1      -0.196  11.676  21.562  0.00  0.00    +0.000 N 
ATOM      7  C   UNL     1       0.574  12.171  20.548  0.00  0.00    +0.000 C 
ATOM      8  O   UNL     1       1.104  11.553  19.634  0.00  0.00    +0.000 OA
ATOM      9  C   UNL     1       0.702  13.674  20.722  0.00  0.00    +0.000 C 
ATOM     10  C   UNL     1       1.775  14.271  21.634  0.00  0.00    +0.000 C 
ATOM     11  C   UNL     1       1.079  15.562  22.123  0.00  0.00    +0.000 C 
ATOM     12  C   UNL     1      -0.416  15.227  22.104  0.00  0.00    +0.000 C 
ATOM     13  N   UNL     1      -0.447  13.894  21.557  0.00  0.00    +0.000 N 
ATOM     14  C   UNL     1      -0.683  12.736  22.306  0.00  0.00    +0.000 C 
ATOM     15  O   UNL     1      -1.160  12.671  23.423  0.00  0.00    +0.000 OA
ENDBRANCH   4   6
BRANCH   1  22
ATOM     16  C   UNL     1       2.289   7.532  19.200  0.00  0.00    +0.000 A 
ATOM     17  C   UNL     1       2.807   6.339  18.650  0.00  0.00    +0.000 A 
ATOM     18  C   UNL     1       2.608   5.112  19.269  0.00  0.00    +0.000 A 
ATOM     19  C   UNL     1       1.868   5.062  20.447  0.00  0.00    +0.000 A 
ATOM     20 CL   UNL     1       1.602   3.563  21.227  0.00  0.00    +0.000 Cl
ATOM     21  C   UNL     1       1.360   6.248  21.005  0.00  0.00    +0.000 A 
ATOM     22  C   UNL     1       1.578   7.522  20.433  0.00  0.00    +0.000 A 
BRANCH  16  24
ATOM     23  C   UNL     1       1.573   9.041  17.499  0.00  0.00    +0.000 C 
ATOM     24  O   UNL     1       2.466   8.744  18.566  0.00  0.00    +0.000 OA
ENDBRANCH  16  24
ENDBRANCH   1  22
TORSDOF 3
ENDMDL
MODEL 8
REMARK VINA RESULT:      -6.0      6.034      8.340
REMARK  Name = 
REMARK  4 active torsions:
REMARK  status: ('A' for Active; 'I' for Inactive)
REMARK    1  A    between atoms: C_1  and  O_2
REMARK    2  A    between atoms: O_2  and  C_3
REMARK    3  A    between atoms: C_9  and  N_10
REMARK    4  A    between atoms: C_13  and  N_14
REMARK                            x       y       z     vdW  Elec       q    Type
REMARK                         _______ _______ _______ _____ _____    ______ ____
ROOT
ATOM      1  N   UNL     1       1.884   8.380  19.216  0.00  0.00    +0.000 N 
ATOM      2  C   UNL     1       1.570   8.589  20.628  0.00  0.00    +0.000 C 
ATOM      3  C   UNL     1       0.174   9.211  20.602  0.00  0.00    +0.000 C 
ATOM      4  C   UNL     1       0.169  10.075  19.341  0.00  0.00    +0.000 C 
ATOM      5  C   UNL     1       1.039   9.238  18.369  0.00  0.00    +0.000 C 
ENDROOT
BRANCH   4   6
ATOM      6  N   UNL     1       0.661  11.452  19.466  0.00  0.00    +0.000 N 
ATOM      7  C   UNL     1       1.752  12.029  18.881  0.00  0.00    +0.000 C 
ATOM      8  O   UNL     1       2.507  11.542  18.051  0.00  0.00    +0.000 OA
ATOM      9  C   UNL     1       1.919  13.432  19.438  0.00  0.00    +0.000 C 
ATOM     10  C   UNL     1       2.674  13.674  20.746  0.00  0.00    +0.000 C 
ATOM     11  C   UNL     1       1.947  14.923  21.294  0.00  0.00    +0.000 C 
ATOM     12  C   UNL     1       0.520  14.813  20.745  0.00  0.00    +0.000 C 
ATOM     13  N   UNL     1       0.578  13.637  19.914  0.00  0.00    +0.000 N 
ATOM     14  C   UNL     1       0.032  12.396  20.258  0.00  0.00    +0.000 C 
ATOM     15  O   UNL     1      -0.787  12.173  21.129  0.00  0.00    +0.000 OA
ENDBRANCH   4   6
BRANCH   1  22
ATOM     16  C   UNL     1       2.477   5.963  19.288  0.00  0.00    +0.000 A 
ATOM     17  C   UNL     1       3.177   4.879  18.714  0.00  0.00    +0.000 A 
ATOM     18  C   UNL     1       4.024   5.059  17.628  0.00  0.00    +0.000 A 
ATOM     19  C   UNL     1       4.195   6.340  17.111  0.00  0.00    +0.000 A 
ATOM     20 CL   UNL     1       5.239   6.592  15.779  0.00  0.00    +0.000 Cl
ATOM     21  C   UNL     1       3.494   7.421  17.671  0.00  0.00    +0.000 A 
ATOM     22  C   UNL     1       2.587   7.275  18.746  0.00  0.00    +0.000 A 
BRANCH  16  24
ATOM     23  C   UNL     1       1.210   4.454  20.629  0.00  0.00    +0.000 C 
ATOM     24  O   UNL     1       1.659   5.782  20.383  0.00  0.00    +0.000 OA
ENDBRANCH  16  24
ENDBRANCH   1  22
TORSDOF 3
ENDMDL
MODEL 9
REMARK VINA RESULT:      -6.0      8.672     11.161
REMARK  Name = 
REMARK  4 active torsions:
REMARK  status: ('A' for Active; 'I' for Inactive)
REMARK    1  A    between atoms: C_1  and  O_2
REMARK    2  A    between atoms: O_2  and  C_3
REMARK    3  A    between atoms: C_9  and  N_10
REMARK    4  A    between atoms: C_13  and  N_14
REMARK                            x       y       z     vdW  Elec       q    Type
REMARK                         _______ _______ _______ _____ _____    ______ ____
ROOT
ATOM      1  N   UNL     1      -0.832  10.503  19.754  0.00  0.00    +0.000 N 
ATOM      2  C   UNL     1      -1.730  10.583  18.604  0.00  0.00    +0.000 C 
ATOM      3  C   UNL     1      -1.890  12.086  18.371  0.00  0.00    +0.000 C 
ATOM      4  C   UNL     1      -1.854  12.691  19.775  0.00  0.00    +0.000 C 
ATOM      5  C   UNL     1      -0.836  11.774  20.499  0.00  0.00    +0.000 C 
ENDROOT
BRANCH   4   6
ATOM      6  N   UNL     1      -3.124  12.779  20.504  0.00  0.00    +0.000 N 
ATOM      7  C   UNL     1      -4.394  12.578  20.041  0.00  0.00    +0.000 C 
ATOM      8  O   UNL     1      -4.738  12.191  18.933  0.00  0.00    +0.000 OA
ATOM      9  C   UNL     1      -5.376  12.930  21.144  0.00  0.00    +0.000 C 
ATOM     10  C   UNL     1      -5.838  14.372  21.354  0.00  0.00    +0.000 C 
ATOM     11  C   UNL     1      -6.088  14.395  22.880  0.00  0.00    +0.000 C 
ATOM     12  C   UNL     1      -5.109  13.362  23.449  0.00  0.00    +0.000 C 
ATOM     13  N   UNL     1      -4.489  12.813  22.269  0.00  0.00    +0.000 N 
ATOM     14  C   UNL     1      -3.190  13.109  21.846  0.00  0.00    +0.000 C 
ATOM     15  O   UNL     1      -2.304  13.620  22.504  0.00  0.00    +0.000 OA
ENDBRANCH   4   6
BRANCH   1  22
ATOM     16  C   UNL     1       0.311   8.703  21.038  0.00  0.00    +0.000 A 
ATOM     17  C   UNL     1       1.293   7.688  21.074  0.00  0.00    +0.000 A 
ATOM     18  C   UNL     1       2.160   7.484  20.008  0.00  0.00    +0.000 A 
ATOM     19  C   UNL     1       2.064   8.311  18.892  0.00  0.00    +0.000 A 
ATOM     20 CL   UNL     1       3.124   8.087  17.569  0.00  0.00    +0.000 Cl
ATOM     21  C   UNL     1       1.082   9.315  18.847  0.00  0.00    +0.000 A 
ATOM     22  C   UNL     1       0.150   9.527  19.889  0.00  0.00    +0.000 A 
BRANCH  16  24
ATOM     23  C   UNL     1       0.055   9.504  23.269  0.00  0.00    +0.000 C 
ATOM     24  O   UNL     1      -0.529   8.918  22.111  0.00  0.00    +0.000 OA
ENDBRANCH  16  24
ENDBRANCH   1  22
TORSDOF 3
ENDMDL
