MODEL 1
REMARK VINA RESULT:      -8.4      0.000      0.000
REMARK  Name = 
REMARK  12 active torsions:
REMARK  status: ('A' for Active; 'I' for Inactive)
REMARK    1  A    between atoms: C_1  and  O_2
REMARK    2  A    between atoms: O_2  and  C_3
REMARK    3  A    between atoms: C_5  and  C_6
REMARK    4  A    between atoms: N_7  and  N_8
REMARK    5  A    between atoms: C_9  and  C_11
REMARK    6  A    between atoms: C_11  and  C_12
REMARK    7  A    between atoms: C_12  and  N_13
REMARK    8  A    between atoms: C_15  and  C_16
REMARK    9  A    between atoms: C_18  and  C_19
REMARK   10  A    between atoms: C_26  and  O_27
REMARK   11  A    between atoms: O_27  and  C_28
REMARK   12  A    between atoms: C_28  and  C_29
REMARK                            x       y       z     vdW  Elec       q    Type
REMARK                         _______ _______ _______ _____ _____    ______ ____
ROOT
ATOM      1  C   UNL     1       7.926   7.841  17.361  0.00  0.00    +0.000 C 
ATOM      2  N   UNL     1       7.833   8.970  18.028  0.00  0.00    +0.000 NA
ENDROOT
BRANCH   1   5
ATOM      3  C   UNL     1       5.880   4.774  16.248  0.00  0.00    +0.000 A 
ATOM      4  C   UNL     1       6.912   5.744  16.361  0.00  0.00    +0.000 A 
ATOM      5  C   UNL     1       6.779   6.871  17.175  0.00  0.00    +0.000 A 
ATOM      6  C   UNL     1       5.563   7.056  17.850  0.00  0.00    +0.000 A 
ATOM      7  C   UNL     1       4.514   6.120  17.709  0.00  0.00    +0.000 A 
ATOM      8  C   UNL     1       4.650   4.976  16.908  0.00  0.00    +0.000 A 
BRANCH   3  10
ATOM      9  C   UNL     1       6.256   3.821  14.117  0.00  0.00    +0.000 C 
ATOM     10  O   UNL     1       6.049   3.632  15.517  0.00  0.00    +0.000 OA
ENDBRANCH   3  10
BRANCH   8  11
ATOM     11  O   UNL     1       3.570   4.121  16.952  0.00  0.00    +0.000 OA
BRANCH  11  12
ATOM     12  C   UNL     1       3.659   2.951  17.785  0.00  0.00    +0.000 C 
BRANCH  12  13
ATOM     13  C   UNL     1       2.898   3.086  19.109  0.00  0.00    +0.000 A 
ATOM     14  C   UNL     1       3.399   2.569  20.305  0.00  0.00    +0.000 A 
ATOM     15  C   UNL     1       2.613   2.635  21.459  0.00  0.00    +0.000 A 
ATOM     16  C   UNL     1       1.341   3.189  21.399  0.00  0.00    +0.000 A 
ATOM     17  C   UNL     1       0.904   3.665  20.177  0.00  0.00    +0.000 A 
ATOM     18  N   UNL     1       1.647   3.627  19.043  0.00  0.00    +0.000 NA
ENDBRANCH  12  13
ENDBRANCH  11  12
ENDBRANCH   8  11
ENDBRANCH   1   5
BRANCH   2  19
ATOM     19  N   UNL     1       8.990   9.774  18.040  0.00  0.00    +0.000 N 
ATOM     20  C   UNL     1       9.459  10.417  19.200  0.00  0.00    +0.000 C 
ATOM     21  O   UNL     1       8.869  10.317  20.277  0.00  0.00    +0.000 OA
ATOM     22  H   UNL     1       9.424   9.928  17.150  0.00  0.00    +0.000 HD
BRANCH  20  23
ATOM     23  C   UNL     1      10.694  11.421  19.121  0.00  0.00    +0.000 C 
BRANCH  23  24
ATOM     24  C   UNL     1      11.134  12.242  17.834  0.00  0.00    +0.000 C 
BRANCH  24  25
ATOM     25  N   UNL     1      10.593  13.588  17.781  0.00  0.00    +0.000 N 
ATOM     26  C   UNL     1      11.394  14.541  17.149  0.00  0.00    +0.000 A 
ATOM     27  C   UNL     1      11.312  15.494  18.133  0.00  0.00    +0.000 A 
ATOM     28  C   UNL     1      12.044  15.649  19.426  0.00  0.00    +0.000 C 
ATOM     29  C   UNL     1       9.923  15.648  18.051  0.00  0.00    +0.000 A 
ATOM     30  C   UNL     1       9.127  16.795  18.112  0.00  0.00    +0.000 A 
ATOM     31  C   UNL     1       9.771  18.134  17.893  0.00  0.00    +0.000 C 
ATOM     32  C   UNL     1       7.772  16.592  18.303  0.00  0.00    +0.000 A 
ATOM     33  C   UNL     1       7.262  15.287  18.445  0.00  0.00    +0.000 A 
ATOM     34  C   UNL     1       8.068  14.114  18.336  0.00  0.00    +0.000 A 
ATOM     35  C   UNL     1       9.432  14.314  18.069  0.00  0.00    +0.000 A 
ENDBRANCH  24  25
ENDBRANCH  23  24
ENDBRANCH  20  23
ENDBRANCH   2  19
TORSDOF 9
ENDMDL
MODEL 2
REMARK VINA RESULT:      -8.3      6.963     10.242
REMARK  Name = 
REMARK  12 active torsions:
REMARK  status: ('A' for Active; 'I' for Inactive)
REMARK    1  A    between atoms: C_1  and  O_2
REMARK    2  A    between atoms: O_2  and  C_3
REMARK    3  A    between atoms: C_5  and  C_6
REMARK    4  A    between atoms: N_7  and  N_8
REMARK    5  A    between atoms: C_9  and  C_11
REMARK    6  A    between atoms: C_11  and  C_12
REMARK    7  A    between atoms: C_12  and  N_13
REMARK    8  A    between atoms: C_15  and  C_16
REMARK    9  A    between atoms: C_18  and  C_19
REMARK   10  A    between atoms: C_26  and  O_27
REMARK   11  A    between atoms: O_27  and  C_28
REMARK   12  A    between atoms: C_28  and  C_29
REMARK                            x       y       z     vdW  Elec       q    Type
REMARK                         _______ _______ _______ _____ _____    ______ ____
ROOT
ATOM      1  C   UNL     1       2.248   8.965  18.085  0.00  0.00    +0.000 C 
ATOM      2  N   UNL     1       0.976   9.126  17.793  0.00  0.00    +0.000 NA
ENDROOT
BRANCH   1   5
ATOM      3  C   UNL     1       3.261   5.254  17.903  0.00  0.00    +0.000 A 
ATOM      4  C   UNL     1       2.593   6.458  18.248  0.00  0.00    +0.000 A 
ATOM      5  C   UNL     1       3.030   7.703  17.791  0.00  0.00    +0.000 A 
ATOM      6  C   UNL     1       4.197   7.745  17.011  0.00  0.00    +0.000 A 
ATOM      7  C   UNL     1       4.895   6.557  16.701  0.00  0.00    +0.000 A 
ATOM      8  C   UNL     1       4.448   5.302  17.142  0.00  0.00    +0.000 A 
BRANCH   3  10
ATOM      9  C   UNL     1       1.386   3.823  18.059  0.00  0.00    +0.000 C 
ATOM     10  O   UNL     1       2.779   4.034  18.285  0.00  0.00    +0.000 OA
ENDBRANCH   3  10
BRANCH   8  11
ATOM     11  O   UNL     1       5.190   4.239  16.675  0.00  0.00    +0.000 OA
BRANCH  11  12
ATOM     12  C   UNL     1       6.543   4.484  16.251  0.00  0.00    +0.000 C 
BRANCH  12  13
ATOM     13  C   UNL     1       6.712   4.497  14.728  0.00  0.00    +0.000 A 
ATOM     14  C   UNL     1       6.003   3.627  13.898  0.00  0.00    +0.000 A 
ATOM     15  C   UNL     1       6.275   3.619  12.527  0.00  0.00    +0.000 A 
ATOM     16  C   UNL     1       7.259   4.453  12.012  0.00  0.00    +0.000 A 
ATOM     17  C   UNL     1       7.933   5.274  12.895  0.00  0.00    +0.000 A 
ATOM     18  N   UNL     1       7.684   5.314  14.228  0.00  0.00    +0.000 NA
ENDBRANCH  12  13
ENDBRANCH  11  12
ENDBRANCH   8  11
ENDBRANCH   1   5
BRANCH   2  19
ATOM     19  N   UNL     1       0.434  10.393  18.086  0.00  0.00    +0.000 N 
ATOM     20  C   UNL     1      -0.942  10.672  18.003  0.00  0.00    +0.000 C 
ATOM     21  O   UNL     1      -1.754   9.812  17.656  0.00  0.00    +0.000 OA
ATOM     22  H   UNL     1       1.099  11.117  18.285  0.00  0.00    +0.000 HD
BRANCH  20  23
ATOM     23  C   UNL     1      -1.478  12.157  18.215  0.00  0.00    +0.000 C 
BRANCH  23  24
ATOM     24  C   UNL     1      -1.154  13.085  19.463  0.00  0.00    +0.000 C 
BRANCH  24  25
ATOM     25  N   UNL     1      -2.222  13.145  20.445  0.00  0.00    +0.000 N 
ATOM     26  C   UNL     1      -1.916  13.805  21.636  0.00  0.00    +0.000 A 
ATOM     27  C   UNL     1      -2.387  12.832  22.482  0.00  0.00    +0.000 A 
ATOM     28  C   UNL     1      -1.776  11.557  22.962  0.00  0.00    +0.000 C 
ATOM     29  C   UNL     1      -3.708  12.888  22.022  0.00  0.00    +0.000 A 
ATOM     30  C   UNL     1      -4.919  12.826  22.718  0.00  0.00    +0.000 A 
ATOM     31  C   UNL     1      -4.916  13.076  24.199  0.00  0.00    +0.000 C 
ATOM     32  C   UNL     1      -6.053  12.605  21.957  0.00  0.00    +0.000 A 
ATOM     33  C   UNL     1      -5.951  12.435  20.562  0.00  0.00    +0.000 A 
ATOM     34  C   UNL     1      -4.721  12.545  19.847  0.00  0.00    +0.000 A 
ATOM     35  C   UNL     1      -3.579  12.842  20.608  0.00  0.00    +0.000 A 
ENDBRANCH  24  25
ENDBRANCH  23  24
ENDBRANCH  20  23
ENDBRANCH   2  19
TORSDOF 9
ENDMDL
MODEL 3
REMARK VINA RESULT:      -8.3      7.418     10.650
REMARK  Name = 
REMARK  12 active torsions:
REMARK  status: ('A' for Active; 'I' for Inactive)
REMARK    1  A    between atoms: C_1  and  O_2
REMARK    2  A    between atoms: O_2  and  C_3
REMARK    3  A    between atoms: C_5  and  C_6
REMARK    4  A    between atoms: N_7  and  N_8
REMARK    5  A    between atoms: C_9  and  C_11
REMARK    6  A    between atoms: C_11  and  C_12
REMARK    7  A    between atoms: C_12  and  N_13
REMARK    8  A    between atoms: C_15  and  C_16
REMARK    9  A    between atoms: C_18  and  C_19
REMARK   10  A    between atoms: C_26  and  O_27
REMARK   11  A    between atoms: O_27  and  C_28
REMARK   12  A    between atoms: C_28  and  C_29
REMARK                            x       y       z     vdW  Elec       q    Type
REMARK                         _______ _______ _______ _____ _____    ______ ____
ROOT
ATOM      1  C   UNL     1       0.805   9.930  19.837  0.00  0.00    +0.000 C 
ATOM      2  N   UNL     1       0.523  10.136  21.105  0.00  0.00    +0.000 NA
ENDROOT
BRANCH   1   5
ATOM      3  C   UNL     1       2.481   6.469  19.641  0.00  0.00    +0.000 A 
ATOM      4  C   UNL     1       1.820   7.626  20.132  0.00  0.00    +0.000 A 
ATOM      5  C   UNL     1       1.598   8.747  19.328  0.00  0.00    +0.000 A 
ATOM      6  C   UNL     1       2.098   8.725  18.017  0.00  0.00    +0.000 A 
ATOM      7  C   UNL     1       2.796   7.596  17.534  0.00  0.00    +0.000 A 
ATOM      8  C   UNL     1       3.004   6.461  18.331  0.00  0.00    +0.000 A 
BRANCH   3  10
ATOM      9  C   UNL     1       1.437   4.564  20.575  0.00  0.00    +0.000 C 
ATOM     10  O   UNL     1       2.619   5.346  20.406  0.00  0.00    +0.000 OA
ENDBRANCH   3  10
BRANCH   8  11
ATOM     11  O   UNL     1       3.620   5.415  17.679  0.00  0.00    +0.000 OA
BRANCH  11  12
ATOM     12  C   UNL     1       4.660   5.718  16.731  0.00  0.00    +0.000 C 
BRANCH  12  13
ATOM     13  C   UNL     1       5.981   6.134  17.388  0.00  0.00    +0.000 A 
ATOM     14  C   UNL     1       6.526   5.430  18.463  0.00  0.00    +0.000 A 
ATOM     15  C   UNL     1       7.680   5.918  19.084  0.00  0.00    +0.000 A 
ATOM     16  C   UNL     1       8.255   7.103  18.642  0.00  0.00    +0.000 A 
ATOM     17  C   UNL     1       7.651   7.755  17.584  0.00  0.00    +0.000 A 
ATOM     18  N   UNL     1       6.539   7.301  16.954  0.00  0.00    +0.000 NA
ENDBRANCH  12  13
ENDBRANCH  11  12
ENDBRANCH   8  11
ENDBRANCH   1   5
BRANCH   2  19
ATOM     19  N   UNL     1      -0.281  11.259  21.382  0.00  0.00    +0.000 N 
ATOM     20  C   UNL     1      -0.993  11.410  22.586  0.00  0.00    +0.000 C 
ATOM     21  O   UNL     1      -0.957  10.550  23.468  0.00  0.00    +0.000 OA
ATOM     22  H   UNL     1      -0.382  11.919  20.634  0.00  0.00    +0.000 HD
BRANCH  20  23
ATOM     23  C   UNL     1      -1.991  12.635  22.785  0.00  0.00    +0.000 C 
BRANCH  23  24
ATOM     24  C   UNL     1      -2.290  13.765  21.708  0.00  0.00    +0.000 C 
BRANCH  24  25
ATOM     25  N   UNL     1      -3.300  13.395  20.733  0.00  0.00    +0.000 N 
ATOM     26  C   UNL     1      -4.424  14.221  20.680  0.00  0.00    +0.000 A 
ATOM     27  C   UNL     1      -5.360  13.219  20.721  0.00  0.00    +0.000 A 
ATOM     28  C   UNL     1      -5.919  12.432  21.861  0.00  0.00    +0.000 C 
ATOM     29  C   UNL     1      -4.944  12.602  19.536  0.00  0.00    +0.000 A 
ATOM     30  C   UNL     1      -5.683  12.033  18.495  0.00  0.00    +0.000 A 
ATOM     31  C   UNL     1      -7.139  12.381  18.368  0.00  0.00    +0.000 C 
ATOM     32  C   UNL     1      -4.981  11.236  17.608  0.00  0.00    +0.000 A 
ATOM     33  C   UNL     1      -3.602  11.016  17.789  0.00  0.00    +0.000 A 
ATOM     34  C   UNL     1      -2.838  11.634  18.824  0.00  0.00    +0.000 A 
ATOM     35  C   UNL     1      -3.534  12.501  19.682  0.00  0.00    +0.000 A 
ENDBRANCH  24  25
ENDBRANCH  23  24
ENDBRANCH  20  23
ENDBRANCH   2  19
TORSDOF 9
ENDMDL
MODEL 4
REMARK VINA RESULT:      -8.3      1.991     11.494
REMARK  Name = 
REMARK  12 active torsions:
REMARK  status: ('A' for Active; 'I' for Inactive)
REMARK    1  A    between atoms: C_1  and  O_2
REMARK    2  A    between atoms: O_2  and  C_3
REMARK    3  A    between atoms: C_5  and  C_6
REMARK    4  A    between atoms: N_7  and  N_8
REMARK    5  A    between atoms: C_9  and  C_11
REMARK    6  A    between atoms: C_11  and  C_12
REMARK    7  A    between atoms: C_12  and  N_13
REMARK    8  A    between atoms: C_15  and  C_16
REMARK    9  A    between atoms: C_18  and  C_19
REMARK   10  A    between atoms: C_26  and  O_27
REMARK   11  A    between atoms: O_27  and  C_28
REMARK   12  A    between atoms: C_28  and  C_29
REMARK                            x       y       z     vdW  Elec       q    Type
REMARK                         _______ _______ _______ _____ _____    ______ ____
ROOT
ATOM      1  C   UNL     1       8.299   8.194  18.258  0.00  0.00    +0.000 C 
ATOM      2  N   UNL     1       7.819   7.725  17.128  0.00  0.00    +0.000 NA
ENDROOT
BRANCH   1   5
ATOM      3  C   UNL     1       9.602  11.423  19.902  0.00  0.00    +0.000 A 
ATOM      4  C   UNL     1       9.213  10.073  19.693  0.00  0.00    +0.000 A 
ATOM      5  C   UNL     1       8.616   9.653  18.502  0.00  0.00    +0.000 A 
ATOM      6  C   UNL     1       8.357  10.621  17.519  0.00  0.00    +0.000 A 
ATOM      7  C   UNL     1       8.700  11.974  17.736  0.00  0.00    +0.000 A 
ATOM      8  C   UNL     1       9.317  12.396  18.923  0.00  0.00    +0.000 A 
BRANCH   3  10
ATOM      9  C   UNL     1       9.447  12.384  22.057  0.00  0.00    +0.000 C 
ATOM     10  O   UNL     1      10.261  11.809  21.035  0.00  0.00    +0.000 OA
ENDBRANCH   3  10
BRANCH   8  11
ATOM     11  O   UNL     1       9.668  13.729  18.936  0.00  0.00    +0.000 OA
BRANCH  11  12
ATOM     12  C   UNL     1      10.155  14.320  17.718  0.00  0.00    +0.000 C 
BRANCH  12  13
ATOM     13  C   UNL     1      10.238  15.850  17.772  0.00  0.00    +0.000 A 
ATOM     14  C   UNL     1       9.119  16.641  18.036  0.00  0.00    +0.000 A 
ATOM     15  C   UNL     1       9.237  18.033  17.973  0.00  0.00    +0.000 A 
ATOM     16  C   UNL     1      10.453  18.609  17.626  0.00  0.00    +0.000 A 
ATOM     17  C   UNL     1      11.513  17.763  17.362  0.00  0.00    +0.000 A 
ATOM     18  N   UNL     1      11.433  16.410  17.427  0.00  0.00    +0.000 NA
ENDBRANCH  12  13
ENDBRANCH  11  12
ENDBRANCH   8  11
ENDBRANCH   1   5
BRANCH   2  19
ATOM     19  N   UNL     1       7.527   6.347  17.108  0.00  0.00    +0.000 N 
ATOM     20  C   UNL     1       6.715   5.753  16.125  0.00  0.00    +0.000 C 
ATOM     21  O   UNL     1       6.204   6.418  15.223  0.00  0.00    +0.000 OA
ATOM     22  H   UNL     1       7.870   5.817  17.887  0.00  0.00    +0.000 HD
BRANCH  20  23
ATOM     23  C   UNL     1       6.311   4.216  16.233  0.00  0.00    +0.000 C 
BRANCH  23  24
ATOM     24  C   UNL     1       4.851   3.665  16.528  0.00  0.00    +0.000 C 
BRANCH  24  25
ATOM     25  N   UNL     1       4.140   4.402  17.557  0.00  0.00    +0.000 N 
ATOM     26  C   UNL     1       4.023   3.762  18.792  0.00  0.00    +0.000 A 
ATOM     27  C   UNL     1       2.676   3.970  18.952  0.00  0.00    +0.000 A 
ATOM     28  C   UNL     1       1.490   3.249  18.400  0.00  0.00    +0.000 C 
ATOM     29  C   UNL     1       2.757   5.367  18.943  0.00  0.00    +0.000 A 
ATOM     30  C   UNL     1       2.092   6.324  19.714  0.00  0.00    +0.000 A 
ATOM     31  C   UNL     1       1.428   5.891  20.989  0.00  0.00    +0.000 C 
ATOM     32  C   UNL     1       2.162   7.631  19.264  0.00  0.00    +0.000 A 
ATOM     33  C   UNL     1       2.857   7.938  18.078  0.00  0.00    +0.000 A 
ATOM     34  C   UNL     1       3.575   6.968  17.317  0.00  0.00    +0.000 A 
ATOM     35  C   UNL     1       3.567   5.654  17.812  0.00  0.00    +0.000 A 
ENDBRANCH  24  25
ENDBRANCH  23  24
ENDBRANCH  20  23
ENDBRANCH   2  19
TORSDOF 9
ENDMDL
MODEL 5
REMARK VINA RESULT:      -8.3      2.716     11.332
REMARK  Name = 
REMARK  12 active torsions:
REMARK  status: ('A' for Active; 'I' for Inactive)
REMARK    1  A    between atoms: C_1  and  O_2
REMARK    2  A    between atoms: O_2  and  C_3
REMARK    3  A    between atoms: C_5  and  C_6
REMARK    4  A    between atoms: N_7  and  N_8
REMARK    5  A    between atoms: C_9  and  C_11
REMARK    6  A    between atoms: C_11  and  C_12
REMARK    7  A    between atoms: C_12  and  N_13
REMARK    8  A    between atoms: C_15  and  C_16
REMARK    9  A    between atoms: C_18  and  C_19
REMARK   10  A    between atoms: C_26  and  O_27
REMARK   11  A    between atoms: O_27  and  C_28
REMARK   12  A    between atoms: C_28  and  C_29
REMARK                            x       y       z     vdW  Elec       q    Type
REMARK                         _______ _______ _______ _____ _____    ______ ____
ROOT
ATOM      1  C   UNL     1       8.013   9.386  17.492  0.00  0.00    +0.000 C 
ATOM      2  N   UNL     1       7.793   8.135  17.831  0.00  0.00    +0.000 NA
ENDROOT
BRANCH   1   5
ATOM      3  C   UNL     1      10.328  12.341  18.351  0.00  0.00    +0.000 A 
ATOM      4  C   UNL     1       9.552  11.396  17.629  0.00  0.00    +0.000 A 
ATOM      5  C   UNL     1       8.917  10.324  18.261  0.00  0.00    +0.000 A 
ATOM      6  C   UNL     1       9.109  10.169  19.643  0.00  0.00    +0.000 A 
ATOM      7  C   UNL     1       9.916  11.078  20.362  0.00  0.00    +0.000 A 
ATOM      8  C   UNL     1      10.539  12.166  19.735  0.00  0.00    +0.000 A 
BRANCH   3  10
ATOM      9  C   UNL     1      12.143  13.220  17.117  0.00  0.00    +0.000 C 
ATOM     10  O   UNL     1      10.876  13.433  17.739  0.00  0.00    +0.000 OA
ENDBRANCH   3  10
BRANCH   8  11
ATOM     11  O   UNL     1      11.214  13.007  20.594  0.00  0.00    +0.000 OA
BRANCH  11  12
ATOM     12  C   UNL     1      10.753  14.365  20.723  0.00  0.00    +0.000 C 
BRANCH  12  13
ATOM     13  C   UNL     1      10.102  14.661  22.079  0.00  0.00    +0.000 A 
ATOM     14  C   UNL     1       9.030  13.910  22.563  0.00  0.00    +0.000 A 
ATOM     15  C   UNL     1       8.415  14.293  23.759  0.00  0.00    +0.000 A 
ATOM     16  C   UNL     1       8.858  15.423  24.435  0.00  0.00    +0.000 A 
ATOM     17  C   UNL     1       9.913  16.127  23.887  0.00  0.00    +0.000 A 
ATOM     18  N   UNL     1      10.538  15.774  22.736  0.00  0.00    +0.000 NA
ENDBRANCH  12  13
ENDBRANCH  11  12
ENDBRANCH   8  11
ENDBRANCH   1   5
BRANCH   2  19
ATOM     19  N   UNL     1       6.971   7.397  16.957  0.00  0.00    +0.000 N 
ATOM     20  C   UNL     1       7.068   6.000  16.815  0.00  0.00    +0.000 C 
ATOM     21  O   UNL     1       7.896   5.343  17.450  0.00  0.00    +0.000 OA
ATOM     22  H   UNL     1       6.356   7.935  16.377  0.00  0.00    +0.000 HD
BRANCH  20  23
ATOM     23  C   UNL     1       6.205   5.240  15.713  0.00  0.00    +0.000 C 
BRANCH  23  24
ATOM     24  C   UNL     1       5.288   3.969  15.975  0.00  0.00    +0.000 C 
BRANCH  24  25
ATOM     25  N   UNL     1       4.234   4.194  16.947  0.00  0.00    +0.000 N 
ATOM     26  C   UNL     1       3.998   5.527  17.290  0.00  0.00    +0.000 A 
ATOM     27  C   UNL     1       4.003   5.344  18.650  0.00  0.00    +0.000 A 
ATOM     28  C   UNL     1       5.125   5.229  19.630  0.00  0.00    +0.000 C 
ATOM     29  C   UNL     1       2.918   4.460  18.668  0.00  0.00    +0.000 A 
ATOM     30  C   UNL     1       1.842   4.354  19.555  0.00  0.00    +0.000 A 
ATOM     31  C   UNL     1       1.529   5.516  20.453  0.00  0.00    +0.000 C 
ATOM     32  C   UNL     1       1.097   3.191  19.479  0.00  0.00    +0.000 A 
ATOM     33  C   UNL     1       1.447   2.182  18.560  0.00  0.00    +0.000 A 
ATOM     34  C   UNL     1       2.516   2.310  17.624  0.00  0.00    +0.000 A 
ATOM     35  C   UNL     1       3.228   3.520  17.649  0.00  0.00    +0.000 A 
ENDBRANCH  24  25
ENDBRANCH  23  24
ENDBRANCH  20  23
ENDBRANCH   2  19
TORSDOF 9
ENDMDL
MODEL 6
REMARK VINA RESULT:      -8.2      2.312     11.198
REMARK  Name = 
REMARK  12 active torsions:
REMARK  status: ('A' for Active; 'I' for Inactive)
REMARK    1  A    between atoms: C_1  and  O_2
REMARK    2  A    between atoms: O_2  and  C_3
REMARK    3  A    between atoms: C_5  and  C_6
REMARK    4  A    between atoms: N_7  and  N_8
REMARK    5  A    between atoms: C_9  and  C_11
REMARK    6  A    between atoms: C_11  and  C_12
REMARK    7  A    between atoms: C_12  and  N_13
REMARK    8  A    between atoms: C_15  and  C_16
REMARK    9  A    between atoms: C_18  and  C_19
REMARK   10  A    between atoms: C_26  and  O_27
REMARK   11  A    between atoms: O_27  and  C_28
REMARK   12  A    between atoms: C_28  and  C_29
REMARK                            x       y       z     vdW  Elec       q    Type
REMARK                         _______ _______ _______ _____ _____    ______ ____
ROOT
ATOM      1  C   UNL     1       7.893   9.411  17.649  0.00  0.00    +0.000 C 
ATOM      2  N   UNL     1       7.931   8.109  17.829  0.00  0.00    +0.000 NA
ENDROOT
BRANCH   1   5
ATOM      3  C   UNL     1      10.069  12.524  18.282  0.00  0.00    +0.000 A 
ATOM      4  C   UNL     1       9.244  11.557  17.651  0.00  0.00    +0.000 A 
ATOM      5  C   UNL     1       8.853  10.383  18.300  0.00  0.00    +0.000 A 
ATOM      6  C   UNL     1       9.345  10.152  19.595  0.00  0.00    +0.000 A 
ATOM      7  C   UNL     1      10.202  11.088  20.214  0.00  0.00    +0.000 A 
ATOM      8  C   UNL     1      10.581  12.277  19.573  0.00  0.00    +0.000 A 
BRANCH   3  10
ATOM      9  C   UNL     1      11.448  13.655  16.731  0.00  0.00    +0.000 C 
ATOM     10  O   UNL     1      10.377  13.708  17.673  0.00  0.00    +0.000 OA
ENDBRANCH   3  10
BRANCH   8  11
ATOM     11  O   UNL     1      11.345  13.122  20.349  0.00  0.00    +0.000 OA
BRANCH  11  12
ATOM     12  C   UNL     1      10.877  14.467  20.561  0.00  0.00    +0.000 C 
BRANCH  12  13
ATOM     13  C   UNL     1       9.505  14.534  21.241  0.00  0.00    +0.000 A 
ATOM     14  C   UNL     1       9.291  14.029  22.525  0.00  0.00    +0.000 A 
ATOM     15  C   UNL     1       7.996  14.029  23.051  0.00  0.00    +0.000 A 
ATOM     16  C   UNL     1       6.939  14.507  22.286  0.00  0.00    +0.000 A 
ATOM     17  C   UNL     1       7.222  14.975  21.018  0.00  0.00    +0.000 A 
ATOM     18  N   UNL     1       8.470  15.000  20.484  0.00  0.00    +0.000 NA
ENDBRANCH  12  13
ENDBRANCH  11  12
ENDBRANCH   8  11
ENDBRANCH   1   5
BRANCH   2  19
ATOM     19  N   UNL     1       6.995   7.359  17.090  0.00  0.00    +0.000 N 
ATOM     20  C   UNL     1       6.939   5.954  17.132  0.00  0.00    +0.000 C 
ATOM     21  O   UNL     1       7.722   5.298  17.821  0.00  0.00    +0.000 OA
ATOM     22  H   UNL     1       6.413   7.883  16.463  0.00  0.00    +0.000 HD
BRANCH  20  23
ATOM     23  C   UNL     1       5.950   5.158  16.171  0.00  0.00    +0.000 C 
BRANCH  23  24
ATOM     24  C   UNL     1       5.366   3.706  16.447  0.00  0.00    +0.000 C 
BRANCH  24  25
ATOM     25  N   UNL     1       4.325   3.672  17.459  0.00  0.00    +0.000 N 
ATOM     26  C   UNL     1       3.069   4.129  17.054  0.00  0.00    +0.000 A 
ATOM     27  C   UNL     1       2.854   4.965  18.121  0.00  0.00    +0.000 A 
ATOM     28  C   UNL     1       3.332   6.351  18.405  0.00  0.00    +0.000 C 
ATOM     29  C   UNL     1       2.904   3.956  19.090  0.00  0.00    +0.000 A 
ATOM     30  C   UNL     1       2.129   3.753  20.236  0.00  0.00    +0.000 A 
ATOM     31  C   UNL     1       0.814   4.468  20.355  0.00  0.00    +0.000 C 
ATOM     32  C   UNL     1       2.616   2.837  21.152  0.00  0.00    +0.000 A 
ATOM     33  C   UNL     1       3.840   2.181  20.917  0.00  0.00    +0.000 A 
ATOM     34  C   UNL     1       4.608   2.354  19.726  0.00  0.00    +0.000 A 
ATOM     35  C   UNL     1       4.078   3.227  18.762  0.00  0.00    +0.000 A 
ENDBRANCH  24  25
ENDBRANCH  23  24
ENDBRANCH  20  23
ENDBRANCH   2  19
TORSDOF 9
ENDMDL
MODEL 7
REMARK VINA RESULT:      -8.1      8.278     10.960
REMARK  Name = 
REMARK  12 active torsions:
REMARK  status: ('A' for Active; 'I' for Inactive)
REMARK    1  A    between atoms: C_1  and  O_2
REMARK    2  A    between atoms: O_2  and  C_3
REMARK    3  A    between atoms: C_5  and  C_6
REMARK    4  A    between atoms: N_7  and  N_8
REMARK    5  A    between atoms: C_9  and  C_11
REMARK    6  A    between atoms: C_11  and  C_12
REMARK    7  A    between atoms: C_12  and  N_13
REMARK    8  A    between atoms: C_15  and  C_16
REMARK    9  A    between atoms: C_18  and  C_19
REMARK   10  A    between atoms: C_26  and  O_27
REMARK   11  A    between atoms: O_27  and  C_28
REMARK   12  A    between atoms: C_28  and  C_29
REMARK                            x       y       z     vdW  Elec       q    Type
REMARK                         _______ _______ _______ _____ _____    ______ ____
ROOT
ATOM      1  C   UNL     1       1.136   8.215  21.132  0.00  0.00    +0.000 C 
ATOM      2  N   UNL     1       0.441   9.256  20.731  0.00  0.00    +0.000 NA
ENDROOT
BRANCH   1   5
ATOM      3  C   UNL     1       2.528   4.958  19.621  0.00  0.00    +0.000 A 
ATOM      4  C   UNL     1       1.965   5.897  20.525  0.00  0.00    +0.000 A 
ATOM      5  C   UNL     1       1.828   7.248  20.196  0.00  0.00    +0.000 A 
ATOM      6  C   UNL     1       2.314   7.674  18.950  0.00  0.00    +0.000 A 
ATOM      7  C   UNL     1       2.916   6.755  18.062  0.00  0.00    +0.000 A 
ATOM      8  C   UNL     1       3.038   5.394  18.381  0.00  0.00    +0.000 A 
BRANCH   3  10
ATOM      9  C   UNL     1       2.275   3.279  21.268  0.00  0.00    +0.000 C 
ATOM     10  O   UNL     1       2.582   3.625  19.917  0.00  0.00    +0.000 OA
ENDBRANCH   3  10
BRANCH   8  11
ATOM     11  O   UNL     1       3.563   4.619  17.369  0.00  0.00    +0.000 OA
BRANCH  11  12
ATOM     12  C   UNL     1       4.877   4.059  17.549  0.00  0.00    +0.000 C 
BRANCH  12  13
ATOM     13  C   UNL     1       5.942   5.104  17.900  0.00  0.00    +0.000 A 
ATOM     14  C   UNL     1       6.325   6.100  17.000  0.00  0.00    +0.000 A 
ATOM     15  C   UNL     1       7.373   6.961  17.340  0.00  0.00    +0.000 A 
ATOM     16  C   UNL     1       8.033   6.801  18.551  0.00  0.00    +0.000 A 
ATOM     17  C   UNL     1       7.612   5.783  19.385  0.00  0.00    +0.000 A 
ATOM     18  N   UNL     1       6.591   4.940  19.089  0.00  0.00    +0.000 NA
ENDBRANCH  12  13
ENDBRANCH  11  12
ENDBRANCH   8  11
ENDBRANCH   1   5
BRANCH   2  19
ATOM     19  N   UNL     1      -0.078  10.079  21.750  0.00  0.00    +0.000 N 
ATOM     20  C   UNL     1      -0.944  11.157  21.493  0.00  0.00    +0.000 C 
ATOM     21  O   UNL     1      -1.291  11.447  20.347  0.00  0.00    +0.000 OA
ATOM     22  H   UNL     1       0.269   9.900  22.674  0.00  0.00    +0.000 HD
BRANCH  20  23
ATOM     23  C   UNL     1      -1.388  12.133  22.671  0.00  0.00    +0.000 C 
BRANCH  23  24
ATOM     24  C   UNL     1      -2.649  11.925  23.615  0.00  0.00    +0.000 C 
BRANCH  24  25
ATOM     25  N   UNL     1      -3.632  12.991  23.528  0.00  0.00    +0.000 N 
ATOM     26  C   UNL     1      -3.206  14.159  22.894  0.00  0.00    +0.000 A 
ATOM     27  C   UNL     1      -3.643  15.031  23.858  0.00  0.00    +0.000 A 
ATOM     28  C   UNL     1      -3.043  15.449  25.161  0.00  0.00    +0.000 C 
ATOM     29  C   UNL     1      -4.994  14.681  23.749  0.00  0.00    +0.000 A 
ATOM     30  C   UNL     1      -6.146  15.472  23.775  0.00  0.00    +0.000 A 
ATOM     31  C   UNL     1      -6.014  16.950  23.544  0.00  0.00    +0.000 C 
ATOM     32  C   UNL     1      -7.346  14.803  23.946  0.00  0.00    +0.000 A 
ATOM     33  C   UNL     1      -7.362  13.404  24.103  0.00  0.00    +0.000 A 
ATOM     34  C   UNL     1      -6.191  12.592  24.030  0.00  0.00    +0.000 A 
ATOM     35  C   UNL     1      -4.981  13.261  23.783  0.00  0.00    +0.000 A 
ENDBRANCH  24  25
ENDBRANCH  23  24
ENDBRANCH  20  23
ENDBRANCH   2  19
TORSDOF 9
ENDMDL
MODEL 8
REMARK VINA RESULT:      -8.0      7.430     10.551
REMARK  Name = 
REMARK  12 active torsions:
REMARK  status: ('A' for Active; 'I' for Inactive)
REMARK    1  A    between atoms: C_1  and  O_2
REMARK    2  A    between atoms: O_2  and  C_3
REMARK    3  A    between atoms: C_5  and  C_6
REMARK    4  A    between atoms: N_7  and  N_8
REMARK    5  A    between atoms: C_9  and  C_11
REMARK    6  A    between atoms: C_11  and  C_12
REMARK    7  A    between atoms: C_12  and  N_13
REMARK    8  A    between atoms: C_15  and  C_16
REMARK    9  A    between atoms: C_18  and  C_19
REMARK   10  A    between atoms: C_26  and  O_27
REMARK   11  A    between atoms: O_27  and  C_28
REMARK   12  A    between atoms: C_28  and  C_29
REMARK                            x       y       z     vdW  Elec       q    Type
REMARK                         _______ _______ _______ _____ _____    ______ ____
ROOT
ATOM      1  C   UNL     1       1.461   8.583  20.941  0.00  0.00    +0.000 C 
ATOM      2  N   UNL     1       0.392   8.749  21.688  0.00  0.00    +0.000 NA
ENDROOT
BRANCH   1   5
ATOM      3  C   UNL     1       1.727   4.836  20.096  0.00  0.00    +0.000 A 
ATOM      4  C   UNL     1       1.501   6.053  20.791  0.00  0.00    +0.000 A 
ATOM      5  C   UNL     1       1.801   7.294  20.225  0.00  0.00    +0.000 A 
ATOM      6  C   UNL     1       2.390   7.310  18.951  0.00  0.00    +0.000 A 
ATOM      7  C   UNL     1       2.660   6.103  18.270  0.00  0.00    +0.000 A 
ATOM      8  C   UNL     1       2.342   4.855  18.827  0.00  0.00    +0.000 A 
BRANCH   3  10
ATOM      9  C   UNL     1       2.263   3.059  21.560  0.00  0.00    +0.000 C 
ATOM     10  O   UNL     1       1.353   3.631  20.622  0.00  0.00    +0.000 OA
ENDBRANCH   3  10
BRANCH   8  11
ATOM     11  O   UNL     1       2.586   3.784  17.995  0.00  0.00    +0.000 OA
BRANCH  11  12
ATOM     12  C   UNL     1       3.837   3.085  18.129  0.00  0.00    +0.000 C 
BRANCH  12  13
ATOM     13  C   UNL     1       5.029   3.851  17.546  0.00  0.00    +0.000 A 
ATOM     14  C   UNL     1       5.205   4.009  16.171  0.00  0.00    +0.000 A 
ATOM     15  C   UNL     1       6.365   4.630  15.698  0.00  0.00    +0.000 A 
ATOM     16  C   UNL     1       7.335   5.059  16.595  0.00  0.00    +0.000 A 
ATOM     17  C   UNL     1       7.101   4.853  17.941  0.00  0.00    +0.000 A 
ATOM     18  N   UNL     1       5.981   4.265  18.431  0.00  0.00    +0.000 NA
ENDBRANCH  12  13
ENDBRANCH  11  12
ENDBRANCH   8  11
ENDBRANCH   1   5
BRANCH   2  19
ATOM     19  N   UNL     1       0.210  10.040  22.222  0.00  0.00    +0.000 N 
ATOM     20  C   UNL     1      -0.476  11.060  21.538  0.00  0.00    +0.000 C 
ATOM     21  O   UNL     1      -0.951  10.877  20.415  0.00  0.00    +0.000 OA
ATOM     22  H   UNL     1       0.668  10.219  23.096  0.00  0.00    +0.000 HD
BRANCH  20  23
ATOM     23  C   UNL     1      -0.531  12.535  22.134  0.00  0.00    +0.000 C 
BRANCH  23  24
ATOM     24  C   UNL     1      -1.343  13.752  21.514  0.00  0.00    +0.000 C 
BRANCH  24  25
ATOM     25  N   UNL     1      -2.784  13.602  21.600  0.00  0.00    +0.000 N 
ATOM     26  C   UNL     1      -3.420  14.386  22.565  0.00  0.00    +0.000 A 
ATOM     27  C   UNL     1      -4.167  13.378  23.121  0.00  0.00    +0.000 A 
ATOM     28  C   UNL     1      -3.819  12.323  24.121  0.00  0.00    +0.000 C 
ATOM     29  C   UNL     1      -4.874  13.078  21.951  0.00  0.00    +0.000 A 
ATOM     30  C   UNL     1      -6.220  12.758  21.755  0.00  0.00    +0.000 A 
ATOM     31  C   UNL     1      -7.206  13.087  22.840  0.00  0.00    +0.000 C 
ATOM     32  C   UNL     1      -6.550  12.219  20.524  0.00  0.00    +0.000 A 
ATOM     33  C   UNL     1      -5.553  11.999  19.555  0.00  0.00    +0.000 A 
ATOM     34  C   UNL     1      -4.187  12.368  19.737  0.00  0.00    +0.000 A 
ATOM     35  C   UNL     1      -3.862  12.983  20.957  0.00  0.00    +0.000 A 
ENDBRANCH  24  25
ENDBRANCH  23  24
ENDBRANCH  20  23
ENDBRANCH   2  19
TORSDOF 9
ENDMDL
MODEL 9
REMARK VINA RESULT:      -7.9      1.909     11.884
REMARK  Name = 
REMARK  12 active torsions:
REMARK  status: ('A' for Active; 'I' for Inactive)
REMARK    1  A    between atoms: C_1  and  O_2
REMARK    2  A    between atoms: O_2  and  C_3
REMARK    3  A    between atoms: C_5  and  C_6
REMARK    4  A    between atoms: N_7  and  N_8
REMARK    5  A    between atoms: C_9  and  C_11
REMARK    6  A    between atoms: C_11  and  C_12
REMARK    7  A    between atoms: C_12  and  N_13
REMARK    8  A    between atoms: C_15  and  C_16
REMARK    9  A    between atoms: C_18  and  C_19
REMARK   10  A    between atoms: C_26  and  O_27
REMARK   11  A    between atoms: O_27  and  C_28
REMARK   12  A    between atoms: C_28  and  C_29
REMARK                            x       y       z     vdW  Elec       q    Type
REMARK                         _______ _______ _______ _____ _____    ______ ____
ROOT
ATOM      1  C   UNL     1       8.096   8.417  18.270  0.00  0.00    +0.000 C 
ATOM      2  N   UNL     1       7.656   7.964  17.117  0.00  0.00    +0.000 NA
ENDROOT
BRANCH   1   5
ATOM      3  C   UNL     1       9.824  11.462  19.872  0.00  0.00    +0.000 A 
ATOM      4  C   UNL     1       9.230  10.186  19.689  0.00  0.00    +0.000 A 
ATOM      5  C   UNL     1       8.635   9.815  18.481  0.00  0.00    +0.000 A 
ATOM      6  C   UNL     1       8.591  10.767  17.449  0.00  0.00    +0.000 A 
ATOM      7  C   UNL     1       9.140  12.054  17.638  0.00  0.00    +0.000 A 
ATOM      8  C   UNL     1       9.756  12.424  18.843  0.00  0.00    +0.000 A 
BRANCH   3  10
ATOM      9  C   UNL     1       9.702  12.492  21.997  0.00  0.00    +0.000 C 
ATOM     10  O   UNL     1      10.477  11.787  21.028  0.00  0.00    +0.000 OA
ENDBRANCH   3  10
BRANCH   8  11
ATOM     11  O   UNL     1      10.320  13.681  18.830  0.00  0.00    +0.000 OA
BRANCH  11  12
ATOM     12  C   UNL     1       9.894  14.611  17.817  0.00  0.00    +0.000 C 
BRANCH  12  13
ATOM     13  C   UNL     1       9.584  16.009  18.364  0.00  0.00    +0.000 A 
ATOM     14  C   UNL     1       8.292  16.538  18.349  0.00  0.00    +0.000 A 
ATOM     15  C   UNL     1       8.090  17.856  18.769  0.00  0.00    +0.000 A 
ATOM     16  C   UNL     1       9.173  18.628  19.171  0.00  0.00    +0.000 A 
ATOM     17  C   UNL     1      10.425  18.044  19.143  0.00  0.00    +0.000 A 
ATOM     18  N   UNL     1      10.651  16.764  18.753  0.00  0.00    +0.000 NA
ENDBRANCH  12  13
ENDBRANCH  11  12
ENDBRANCH   8  11
ENDBRANCH   1   5
BRANCH   2  19
ATOM     19  N   UNL     1       7.133   6.656  17.129  0.00  0.00    +0.000 N 
ATOM     20  C   UNL     1       6.081   6.247  16.289  0.00  0.00    +0.000 C 
ATOM     21  O   UNL     1       5.550   7.026  15.495  0.00  0.00    +0.000 OA
ATOM     22  H   UNL     1       7.503   6.044  17.832  0.00  0.00    +0.000 HD
BRANCH  20  23
ATOM     23  C   UNL     1       5.443   4.797  16.444  0.00  0.00    +0.000 C 
BRANCH  23  24
ATOM     24  C   UNL     1       5.709   3.796  17.649  0.00  0.00    +0.000 C 
BRANCH  24  25
ATOM     25  N   UNL     1       4.659   3.790  18.653  0.00  0.00    +0.000 N 
ATOM     26  C   UNL     1       4.612   2.664  19.476  0.00  0.00    +0.000 A 
ATOM     27  C   UNL     1       3.268   2.425  19.340  0.00  0.00    +0.000 A 
ATOM     28  C   UNL     1       2.487   1.745  18.263  0.00  0.00    +0.000 C 
ATOM     29  C   UNL     1       2.861   3.650  19.881  0.00  0.00    +0.000 A 
ATOM     30  C   UNL     1       1.811   3.960  20.750  0.00  0.00    +0.000 A 
ATOM     31  C   UNL     1       1.178   2.852  21.543  0.00  0.00    +0.000 C 
ATOM     32  C   UNL     1       1.483   5.299  20.863  0.00  0.00    +0.000 A 
ATOM     33  C   UNL     1       2.178   6.266  20.111  0.00  0.00    +0.000 A 
ATOM     34  C   UNL     1       3.280   5.955  19.260  0.00  0.00    +0.000 A 
ATOM     35  C   UNL     1       3.662   4.605  19.200  0.00  0.00    +0.000 A 
ENDBRANCH  24  25
ENDBRANCH  23  24
ENDBRANCH  20  23
ENDBRANCH   2  19
TORSDOF 9
ENDMDL
