MODEL 1
REMARK VINA RESULT:      -7.6      0.000      0.000
REMARK  Name = 
REMARK  12 active torsions:
REMARK  status: ('A' for Active; 'I' for Inactive)
REMARK    1  A    between atoms: C_1  and  C_2
REMARK    2  A    between atoms: C_2  and  C_3
REMARK    3  A    between atoms: C_3  and  C_4
REMARK    4  A    between atoms: C_4  and  O_6
REMARK    5  A    between atoms: O_6  and  C_7
REMARK    6  A    between atoms: C_9  and  C_10
REMARK    7  A    between atoms: C_10  and  N_11
REMARK    8  A    between atoms: N_11  and  C_12
REMARK    9  A    between atoms: N_15  and  C_16
REMARK   10  A    between atoms: C_19  and  O_20
REMARK   11  A    between atoms: O_20  and  C_21
REMARK   12  A    between atoms: N_27  and  C_28
REMARK                            x       y       z     vdW  Elec       q    Type
REMARK                         _______ _______ _______ _____ _____    ______ ____
ROOT
ATOM      1  C   UNL     1       4.787   5.506  17.561  0.00  0.00    +0.000 C 
ATOM      2  N   UNL     1       4.350   6.380  18.691  0.00  0.00    +0.000 NA
ATOM      3  C   UNL     1       2.914   6.633  18.491  0.00  0.00    +0.000 C 
ATOM      4  C   UNL     1       2.381   5.280  18.038  0.00  0.00    +0.000 C 
ATOM      5  C   UNL     1       1.936   4.378  19.155  0.00  0.00    +0.000 C 
ATOM      6  O   UNL     1       0.943   4.573  19.842  0.00  0.00    +0.000 OA
ATOM      7  N   UNL     1       2.780   3.314  19.234  0.00  0.00    +0.000 N 
ATOM      8  C   UNL     1       2.622   2.233  20.177  0.00  0.00    +0.000 C 
ATOM      9  C   UNL     1       3.677   3.277  18.207  0.00  0.00    +0.000 C 
ATOM     10  O   UNL     1       4.408   2.338  17.927  0.00  0.00    +0.000 OA
ATOM     11  C   UNL     1       3.584   4.557  17.412  0.00  0.00    +0.000 C 
ATOM     12  H   UNL     1       4.875   7.253  18.731  0.00  0.00    +0.000 HD
ENDROOT
BRANCH   1  14
ATOM     13  C   UNL     1       5.286   5.489  15.001  0.00  0.00    +0.000 C 
ATOM     14  C   UNL     1       5.007   6.320  16.249  0.00  0.00    +0.000 C 
ENDBRANCH   1  14
BRANCH   1  15
ATOM     15  C   UNL     1       6.102   4.767  17.933  0.00  0.00    +0.000 C 
ATOM     16  O   UNL     1       6.791   4.119  17.160  0.00  0.00    +0.000 OA
BRANCH  15  17
ATOM     17  O   UNL     1       6.362   4.915  19.267  0.00  0.00    +0.000 OA
ATOM     18  C   UNL     1       7.558   5.638  19.556  0.00  0.00    +0.000 C 
ENDBRANCH  15  17
ENDBRANCH   1  15
BRANCH   3  19
ATOM     19  C   UNL     1       2.197   7.273  19.705  0.00  0.00    +0.000 C 
BRANCH  19  20
ATOM     20  N   UNL     1       1.592   8.584  19.407  0.00  0.00    +0.000 N 
ATOM     21  C   UNL     1       1.814   9.146  18.084  0.00  0.00    +0.000 C 
ATOM     22  C   UNL     1       1.117   9.319  20.492  0.00  0.00    +0.000 C 
ATOM     23  O   UNL     1       1.214   8.874  21.635  0.00  0.00    +0.000 OA
ATOM     24  N   UNL     1       0.523  10.520  20.172  0.00  0.00    +0.000 N 
ATOM     25  H   UNL     1       0.266  10.654  19.208  0.00  0.00    +0.000 HD
BRANCH  24  26
ATOM     26  C   UNL     1       0.014  11.459  21.097  0.00  0.00    +0.000 A 
ATOM     27  C   UNL     1       0.388  12.804  21.100  0.00  0.00    +0.000 A 
ATOM     28  C   UNL     1      -0.104  13.682  22.069  0.00  0.00    +0.000 A 
ATOM     29  C   UNL     1      -1.004  13.235  23.030  0.00  0.00    +0.000 A 
ATOM     30  C   UNL     1      -1.404  11.898  23.027  0.00  0.00    +0.000 A 
ATOM     31  C   UNL     1      -0.900  11.014  22.059  0.00  0.00    +0.000 A 
BRANCH  29  32
ATOM     32  O   UNL     1      -1.386  14.178  23.942  0.00  0.00    +0.000 OA
ATOM     33  C   UNL     1      -2.405  15.069  23.510  0.00  0.00    +0.000 C 
ENDBRANCH  29  32
ENDBRANCH  24  26
ENDBRANCH  19  20
ENDBRANCH   3  19
TORSDOF 7
ENDMDL
MODEL 2
REMARK VINA RESULT:      -7.6      1.175      1.404
REMARK  Name = 
REMARK  12 active torsions:
REMARK  status: ('A' for Active; 'I' for Inactive)
REMARK    1  A    between atoms: C_1  and  C_2
REMARK    2  A    between atoms: C_2  and  C_3
REMARK    3  A    between atoms: C_3  and  C_4
REMARK    4  A    between atoms: C_4  and  O_6
REMARK    5  A    between atoms: O_6  and  C_7
REMARK    6  A    between atoms: C_9  and  C_10
REMARK    7  A    between atoms: C_10  and  N_11
REMARK    8  A    between atoms: N_11  and  C_12
REMARK    9  A    between atoms: N_15  and  C_16
REMARK   10  A    between atoms: C_19  and  O_20
REMARK   11  A    between atoms: O_20  and  C_21
REMARK   12  A    between atoms: N_27  and  C_28
REMARK                            x       y       z     vdW  Elec       q    Type
REMARK                         _______ _______ _______ _____ _____    ______ ____
ROOT
ATOM      1  C   UNL     1       4.497   5.293  18.142  0.00  0.00    +0.000 C 
ATOM      2  N   UNL     1       4.041   6.393  19.043  0.00  0.00    +0.000 NA
ATOM      3  C   UNL     1       2.595   6.546  18.816  0.00  0.00    +0.000 C 
ATOM      4  C   UNL     1       2.106   5.108  18.704  0.00  0.00    +0.000 C 
ATOM      5  C   UNL     1       1.705   4.481  20.010  0.00  0.00    +0.000 C 
ATOM      6  O   UNL     1       0.713   4.800  20.650  0.00  0.00    +0.000 OA
ATOM      7  N   UNL     1       2.588   3.493  20.321  0.00  0.00    +0.000 N 
ATOM      8  C   UNL     1       2.479   2.661  21.495  0.00  0.00    +0.000 C 
ATOM      9  C   UNL     1       3.474   3.244  19.315  0.00  0.00    +0.000 C 
ATOM     10  O   UNL     1       4.235   2.289  19.250  0.00  0.00    +0.000 OA
ATOM     11  C   UNL     1       3.326   4.296  18.243  0.00  0.00    +0.000 C 
ATOM     12  H   UNL     1       4.535   7.267  18.866  0.00  0.00    +0.000 HD
ENDROOT
BRANCH   1  14
ATOM     13  C   UNL     1       5.381   7.122  16.505  0.00  0.00    +0.000 C 
ATOM     14  C   UNL     1       4.673   5.781  16.671  0.00  0.00    +0.000 C 
ENDBRANCH   1  14
BRANCH   1  15
ATOM     15  C   UNL     1       5.841   4.705  18.652  0.00  0.00    +0.000 C 
ATOM     16  O   UNL     1       6.275   4.819  19.788  0.00  0.00    +0.000 OA
BRANCH  15  17
ATOM     17  O   UNL     1       6.492   4.068  17.633  0.00  0.00    +0.000 OA
ATOM     18  C   UNL     1       7.859   4.449  17.480  0.00  0.00    +0.000 C 
ENDBRANCH  15  17
ENDBRANCH   1  15
BRANCH   3  19
ATOM     19  C   UNL     1       1.868   7.431  19.858  0.00  0.00    +0.000 C 
BRANCH  19  20
ATOM     20  N   UNL     1       1.403   8.720  19.314  0.00  0.00    +0.000 N 
ATOM     21  C   UNL     1       1.966   9.161  18.048  0.00  0.00    +0.000 C 
ATOM     22  C   UNL     1       0.700   9.552  20.183  0.00  0.00    +0.000 C 
ATOM     23  O   UNL     1       0.495   9.206  21.346  0.00  0.00    +0.000 OA
ATOM     24  N   UNL     1       0.247  10.730  19.630  0.00  0.00    +0.000 N 
ATOM     25  H   UNL     1       0.242  10.783  18.624  0.00  0.00    +0.000 HD
BRANCH  24  26
ATOM     26  C   UNL     1      -0.442  11.752  20.319  0.00  0.00    +0.000 A 
ATOM     27  C   UNL     1       0.142  12.517  21.330  0.00  0.00    +0.000 A 
ATOM     28  C   UNL     1      -0.598  13.481  22.017  0.00  0.00    +0.000 A 
ATOM     29  C   UNL     1      -1.927  13.719  21.682  0.00  0.00    +0.000 A 
ATOM     30  C   UNL     1      -2.519  12.978  20.660  0.00  0.00    +0.000 A 
ATOM     31  C   UNL     1      -1.777  12.001  19.976  0.00  0.00    +0.000 A 
BRANCH  29  32
ATOM     32  O   UNL     1      -2.553  14.661  22.449  0.00  0.00    +0.000 OA
ATOM     33  C   UNL     1      -3.936  14.847  22.181  0.00  0.00    +0.000 C 
ENDBRANCH  29  32
ENDBRANCH  24  26
ENDBRANCH  19  20
ENDBRANCH   3  19
TORSDOF 7
ENDMDL
MODEL 3
REMARK VINA RESULT:      -7.5      0.931      1.441
REMARK  Name = 
REMARK  12 active torsions:
REMARK  status: ('A' for Active; 'I' for Inactive)
REMARK    1  A    between atoms: C_1  and  C_2
REMARK    2  A    between atoms: C_2  and  C_3
REMARK    3  A    between atoms: C_3  and  C_4
REMARK    4  A    between atoms: C_4  and  O_6
REMARK    5  A    between atoms: O_6  and  C_7
REMARK    6  A    between atoms: C_9  and  C_10
REMARK    7  A    between atoms: C_10  and  N_11
REMARK    8  A    between atoms: N_11  and  C_12
REMARK    9  A    between atoms: N_15  and  C_16
REMARK   10  A    between atoms: C_19  and  O_20
REMARK   11  A    between atoms: O_20  and  C_21
REMARK   12  A    between atoms: N_27  and  C_28
REMARK                            x       y       z     vdW  Elec       q    Type
REMARK                         _______ _______ _______ _____ _____    ______ ____
ROOT
ATOM      1  C   UNL     1       4.478   5.341  18.220  0.00  0.00    +0.000 C 
ATOM      2  N   UNL     1       3.997   6.370  19.191  0.00  0.00    +0.000 NA
ATOM      3  C   UNL     1       2.546   6.493  18.984  0.00  0.00    +0.000 C 
ATOM      4  C   UNL     1       2.098   5.052  18.787  0.00  0.00    +0.000 C 
ATOM      5  C   UNL     1       1.727   4.334  20.055  0.00  0.00    +0.000 C 
ATOM      6  O   UNL     1       0.732   4.584  20.720  0.00  0.00    +0.000 OA
ATOM      7  N   UNL     1       2.641   3.356  20.299  0.00  0.00    +0.000 N 
ATOM      8  C   UNL     1       2.567   2.450  21.420  0.00  0.00    +0.000 C 
ATOM      9  C   UNL     1       3.525   3.195  19.273  0.00  0.00    +0.000 C 
ATOM     10  O   UNL     1       4.313   2.269  19.144  0.00  0.00    +0.000 OA
ATOM     11  C   UNL     1       3.338   4.306  18.269  0.00  0.00    +0.000 C 
ATOM     12  H   UNL     1       4.465   7.268  19.065  0.00  0.00    +0.000 HD
ENDROOT
BRANCH   1  14
ATOM     13  C   UNL     1       5.379   7.247  16.684  0.00  0.00    +0.000 C 
ATOM     14  C   UNL     1       4.626   5.923  16.782  0.00  0.00    +0.000 C 
ENDBRANCH   1  14
BRANCH   1  15
ATOM     15  C   UNL     1       5.842   4.763  18.684  0.00  0.00    +0.000 C 
ATOM     16  O   UNL     1       6.316   4.883  19.805  0.00  0.00    +0.000 OA
BRANCH  15  17
ATOM     17  O   UNL     1       6.461   4.127  17.644  0.00  0.00    +0.000 OA
ATOM     18  C   UNL     1       7.836   4.474  17.478  0.00  0.00    +0.000 C 
ENDBRANCH  15  17
ENDBRANCH   1  15
BRANCH   3  19
ATOM     19  C   UNL     1       1.803   7.291  20.084  0.00  0.00    +0.000 C 
BRANCH  19  20
ATOM     20  N   UNL     1       1.381   8.636  19.652  0.00  0.00    +0.000 N 
ATOM     21  C   UNL     1       1.655   9.021  18.276  0.00  0.00    +0.000 C 
ATOM     22  C   UNL     1       1.033   9.538  20.656  0.00  0.00    +0.000 C 
ATOM     23  O   UNL     1       1.088   9.204  21.839  0.00  0.00    +0.000 OA
ATOM     24  N   UNL     1       0.606  10.772  20.214  0.00  0.00    +0.000 N 
ATOM     25  H   UNL     1       0.353  10.840  19.242  0.00  0.00    +0.000 HD
BRANCH  24  26
ATOM     26  C   UNL     1       0.250  11.863  21.037  0.00  0.00    +0.000 A 
ATOM     27  C   UNL     1      -0.825  11.828  21.926  0.00  0.00    +0.000 A 
ATOM     28  C   UNL     1      -1.169  12.952  22.679  0.00  0.00    +0.000 A 
ATOM     29  C   UNL     1      -0.422  14.121  22.580  0.00  0.00    +0.000 A 
ATOM     30  C   UNL     1       0.669  14.165  21.711  0.00  0.00    +0.000 A 
ATOM     31  C   UNL     1       1.007  13.037  20.946  0.00  0.00    +0.000 A 
BRANCH  29  32
ATOM     32  O   UNL     1      -0.877  15.161  23.340  0.00  0.00    +0.000 OA
ATOM     33  C   UNL     1      -2.014  15.841  22.828  0.00  0.00    +0.000 C 
ENDBRANCH  29  32
ENDBRANCH  24  26
ENDBRANCH  19  20
ENDBRANCH   3  19
TORSDOF 7
ENDMDL
MODEL 4
REMARK VINA RESULT:      -7.3      1.310      1.608
REMARK  Name = 
REMARK  12 active torsions:
REMARK  status: ('A' for Active; 'I' for Inactive)
REMARK    1  A    between atoms: C_1  and  C_2
REMARK    2  A    between atoms: C_2  and  C_3
REMARK    3  A    between atoms: C_3  and  C_4
REMARK    4  A    between atoms: C_4  and  O_6
REMARK    5  A    between atoms: O_6  and  C_7
REMARK    6  A    between atoms: C_9  and  C_10
REMARK    7  A    between atoms: C_10  and  N_11
REMARK    8  A    between atoms: N_11  and  C_12
REMARK    9  A    between atoms: N_15  and  C_16
REMARK   10  A    between atoms: C_19  and  O_20
REMARK   11  A    between atoms: O_20  and  C_21
REMARK   12  A    between atoms: N_27  and  C_28
REMARK                            x       y       z     vdW  Elec       q    Type
REMARK                         _______ _______ _______ _____ _____    ______ ____
ROOT
ATOM      1  C   UNL     1       4.692   5.437  18.231  0.00  0.00    +0.000 C 
ATOM      2  N   UNL     1       4.150   6.543  19.076  0.00  0.00    +0.000 NA
ATOM      3  C   UNL     1       2.717   6.647  18.758  0.00  0.00    +0.000 C 
ATOM      4  C   UNL     1       2.277   5.193  18.652  0.00  0.00    +0.000 C 
ATOM      5  C   UNL     1       1.816   4.583  19.946  0.00  0.00    +0.000 C 
ATOM      6  O   UNL     1       0.778   4.887  20.517  0.00  0.00    +0.000 OA
ATOM      7  N   UNL     1       2.706   3.630  20.334  0.00  0.00    +0.000 N 
ATOM      8  C   UNL     1       2.549   2.821  21.519  0.00  0.00    +0.000 C 
ATOM      9  C   UNL     1       3.659   3.385  19.390  0.00  0.00    +0.000 C 
ATOM     10  O   UNL     1       4.449   2.452  19.393  0.00  0.00    +0.000 OA
ATOM     11  C   UNL     1       3.547   4.408  18.286  0.00  0.00    +0.000 C 
ATOM     12  H   UNL     1       4.629   7.428  18.908  0.00  0.00    +0.000 HD
ENDROOT
BRANCH   1  14
ATOM     13  C   UNL     1       4.848   4.800  15.706  0.00  0.00    +0.000 C 
ATOM     14  C   UNL     1       4.944   5.897  16.762  0.00  0.00    +0.000 C 
ENDBRANCH   1  14
BRANCH   1  15
ATOM     15  C   UNL     1       6.019   4.902  18.836  0.00  0.00    +0.000 C 
ATOM     16  O   UNL     1       6.449   5.173  19.947  0.00  0.00    +0.000 OA
BRANCH  15  17
ATOM     17  O   UNL     1       6.661   4.106  17.928  0.00  0.00    +0.000 OA
ATOM     18  C   UNL     1       8.024   4.461  17.697  0.00  0.00    +0.000 C 
ENDBRANCH  15  17
ENDBRANCH   1  15
BRANCH   3  19
ATOM     19  C   UNL     1       1.903   7.533  19.733  0.00  0.00    +0.000 C 
BRANCH  19  20
ATOM     20  N   UNL     1       1.455   8.805  19.138  0.00  0.00    +0.000 N 
ATOM     21  C   UNL     1       2.057   9.210  17.877  0.00  0.00    +0.000 C 
ATOM     22  C   UNL     1       0.728   9.662  19.961  0.00  0.00    +0.000 C 
ATOM     23  O   UNL     1       0.487   9.350  21.127  0.00  0.00    +0.000 OA
ATOM     24  N   UNL     1       0.292  10.823  19.360  0.00  0.00    +0.000 N 
ATOM     25  H   UNL     1       0.318  10.848  18.354  0.00  0.00    +0.000 HD
BRANCH  24  26
ATOM     26  C   UNL     1      -0.416  11.866  19.999  0.00  0.00    +0.000 A 
ATOM     27  C   UNL     1      -1.791  12.057  19.847  0.00  0.00    +0.000 A 
ATOM     28  C   UNL     1      -2.436  13.134  20.458  0.00  0.00    +0.000 A 
ATOM     29  C   UNL     1      -1.721  14.020  21.258  0.00  0.00    +0.000 A 
ATOM     30  C   UNL     1      -0.351  13.830  21.437  0.00  0.00    +0.000 A 
ATOM     31  C   UNL     1       0.299  12.752  20.813  0.00  0.00    +0.000 A 
BRANCH  29  32
ATOM     32  O   UNL     1      -2.456  15.051  21.771  0.00  0.00    +0.000 OA
ATOM     33  C   UNL     1      -3.760  15.203  21.227  0.00  0.00    +0.000 C 
ENDBRANCH  29  32
ENDBRANCH  24  26
ENDBRANCH  19  20
ENDBRANCH   3  19
TORSDOF 7
ENDMDL
MODEL 5
REMARK VINA RESULT:      -7.3      1.003      1.097
REMARK  Name = 
REMARK  12 active torsions:
REMARK  status: ('A' for Active; 'I' for Inactive)
REMARK    1  A    between atoms: C_1  and  C_2
REMARK    2  A    between atoms: C_2  and  C_3
REMARK    3  A    between atoms: C_3  and  C_4
REMARK    4  A    between atoms: C_4  and  O_6
REMARK    5  A    between atoms: O_6  and  C_7
REMARK    6  A    between atoms: C_9  and  C_10
REMARK    7  A    between atoms: C_10  and  N_11
REMARK    8  A    between atoms: N_11  and  C_12
REMARK    9  A    between atoms: N_15  and  C_16
REMARK   10  A    between atoms: C_19  and  O_20
REMARK   11  A    between atoms: O_20  and  C_21
REMARK   12  A    between atoms: N_27  and  C_28
REMARK                            x       y       z     vdW  Elec       q    Type
REMARK                         _______ _______ _______ _____ _____    ______ ____
ROOT
ATOM      1  C   UNL     1       4.530   5.218  17.747  0.00  0.00    +0.000 C 
ATOM      2  N   UNL     1       4.222   6.291  18.740  0.00  0.00    +0.000 NA
ATOM      3  C   UNL     1       2.762   6.473  18.717  0.00  0.00    +0.000 C 
ATOM      4  C   UNL     1       2.234   5.048  18.623  0.00  0.00    +0.000 C 
ATOM      5  C   UNL     1       2.002   4.378  19.948  0.00  0.00    +0.000 C 
ATOM      6  O   UNL     1       1.112   4.688  20.728  0.00  0.00    +0.000 OA
ATOM      7  N   UNL     1       2.899   3.367  20.101  0.00  0.00    +0.000 N 
ATOM      8  C   UNL     1       2.933   2.492  21.249  0.00  0.00    +0.000 C 
ATOM      9  C   UNL     1       3.636   3.143  18.976  0.00  0.00    +0.000 C 
ATOM     10  O   UNL     1       4.362   2.179  18.774  0.00  0.00    +0.000 OA
ATOM     11  C   UNL     1       3.365   4.236  17.972  0.00  0.00    +0.000 C 
ATOM     12  H   UNL     1       4.705   7.164  18.529  0.00  0.00    +0.000 HD
ENDROOT
BRANCH   1  14
ATOM     13  C   UNL     1       5.345   7.015  16.040  0.00  0.00    +0.000 C 
ATOM     14  C   UNL     1       4.515   5.758  16.284  0.00  0.00    +0.000 C 
ENDBRANCH   1  14
BRANCH   1  15
ATOM     15  C   UNL     1       5.919   4.592  18.049  0.00  0.00    +0.000 C 
ATOM     16  O   UNL     1       6.610   3.985  17.245  0.00  0.00    +0.000 OA
BRANCH  15  17
ATOM     17  O   UNL     1       6.246   4.786  19.363  0.00  0.00    +0.000 OA
ATOM     18  C   UNL     1       7.460   5.509  19.566  0.00  0.00    +0.000 C 
ENDBRANCH  15  17
ENDBRANCH   1  15
BRANCH   3  19
ATOM     19  C   UNL     1       2.201   7.329  19.879  0.00  0.00    +0.000 C 
BRANCH  19  20
ATOM     20  N   UNL     1       1.481   8.534  19.429  0.00  0.00    +0.000 N 
ATOM     21  C   UNL     1       1.880   9.124  18.161  0.00  0.00    +0.000 C 
ATOM     22  C   UNL     1       0.694   9.187  20.375  0.00  0.00    +0.000 C 
ATOM     23  O   UNL     1       0.623   8.760  21.527  0.00  0.00    +0.000 OA
ATOM     24  N   UNL     1       0.005  10.285  19.908  0.00  0.00    +0.000 N 
ATOM     25  H   UNL     1      -0.069  10.380  18.909  0.00  0.00    +0.000 HD
BRANCH  24  26
ATOM     26  C   UNL     1      -0.813  11.136  20.685  0.00  0.00    +0.000 A 
ATOM     27  C   UNL     1      -1.770  11.987  20.130  0.00  0.00    +0.000 A 
ATOM     28  C   UNL     1      -2.518  12.847  20.937  0.00  0.00    +0.000 A 
ATOM     29  C   UNL     1      -2.343  12.846  22.317  0.00  0.00    +0.000 A 
ATOM     30  C   UNL     1      -1.406  11.985  22.889  0.00  0.00    +0.000 A 
ATOM     31  C   UNL     1      -0.647  11.128  22.075  0.00  0.00    +0.000 A 
BRANCH  29  32
ATOM     32  O   UNL     1      -3.107  13.754  22.994  0.00  0.00    +0.000 OA
ATOM     33  C   UNL     1      -3.941  14.574  22.187  0.00  0.00    +0.000 C 
ENDBRANCH  29  32
ENDBRANCH  24  26
ENDBRANCH  19  20
ENDBRANCH   3  19
TORSDOF 7
ENDMDL
MODEL 6
REMARK VINA RESULT:      -7.1      1.348      1.379
REMARK  Name = 
REMARK  12 active torsions:
REMARK  status: ('A' for Active; 'I' for Inactive)
REMARK    1  A    between atoms: C_1  and  C_2
REMARK    2  A    between atoms: C_2  and  C_3
REMARK    3  A    between atoms: C_3  and  C_4
REMARK    4  A    between atoms: C_4  and  O_6
REMARK    5  A    between atoms: O_6  and  C_7
REMARK    6  A    between atoms: C_9  and  C_10
REMARK    7  A    between atoms: C_10  and  N_11
REMARK    8  A    between atoms: N_11  and  C_12
REMARK    9  A    between atoms: N_15  and  C_16
REMARK   10  A    between atoms: C_19  and  O_20
REMARK   11  A    between atoms: O_20  and  C_21
REMARK   12  A    between atoms: N_27  and  C_28
REMARK                            x       y       z     vdW  Elec       q    Type
REMARK                         _______ _______ _______ _____ _____    ______ ____
ROOT
ATOM      1  C   UNL     1       4.842   5.723  17.590  0.00  0.00    +0.000 C 
ATOM      2  N   UNL     1       4.345   6.783  18.519  0.00  0.00    +0.000 NA
ATOM      3  C   UNL     1       2.893   6.881  18.301  0.00  0.00    +0.000 C 
ATOM      4  C   UNL     1       2.462   5.428  18.157  0.00  0.00    +0.000 C 
ATOM      5  C   UNL     1       2.094   4.754  19.449  0.00  0.00    +0.000 C 
ATOM      6  O   UNL     1       1.093   5.017  20.100  0.00  0.00    +0.000 OA
ATOM      7  N   UNL     1       3.018   3.796  19.734  0.00  0.00    +0.000 N 
ATOM      8  C   UNL     1       2.948   2.932  20.888  0.00  0.00    +0.000 C 
ATOM      9  C   UNL     1       3.909   3.607  18.719  0.00  0.00    +0.000 C 
ATOM     10  O   UNL     1       4.708   2.686  18.628  0.00  0.00    +0.000 OA
ATOM     11  C   UNL     1       3.713   4.678  17.673  0.00  0.00    +0.000 C 
ATOM     12  H   UNL     1       4.802   7.680  18.362  0.00  0.00    +0.000 HD
ENDROOT
BRANCH   1  14
ATOM     13  C   UNL     1       5.153   5.180  15.058  0.00  0.00    +0.000 C 
ATOM     14  C   UNL     1       4.990   6.252  16.131  0.00  0.00    +0.000 C 
ENDBRANCH   1  14
BRANCH   1  15
ATOM     15  C   UNL     1       6.210   5.179  18.082  0.00  0.00    +0.000 C 
ATOM     16  O   UNL     1       6.947   4.440  17.445  0.00  0.00    +0.000 OA
BRANCH  15  17
ATOM     17  O   UNL     1       6.461   5.618  19.352  0.00  0.00    +0.000 OA
ATOM     18  C   UNL     1       7.837   5.566  19.731  0.00  0.00    +0.000 C 
ENDBRANCH  15  17
ENDBRANCH   1  15
BRANCH   3  19
ATOM     19  C   UNL     1       2.135   7.711  19.367  0.00  0.00    +0.000 C 
BRANCH  19  20
ATOM     20  N   UNL     1       1.563   8.963  18.841  0.00  0.00    +0.000 N 
ATOM     21  C   UNL     1       2.173   9.538  17.653  0.00  0.00    +0.000 C 
ATOM     22  C   UNL     1       0.691   9.657  19.678  0.00  0.00    +0.000 C 
ATOM     23  O   UNL     1       0.431   9.225  20.801  0.00  0.00    +0.000 OA
ATOM     24  N   UNL     1       0.145  10.801  19.139  0.00  0.00    +0.000 N 
ATOM     25  H   UNL     1       0.220  10.909  18.141  0.00  0.00    +0.000 HD
BRANCH  24  26
ATOM     26  C   UNL     1      -0.721  11.694  19.807  0.00  0.00    +0.000 A 
ATOM     27  C   UNL     1      -0.299  12.538  20.836  0.00  0.00    +0.000 A 
ATOM     28  C   UNL     1      -1.206  13.366  21.500  0.00  0.00    +0.000 A 
ATOM     29  C   UNL     1      -2.545  13.387  21.125  0.00  0.00    +0.000 A 
ATOM     30  C   UNL     1      -2.978  12.565  20.084  0.00  0.00    +0.000 A 
ATOM     31  C   UNL     1      -2.067  11.725  19.423  0.00  0.00    +0.000 A 
BRANCH  29  32
ATOM     32  O   UNL     1      -3.339  14.211  21.872  0.00  0.00    +0.000 OA
ATOM     33  C   UNL     1      -4.613  14.502  21.316  0.00  0.00    +0.000 C 
ENDBRANCH  29  32
ENDBRANCH  24  26
ENDBRANCH  19  20
ENDBRANCH   3  19
TORSDOF 7
ENDMDL
MODEL 7
REMARK VINA RESULT:      -7.1      2.730      9.971
REMARK  Name = 
REMARK  12 active torsions:
REMARK  status: ('A' for Active; 'I' for Inactive)
REMARK    1  A    between atoms: C_1  and  C_2
REMARK    2  A    between atoms: C_2  and  C_3
REMARK    3  A    between atoms: C_3  and  C_4
REMARK    4  A    between atoms: C_4  and  O_6
REMARK    5  A    between atoms: O_6  and  C_7
REMARK    6  A    between atoms: C_9  and  C_10
REMARK    7  A    between atoms: C_10  and  N_11
REMARK    8  A    between atoms: N_11  and  C_12
REMARK    9  A    between atoms: N_15  and  C_16
REMARK   10  A    between atoms: C_19  and  O_20
REMARK   11  A    between atoms: O_20  and  C_21
REMARK   12  A    between atoms: N_27  and  C_28
REMARK                            x       y       z     vdW  Elec       q    Type
REMARK                         _______ _______ _______ _____ _____    ______ ____
ROOT
ATOM      1  C   UNL     1      -0.806  12.763  20.699  0.00  0.00    +0.000 C 
ATOM      2  N   UNL     1       0.311  12.333  19.805  0.00  0.00    +0.000 NA
ATOM      3  C   UNL     1       0.325  10.862  19.831  0.00  0.00    +0.000 C 
ATOM      4  C   UNL     1      -1.154  10.499  19.791  0.00  0.00    +0.000 C 
ATOM      5  C   UNL     1      -1.722  10.342  18.409  0.00  0.00    +0.000 C 
ATOM      6  O   UNL     1      -1.445   9.422  17.652  0.00  0.00    +0.000 OA
ATOM      7  N   UNL     1      -2.607  11.348  18.172  0.00  0.00    +0.000 N 
ATOM      8  C   UNL     1      -3.363  11.480  16.950  0.00  0.00    +0.000 C 
ATOM      9  C   UNL     1      -2.848  12.107  19.279  0.00  0.00    +0.000 C 
ATOM     10  O   UNL     1      -3.737  12.938  19.399  0.00  0.00    +0.000 OA
ATOM     11  C   UNL     1      -1.888  11.716  20.376  0.00  0.00    +0.000 C 
ATOM     12  H   UNL     1       1.210  12.714  20.099  0.00  0.00    +0.000 HD
ENDROOT
BRANCH   1  14
ATOM     13  C   UNL     1      -1.445  12.059  23.128  0.00  0.00    +0.000 C 
ATOM     14  C   UNL     1      -0.406  12.688  22.205  0.00  0.00    +0.000 C 
ENDBRANCH   1  14
BRANCH   1  15
ATOM     15  C   UNL     1      -1.241  14.213  20.354  0.00  0.00    +0.000 C 
ATOM     16  O   UNL     1      -2.020  14.891  21.007  0.00  0.00    +0.000 OA
BRANCH  15  17
ATOM     17  O   UNL     1      -0.652  14.614  19.187  0.00  0.00    +0.000 OA
ATOM     18  C   UNL     1      -0.502  16.028  19.061  0.00  0.00    +0.000 C 
ENDBRANCH  15  17
ENDBRANCH   1  15
BRANCH   3  19
ATOM     19  C   UNL     1       1.214  10.206  18.747  0.00  0.00    +0.000 C 
BRANCH  19  20
ATOM     20  N   UNL     1       1.650   8.840  19.090  0.00  0.00    +0.000 N 
ATOM     21  C   UNL     1       1.498   8.410  20.471  0.00  0.00    +0.000 C 
ATOM     22  C   UNL     1       2.443   8.179  18.154  0.00  0.00    +0.000 C 
ATOM     23  O   UNL     1       2.754   8.733  17.100  0.00  0.00    +0.000 OA
ATOM     24  N   UNL     1       2.798   6.891  18.491  0.00  0.00    +0.000 N 
ATOM     25  H   UNL     1       2.277   6.460  19.236  0.00  0.00    +0.000 HD
BRANCH  24  26
ATOM     26  C   UNL     1       3.634   6.042  17.732  0.00  0.00    +0.000 A 
ATOM     27  C   UNL     1       4.781   6.491  17.074  0.00  0.00    +0.000 A 
ATOM     28  C   UNL     1       5.545   5.622  16.294  0.00  0.00    +0.000 A 
ATOM     29  C   UNL     1       5.194   4.281  16.184  0.00  0.00    +0.000 A 
ATOM     30  C   UNL     1       4.063   3.812  16.853  0.00  0.00    +0.000 A 
ATOM     31  C   UNL     1       3.288   4.689  17.630  0.00  0.00    +0.000 A 
BRANCH  29  32
ATOM     32  O   UNL     1       5.999   3.540  15.366  0.00  0.00    +0.000 OA
ATOM     33  C   UNL     1       6.384   4.172  14.153  0.00  0.00    +0.000 C 
ENDBRANCH  29  32
ENDBRANCH  24  26
ENDBRANCH  19  20
ENDBRANCH   3  19
TORSDOF 7
ENDMDL
MODEL 8
REMARK VINA RESULT:      -7.0      2.288     10.439
REMARK  Name = 
REMARK  12 active torsions:
REMARK  status: ('A' for Active; 'I' for Inactive)
REMARK    1  A    between atoms: C_1  and  C_2
REMARK    2  A    between atoms: C_2  and  C_3
REMARK    3  A    between atoms: C_3  and  C_4
REMARK    4  A    between atoms: C_4  and  O_6
REMARK    5  A    between atoms: O_6  and  C_7
REMARK    6  A    between atoms: C_9  and  C_10
REMARK    7  A    between atoms: C_10  and  N_11
REMARK    8  A    between atoms: N_11  and  C_12
REMARK    9  A    between atoms: N_15  and  C_16
REMARK   10  A    between atoms: C_19  and  O_20
REMARK   11  A    between atoms: O_20  and  C_21
REMARK   12  A    between atoms: N_27  and  C_28
REMARK                            x       y       z     vdW  Elec       q    Type
REMARK                         _______ _______ _______ _____ _____    ______ ____
ROOT
ATOM      1  C   UNL     1      -1.429  13.125  22.608  0.00  0.00    +0.000 C 
ATOM      2  N   UNL     1      -0.183  12.350  22.329  0.00  0.00    +0.000 NA
ATOM      3  C   UNL     1      -0.497  11.441  21.216  0.00  0.00    +0.000 C 
ATOM      4  C   UNL     1      -1.340  12.304  20.287  0.00  0.00    +0.000 C 
ATOM      5  C   UNL     1      -0.553  13.076  19.265  0.00  0.00    +0.000 C 
ATOM      6  O   UNL     1       0.026  12.566  18.316  0.00  0.00    +0.000 OA
ATOM      7  N   UNL     1      -0.634  14.404  19.548  0.00  0.00    +0.000 N 
ATOM      8  C   UNL     1      -0.021  15.434  18.744  0.00  0.00    +0.000 C 
ATOM      9  C   UNL     1      -1.512  14.674  20.556  0.00  0.00    +0.000 C 
ATOM     10  O   UNL     1      -1.922  15.782  20.872  0.00  0.00    +0.000 OA
ATOM     11  C   UNL     1      -1.966  13.381  21.187  0.00  0.00    +0.000 C 
ATOM     12  H   UNL     1       0.143  11.834  23.146  0.00  0.00    +0.000 HD
ENDROOT
BRANCH   1  14
ATOM     13  C   UNL     1      -3.913  12.439  23.012  0.00  0.00    +0.000 C 
ATOM     14  C   UNL     1      -2.455  12.295  23.438  0.00  0.00    +0.000 C 
ENDBRANCH   1  14
BRANCH   1  15
ATOM     15  C   UNL     1      -1.087  14.433  23.373  0.00  0.00    +0.000 C 
ATOM     16  O   UNL     1      -0.009  15.007  23.343  0.00  0.00    +0.000 OA
BRANCH  15  17
ATOM     17  O   UNL     1      -2.160  14.835  24.119  0.00  0.00    +0.000 OA
ATOM     18  C   UNL     1      -2.286  16.250  24.251  0.00  0.00    +0.000 C 
ENDBRANCH  15  17
ENDBRANCH   1  15
BRANCH   3  19
ATOM     19  C   UNL     1       0.735  10.756  20.575  0.00  0.00    +0.000 C 
BRANCH  19  20
ATOM     20  N   UNL     1       1.022   9.421  21.130  0.00  0.00    +0.000 N 
ATOM     21  C   UNL     1       1.124   9.298  22.575  0.00  0.00    +0.000 C 
ATOM     22  C   UNL     1       1.470   8.451  20.235  0.00  0.00    +0.000 C 
ATOM     23  O   UNL     1       1.614   8.723  19.044  0.00  0.00    +0.000 OA
ATOM     24  N   UNL     1       1.690   7.205  20.781  0.00  0.00    +0.000 N 
ATOM     25  H   UNL     1       1.291   7.035  21.690  0.00  0.00    +0.000 HD
BRANCH  24  26
ATOM     26  C   UNL     1       2.190   6.080  20.091  0.00  0.00    +0.000 A 
ATOM     27  C   UNL     1       3.319   6.129  19.270  0.00  0.00    +0.000 A 
ATOM     28  C   UNL     1       3.743   5.000  18.567  0.00  0.00    +0.000 A 
ATOM     29  C   UNL     1       3.064   3.793  18.699  0.00  0.00    +0.000 A 
ATOM     30  C   UNL     1       1.947   3.722  19.532  0.00  0.00    +0.000 A 
ATOM     31  C   UNL     1       1.515   4.861  20.230  0.00  0.00    +0.000 A 
BRANCH  29  32
ATOM     32  O   UNL     1       3.554   2.772  17.935  0.00  0.00    +0.000 OA
ATOM     33  C   UNL     1       3.440   1.474  18.502  0.00  0.00    +0.000 C 
ENDBRANCH  29  32
ENDBRANCH  24  26
ENDBRANCH  19  20
ENDBRANCH   3  19
TORSDOF 7
ENDMDL
MODEL 9
REMARK VINA RESULT:      -6.9      1.041      1.187
REMARK  Name = 
REMARK  12 active torsions:
REMARK  status: ('A' for Active; 'I' for Inactive)
REMARK    1  A    between atoms: C_1  and  C_2
REMARK    2  A    between atoms: C_2  and  C_3
REMARK    3  A    between atoms: C_3  and  C_4
REMARK    4  A    between atoms: C_4  and  O_6
REMARK    5  A    between atoms: O_6  and  C_7
REMARK    6  A    between atoms: C_9  and  C_10
REMARK    7  A    between atoms: C_10  and  N_11
REMARK    8  A    between atoms: N_11  and  C_12
REMARK    9  A    between atoms: N_15  and  C_16
REMARK   10  A    between atoms: C_19  and  O_20
REMARK   11  A    between atoms: O_20  and  C_21
REMARK   12  A    between atoms: N_27  and  C_28
REMARK                            x       y       z     vdW  Elec       q    Type
REMARK                         _______ _______ _______ _____ _____    ______ ____
ROOT
ATOM      1  C   UNL     1       5.694   5.816  17.566  0.00  0.00    +0.000 C 
ATOM      2  N   UNL     1       4.940   6.330  18.748  0.00  0.00    +0.000 NA
ATOM      3  C   UNL     1       3.612   6.728  18.255  0.00  0.00    +0.000 C 
ATOM      4  C   UNL     1       3.256   5.618  17.276  0.00  0.00    +0.000 C 
ATOM      5  C   UNL     1       2.536   4.450  17.889  0.00  0.00    +0.000 C 
ATOM      6  O   UNL     1       1.387   4.492  18.305  0.00  0.00    +0.000 OA
ATOM      7  N   UNL     1       3.348   3.358  17.859  0.00  0.00    +0.000 N 
ATOM      8  C   UNL     1       2.956   2.054  18.337  0.00  0.00    +0.000 C 
ATOM      9  C   UNL     1       4.496   3.576  17.156  0.00  0.00    +0.000 C 
ATOM     10  O   UNL     1       5.296   2.721  16.806  0.00  0.00    +0.000 OA
ATOM     11  C   UNL     1       4.601   5.041  16.807  0.00  0.00    +0.000 C 
ATOM     12  H   UNL     1       5.414   7.111  19.200  0.00  0.00    +0.000 HD
ENDROOT
BRANCH   1  14
ATOM     13  C   UNL     1       7.329   7.837  17.340  0.00  0.00    +0.000 C 
ATOM     14  C   UNL     1       6.253   6.975  16.685  0.00  0.00    +0.000 C 
ENDBRANCH   1  14
BRANCH   1  15
ATOM     15  C   UNL     1       6.868   4.912  18.031  0.00  0.00    +0.000 C 
ATOM     16  O   UNL     1       7.683   4.377  17.294  0.00  0.00    +0.000 OA
BRANCH  15  17
ATOM     17  O   UNL     1       6.839   4.767  19.390  0.00  0.00    +0.000 OA
ATOM     18  C   UNL     1       7.948   5.357  20.067  0.00  0.00    +0.000 C 
ENDBRANCH  15  17
ENDBRANCH   1  15
BRANCH   3  19
ATOM     19  C   UNL     1       2.570   7.014  19.365  0.00  0.00    +0.000 C 
BRANCH  19  20
ATOM     20  N   UNL     1       1.758   8.218  19.115  0.00  0.00    +0.000 N 
ATOM     21  C   UNL     1       1.726   8.741  17.758  0.00  0.00    +0.000 C 
ATOM     22  C   UNL     1       1.334   8.934  20.232  0.00  0.00    +0.000 C 
ATOM     23  O   UNL     1       1.639   8.560  21.363  0.00  0.00    +0.000 OA
ATOM     24  N   UNL     1       0.544  10.030  19.961  0.00  0.00    +0.000 N 
ATOM     25  H   UNL     1       0.147  10.084  19.038  0.00  0.00    +0.000 HD
BRANCH  24  26
ATOM     26  C   UNL     1       0.037  10.937  20.919  0.00  0.00    +0.000 A 
ATOM     27  C   UNL     1       0.308  12.306  20.891  0.00  0.00    +0.000 A 
ATOM     28  C   UNL     1      -0.174  13.152  21.891  0.00  0.00    +0.000 A 
ATOM     29  C   UNL     1      -0.964  12.648  22.919  0.00  0.00    +0.000 A 
ATOM     30  C   UNL     1      -1.262  11.285  22.949  0.00  0.00    +0.000 A 
ATOM     31  C   UNL     1      -0.767  10.433  21.949  0.00  0.00    +0.000 A 
BRANCH  29  32
ATOM     32  O   UNL     1      -1.346  13.567  23.855  0.00  0.00    +0.000 OA
ATOM     33  C   UNL     1      -1.659  14.858  23.351  0.00  0.00    +0.000 C 
ENDBRANCH  29  32
ENDBRANCH  24  26
ENDBRANCH  19  20
ENDBRANCH   3  19
TORSDOF 7
ENDMDL
