MODEL 1
REMARK VINA RESULT:      -7.4      0.000      0.000
REMARK  Name = 
REMARK  5 active torsions:
REMARK  status: ('A' for Active; 'I' for Inactive)
REMARK    1  A    between atoms: C_1  and  N_2
REMARK    2  A    between atoms: N_2  and  C_3
REMARK    3  A    between atoms: N_2  and  C_4
REMARK    4  A    between atoms: C_5  and  C_6
REMARK    5  A    between atoms: C_8  and  C_9
REMARK                            x       y       z     vdW  Elec       q    Type
REMARK                         _______ _______ _______ _____ _____    ______ ____
ROOT
ATOM      1  C   UNL     1      -0.945  10.524  18.472  0.00  0.00    +0.000 A 
ATOM      2  N   UNL     1       0.052   9.627  18.252  0.00  0.00    +0.000 NA
ATOM      3  C   UNL     1       0.834   9.234  19.289  0.00  0.00    +0.000 A 
ATOM      4  C   UNL     1       0.653   9.750  20.565  0.00  0.00    +0.000 A 
ATOM      5  C   UNL     1      -0.386  10.655  20.788  0.00  0.00    +0.000 A 
ATOM      6  C   UNL     1      -1.226  11.032  19.742  0.00  0.00    +0.000 A 
ATOM      7  C   UNL     1      -2.339  11.965  20.007  0.00  0.00    +0.000 C 
ATOM      8  O   UNL     1      -3.180  12.264  19.167  0.00  0.00    +0.000 OA
ATOM      9  C   UNL     1      -2.492  12.564  21.333  0.00  0.00    +0.000 A 
ATOM     10  C   UNL     1      -3.521  13.494  21.540  0.00  0.00    +0.000 A 
ATOM     11  C   UNL     1      -3.695  14.073  22.792  0.00  0.00    +0.000 A 
ATOM     12  C   UNL     1      -2.842  13.723  23.837  0.00  0.00    +0.000 A 
ATOM     13  C   UNL     1      -1.814  12.796  23.631  0.00  0.00    +0.000 A 
ATOM     14  C   UNL     1      -1.640  12.212  22.371  0.00  0.00    +0.000 A 
ATOM     15  C   UNL     1      -0.568  11.226  22.138  0.00  0.00    +0.000 C 
ATOM     16  O   UNL     1       0.175  10.883  23.060  0.00  0.00    +0.000 OA
ENDROOT
BRANCH   3  17
ATOM     17  C   UNL     1       1.880   8.242  18.983  0.00  0.00    +0.000 A 
ATOM     18  C   UNL     1       2.646   8.333  17.806  0.00  0.00    +0.000 A 
ATOM     19  C   UNL     1       3.595   7.359  17.482  0.00  0.00    +0.000 A 
ATOM     20  C   UNL     1       3.800   6.284  18.339  0.00  0.00    +0.000 A 
ATOM     21 CL   UNL     1       4.922   5.049  17.914  0.00  0.00    +0.000 Cl
ATOM     22  C   UNL     1       3.088   6.188  19.529  0.00  0.00    +0.000 A 
ATOM     23  C   UNL     1       2.136   7.157  19.845  0.00  0.00    +0.000 A 
ENDBRANCH   3  17
BRANCH   1  25
ATOM     24  C   UNL     1      -2.389  10.118  16.446  0.00  0.00    +0.000 C 
ATOM     25  C   UNL     1      -1.709  10.912  17.283  0.00  0.00    +0.000 C 
BRANCH  24  27
ATOM     26  C   UNL     1      -3.028   9.949  14.048  0.00  0.00    +0.000 C 
ATOM     27  N   UNL     1      -3.175  10.540  15.375  0.00  0.00    +0.000 N 
ATOM     28  C   UNL     1      -4.335  11.417  15.565  0.00  0.00    +0.000 C 
ENDBRANCH  24  27
ENDBRANCH   1  25
TORSDOF 3
ENDMDL
MODEL 2
REMARK VINA RESULT:      -7.3      0.323      1.172
REMARK  Name = 
REMARK  5 active torsions:
REMARK  status: ('A' for Active; 'I' for Inactive)
REMARK    1  A    between atoms: C_1  and  N_2
REMARK    2  A    between atoms: N_2  and  C_3
REMARK    3  A    between atoms: N_2  and  C_4
REMARK    4  A    between atoms: C_5  and  C_6
REMARK    5  A    between atoms: C_8  and  C_9
REMARK                            x       y       z     vdW  Elec       q    Type
REMARK                         _______ _______ _______ _____ _____    ______ ____
ROOT
ATOM      1  C   UNL     1      -0.790  10.253  18.323  0.00  0.00    +0.000 A 
ATOM      2  N   UNL     1       0.203   9.349  18.114  0.00  0.00    +0.000 NA
ATOM      3  C   UNL     1       0.991   8.975  19.155  0.00  0.00    +0.000 A 
ATOM      4  C   UNL     1       0.820   9.518  20.421  0.00  0.00    +0.000 A 
ATOM      5  C   UNL     1      -0.215  10.429  20.633  0.00  0.00    +0.000 A 
ATOM      6  C   UNL     1      -1.062  10.787  19.585  0.00  0.00    +0.000 A 
ATOM      7  C   UNL     1      -2.171  11.728  19.838  0.00  0.00    +0.000 C 
ATOM      8  O   UNL     1      -3.016  12.012  18.997  0.00  0.00    +0.000 OA
ATOM      9  C   UNL     1      -2.313  12.355  21.152  0.00  0.00    +0.000 A 
ATOM     10  C   UNL     1      -3.339  13.291  21.348  0.00  0.00    +0.000 A 
ATOM     11  C   UNL     1      -3.503  13.895  22.588  0.00  0.00    +0.000 A 
ATOM     12  C   UNL     1      -2.643  13.565  23.634  0.00  0.00    +0.000 A 
ATOM     13  C   UNL     1      -1.620  12.631  23.440  0.00  0.00    +0.000 A 
ATOM     14  C   UNL     1      -1.455  12.021  22.192  0.00  0.00    +0.000 A 
ATOM     15  C   UNL     1      -0.387  11.028  21.971  0.00  0.00    +0.000 C 
ATOM     16  O   UNL     1       0.362  10.702  22.895  0.00  0.00    +0.000 OA
ENDROOT
BRANCH   3  17
ATOM     17  C   UNL     1       2.032   7.975  18.861  0.00  0.00    +0.000 A 
ATOM     18  C   UNL     1       2.260   6.887  19.725  0.00  0.00    +0.000 A 
ATOM     19  C   UNL     1       3.288   5.972  19.482  0.00  0.00    +0.000 A 
ATOM     20  C   UNL     1       4.098   6.126  18.363  0.00  0.00    +0.000 A 
ATOM     21 CL   UNL     1       5.406   5.038  18.094  0.00  0.00    +0.000 Cl
ATOM     22  C   UNL     1       3.873   7.166  17.469  0.00  0.00    +0.000 A 
ATOM     23  C   UNL     1       2.851   8.083  17.719  0.00  0.00    +0.000 A 
ENDBRANCH   3  17
BRANCH   1  25
ATOM     24  C   UNL     1      -2.470   9.882  16.480  0.00  0.00    +0.000 C 
ATOM     25  C   UNL     1      -1.561  10.619  17.131  0.00  0.00    +0.000 C 
BRANCH  24  27
ATOM     26  C   UNL     1      -4.272  11.326  15.559  0.00  0.00    +0.000 C 
ATOM     27  N   UNL     1      -3.244  10.303  15.400  0.00  0.00    +0.000 N 
ATOM     28  C   UNL     1      -2.918   9.924  14.021  0.00  0.00    +0.000 C 
ENDBRANCH  24  27
ENDBRANCH   1  25
TORSDOF 3
ENDMDL
MODEL 3
REMARK VINA RESULT:      -6.7      2.926      3.866
REMARK  Name = 
REMARK  5 active torsions:
REMARK  status: ('A' for Active; 'I' for Inactive)
REMARK    1  A    between atoms: C_1  and  N_2
REMARK    2  A    between atoms: N_2  and  C_3
REMARK    3  A    between atoms: N_2  and  C_4
REMARK    4  A    between atoms: C_5  and  C_6
REMARK    5  A    between atoms: C_8  and  C_9
REMARK                            x       y       z     vdW  Elec       q    Type
REMARK                         _______ _______ _______ _____ _____    ______ ____
ROOT
ATOM      1  C   UNL     1       0.507  12.792  19.694  0.00  0.00    +0.000 A 
ATOM      2  N   UNL     1       1.046  11.595  19.345  0.00  0.00    +0.000 NA
ATOM      3  C   UNL     1       0.726  10.487  20.062  0.00  0.00    +0.000 A 
ATOM      4  C   UNL     1      -0.120  10.559  21.161  0.00  0.00    +0.000 A 
ATOM      5  C   UNL     1      -0.686  11.787  21.500  0.00  0.00    +0.000 A 
ATOM      6  C   UNL     1      -0.403  12.924  20.746  0.00  0.00    +0.000 A 
ATOM      7  C   UNL     1      -1.039  14.208  21.103  0.00  0.00    +0.000 C 
ATOM      8  O   UNL     1      -0.922  15.226  20.430  0.00  0.00    +0.000 OA
ATOM      9  C   UNL     1      -1.875  14.303  22.299  0.00  0.00    +0.000 A 
ATOM     10  C   UNL     1      -2.417  15.548  22.649  0.00  0.00    +0.000 A 
ATOM     11  C   UNL     1      -3.222  15.665  23.776  0.00  0.00    +0.000 A 
ATOM     12  C   UNL     1      -3.487  14.539  24.553  0.00  0.00    +0.000 A 
ATOM     13  C   UNL     1      -2.947  13.297  24.205  0.00  0.00    +0.000 A 
ATOM     14  C   UNL     1      -2.138  13.177  23.070  0.00  0.00    +0.000 A 
ATOM     15  C   UNL     1      -1.567  11.874  22.683  0.00  0.00    +0.000 C 
ATOM     16  O   UNL     1      -1.817  10.863  23.342  0.00  0.00    +0.000 OA
ENDROOT
BRANCH   3  17
ATOM     17  C   UNL     1       1.329   9.220  19.613  0.00  0.00    +0.000 A 
ATOM     18  C   UNL     1       1.492   8.138  20.499  0.00  0.00    +0.000 A 
ATOM     19  C   UNL     1       2.120   6.957  20.092  0.00  0.00    +0.000 A 
ATOM     20  C   UNL     1       2.584   6.837  18.788  0.00  0.00    +0.000 A 
ATOM     21 CL   UNL     1       3.415   5.410  18.301  0.00  0.00    +0.000 Cl
ATOM     22  C   UNL     1       2.402   7.872  17.878  0.00  0.00    +0.000 A 
ATOM     23  C   UNL     1       1.782   9.052  18.289  0.00  0.00    +0.000 A 
ENDBRANCH   3  17
BRANCH   1  25
ATOM     24  C   UNL     1       2.060  14.658  19.015  0.00  0.00    +0.000 C 
ATOM     25  C   UNL     1       0.942  13.933  18.883  0.00  0.00    +0.000 C 
BRANCH  24  27
ATOM     26  C   UNL     1       1.811  16.981  18.163  0.00  0.00    +0.000 C 
ATOM     27  N   UNL     1       2.477  15.682  18.166  0.00  0.00    +0.000 N 
ATOM     28  C   UNL     1       3.731  15.598  17.411  0.00  0.00    +0.000 C 
ENDBRANCH  24  27
ENDBRANCH   1  25
TORSDOF 3
ENDMDL
MODEL 4
REMARK VINA RESULT:      -6.7      3.794      5.053
REMARK  Name = 
REMARK  5 active torsions:
REMARK  status: ('A' for Active; 'I' for Inactive)
REMARK    1  A    between atoms: C_1  and  N_2
REMARK    2  A    between atoms: N_2  and  C_3
REMARK    3  A    between atoms: N_2  and  C_4
REMARK    4  A    between atoms: C_5  and  C_6
REMARK    5  A    between atoms: C_8  and  C_9
REMARK                            x       y       z     vdW  Elec       q    Type
REMARK                         _______ _______ _______ _____ _____    ______ ____
ROOT
ATOM      1  C   UNL     1      -1.041  12.499  20.214  0.00  0.00    +0.000 A 
ATOM      2  N   UNL     1      -0.504  11.262  20.055  0.00  0.00    +0.000 NA
ATOM      3  C   UNL     1       0.693  11.133  19.427  0.00  0.00    +0.000 A 
ATOM      4  C   UNL     1       1.365  12.238  18.921  0.00  0.00    +0.000 A 
ATOM      5  C   UNL     1       0.817  13.507  19.107  0.00  0.00    +0.000 A 
ATOM      6  C   UNL     1      -0.389  13.659  19.790  0.00  0.00    +0.000 A 
ATOM      7  C   UNL     1      -0.935  15.014  20.004  0.00  0.00    +0.000 C 
ATOM      8  O   UNL     1      -1.932  15.237  20.681  0.00  0.00    +0.000 OA
ATOM      9  C   UNL     1      -0.267  16.173  19.414  0.00  0.00    +0.000 A 
ATOM     10  C   UNL     1      -0.840  17.442  19.581  0.00  0.00    +0.000 A 
ATOM     11  C   UNL     1      -0.223  18.563  19.039  0.00  0.00    +0.000 A 
ATOM     12  C   UNL     1       0.968  18.417  18.329  0.00  0.00    +0.000 A 
ATOM     13  C   UNL     1       1.541  17.152  18.161  0.00  0.00    +0.000 A 
ATOM     14  C   UNL     1       0.921  16.024  18.709  0.00  0.00    +0.000 A 
ATOM     15  C   UNL     1       1.514  14.683  18.550  0.00  0.00    +0.000 C 
ATOM     16  O   UNL     1       2.583  14.542  17.951  0.00  0.00    +0.000 OA
ENDROOT
BRANCH   3  17
ATOM     17  C   UNL     1       1.228   9.765  19.310  0.00  0.00    +0.000 A 
ATOM     18  C   UNL     1       1.221   8.885  20.408  0.00  0.00    +0.000 A 
ATOM     19  C   UNL     1       1.784   7.609  20.317  0.00  0.00    +0.000 A 
ATOM     20  C   UNL     1       2.353   7.190  19.120  0.00  0.00    +0.000 A 
ATOM     21 CL   UNL     1       3.105   5.644  19.023  0.00  0.00    +0.000 Cl
ATOM     22  C   UNL     1       2.340   8.020  18.006  0.00  0.00    +0.000 A 
ATOM     23  C   UNL     1       1.784   9.296  18.102  0.00  0.00    +0.000 A 
ENDBRANCH   3  17
BRANCH   1  25
ATOM     24  C   UNL     1      -2.621  12.414  22.178  0.00  0.00    +0.000 C 
ATOM     25  C   UNL     1      -2.352  12.531  20.871  0.00  0.00    +0.000 C 
BRANCH  24  27
ATOM     26  C   UNL     1      -4.036  12.527  24.220  0.00  0.00    +0.000 C 
ATOM     27  N   UNL     1      -3.877  12.537  22.769  0.00  0.00    +0.000 N 
ATOM     28  C   UNL     1      -5.063  12.913  21.993  0.00  0.00    +0.000 C 
ENDBRANCH  24  27
ENDBRANCH   1  25
TORSDOF 3
ENDMDL
MODEL 5
REMARK VINA RESULT:      -6.6      3.679      4.263
REMARK  Name = 
REMARK  5 active torsions:
REMARK  status: ('A' for Active; 'I' for Inactive)
REMARK    1  A    between atoms: C_1  and  N_2
REMARK    2  A    between atoms: N_2  and  C_3
REMARK    3  A    between atoms: N_2  and  C_4
REMARK    4  A    between atoms: C_5  and  C_6
REMARK    5  A    between atoms: C_8  and  C_9
REMARK                            x       y       z     vdW  Elec       q    Type
REMARK                         _______ _______ _______ _____ _____    ______ ____
ROOT
ATOM      1  C   UNL     1      -0.791  11.924  19.343  0.00  0.00    +0.000 A 
ATOM      2  N   UNL     1      -0.272  10.669  19.305  0.00  0.00    +0.000 NA
ATOM      3  C   UNL     1       1.045  10.502  19.023  0.00  0.00    +0.000 A 
ATOM      4  C   UNL     1       1.866  11.587  18.746  0.00  0.00    +0.000 A 
ATOM      5  C   UNL     1       1.331  12.874  18.808  0.00  0.00    +0.000 A 
ATOM      6  C   UNL     1      -0.009  13.063  19.142  0.00  0.00    +0.000 A 
ATOM      7  C   UNL     1      -0.546  14.435  19.233  0.00  0.00    +0.000 C 
ATOM      8  O   UNL     1      -1.682  14.687  19.618  0.00  0.00    +0.000 OA
ATOM      9  C   UNL     1       0.295  15.576  18.875  0.00  0.00    +0.000 A 
ATOM     10  C   UNL     1      -0.259  16.864  18.911  0.00  0.00    +0.000 A 
ATOM     11  C   UNL     1       0.521  17.967  18.585  0.00  0.00    +0.000 A 
ATOM     12  C   UNL     1       1.854  17.785  18.222  0.00  0.00    +0.000 A 
ATOM     13  C   UNL     1       2.408  16.501  18.185  0.00  0.00    +0.000 A 
ATOM     14  C   UNL     1       1.624  15.390  18.515  0.00  0.00    +0.000 A 
ATOM     15  C   UNL     1       2.193  14.030  18.490  0.00  0.00    +0.000 C 
ATOM     16  O   UNL     1       3.379  13.855  18.201  0.00  0.00    +0.000 OA
ENDROOT
BRANCH   3  17
ATOM     17  C   UNL     1       1.545   9.116  19.022  0.00  0.00    +0.000 A 
ATOM     18  C   UNL     1       1.476   8.317  20.179  0.00  0.00    +0.000 A 
ATOM     19  C   UNL     1       2.006   7.024  20.198  0.00  0.00    +0.000 A 
ATOM     20  C   UNL     1       2.604   6.506  19.055  0.00  0.00    +0.000 A 
ATOM     21 CL   UNL     1       3.315   4.939  19.094  0.00  0.00    +0.000 Cl
ATOM     22  C   UNL     1       2.652   7.255  17.885  0.00  0.00    +0.000 A 
ATOM     23  C   UNL     1       2.129   8.548  17.871  0.00  0.00    +0.000 A 
ENDBRANCH   3  17
BRANCH   1  25
ATOM     24  C   UNL     1      -3.242  11.815  18.763  0.00  0.00    +0.000 C 
ATOM     25  C   UNL     1      -2.230  11.997  19.620  0.00  0.00    +0.000 C 
BRANCH  24  27
ATOM     26  C   UNL     1      -5.544  10.958  18.372  0.00  0.00    +0.000 C 
ATOM     27  N   UNL     1      -4.598  11.809  19.087  0.00  0.00    +0.000 N 
ATOM     28  C   UNL     1      -5.106  12.463  20.297  0.00  0.00    +0.000 C 
ENDBRANCH  24  27
ENDBRANCH   1  25
TORSDOF 3
ENDMDL
MODEL 6
REMARK VINA RESULT:      -6.6      3.659      4.171
REMARK  Name = 
REMARK  5 active torsions:
REMARK  status: ('A' for Active; 'I' for Inactive)
REMARK    1  A    between atoms: C_1  and  N_2
REMARK    2  A    between atoms: N_2  and  C_3
REMARK    3  A    between atoms: N_2  and  C_4
REMARK    4  A    between atoms: C_5  and  C_6
REMARK    5  A    between atoms: C_8  and  C_9
REMARK                            x       y       z     vdW  Elec       q    Type
REMARK                         _______ _______ _______ _____ _____    ______ ____
ROOT
ATOM      1  C   UNL     1      -0.762  11.887  19.322  0.00  0.00    +0.000 A 
ATOM      2  N   UNL     1      -0.214  10.645  19.274  0.00  0.00    +0.000 NA
ATOM      3  C   UNL     1       1.108  10.512  18.995  0.00  0.00    +0.000 A 
ATOM      4  C   UNL     1       1.904  11.619  18.733  0.00  0.00    +0.000 A 
ATOM      5  C   UNL     1       1.339  12.892  18.805  0.00  0.00    +0.000 A 
ATOM      6  C   UNL     1      -0.006  13.046  19.135  0.00  0.00    +0.000 A 
ATOM      7  C   UNL     1      -0.576  14.404  19.238  0.00  0.00    +0.000 C 
ATOM      8  O   UNL     1      -1.719  14.626  19.621  0.00  0.00    +0.000 OA
ATOM      9  C   UNL     1       0.240  15.568  18.895  0.00  0.00    +0.000 A 
ATOM     10  C   UNL     1      -0.345  16.842  18.942  0.00  0.00    +0.000 A 
ATOM     11  C   UNL     1       0.410  17.966  18.630  0.00  0.00    +0.000 A 
ATOM     12  C   UNL     1       1.748  17.820  18.270  0.00  0.00    +0.000 A 
ATOM     13  C   UNL     1       2.332  16.550  18.222  0.00  0.00    +0.000 A 
ATOM     14  C   UNL     1       1.574  15.417  18.539  0.00  0.00    +0.000 A 
ATOM     15  C   UNL     1       2.175  14.071  18.502  0.00  0.00    +0.000 C 
ATOM     16  O   UNL     1       3.366  13.928  18.216  0.00  0.00    +0.000 OA
ENDROOT
BRANCH   3  17
ATOM     17  C   UNL     1       1.641   9.138  18.982  0.00  0.00    +0.000 A 
ATOM     18  C   UNL     1       2.226   8.596  17.823  0.00  0.00    +0.000 A 
ATOM     19  C   UNL     1       2.675   7.272  17.789  0.00  0.00    +0.000 A 
ATOM     20  C   UNL     1       2.555   6.475  18.921  0.00  0.00    +0.000 A 
ATOM     21 CL   UNL     1       3.048   4.826  18.865  0.00  0.00    +0.000 Cl
ATOM     22  C   UNL     1       2.019   6.993  20.094  0.00  0.00    +0.000 A 
ATOM     23  C   UNL     1       1.564   8.312  20.122  0.00  0.00    +0.000 A 
ENDBRANCH   3  17
BRANCH   1  25
ATOM     24  C   UNL     1      -3.208  11.767  18.723  0.00  0.00    +0.000 C 
ATOM     25  C   UNL     1      -2.203  11.923  19.593  0.00  0.00    +0.000 C 
BRANCH  24  27
ATOM     26  C   UNL     1      -5.133  12.593  20.064  0.00  0.00    +0.000 C 
ATOM     27  N   UNL     1      -4.565  11.723  19.039  0.00  0.00    +0.000 N 
ATOM     28  C   UNL     1      -5.527  10.985  18.214  0.00  0.00    +0.000 C 
ENDBRANCH  24  27
ENDBRANCH   1  25
TORSDOF 3
ENDMDL
MODEL 7
REMARK VINA RESULT:      -6.5      2.994      3.907
REMARK  Name = 
REMARK  5 active torsions:
REMARK  status: ('A' for Active; 'I' for Inactive)
REMARK    1  A    between atoms: C_1  and  N_2
REMARK    2  A    between atoms: N_2  and  C_3
REMARK    3  A    between atoms: N_2  and  C_4
REMARK    4  A    between atoms: C_5  and  C_6
REMARK    5  A    between atoms: C_8  and  C_9
REMARK                            x       y       z     vdW  Elec       q    Type
REMARK                         _______ _______ _______ _____ _____    ______ ____
ROOT
ATOM      1  C   UNL     1       1.135  12.400  19.735  0.00  0.00    +0.000 A 
ATOM      2  N   UNL     1       1.564  11.145  19.438  0.00  0.00    +0.000 NA
ATOM      3  C   UNL     1       1.084  10.093  20.150  0.00  0.00    +0.000 A 
ATOM      4  C   UNL     1       0.186  10.278  21.192  0.00  0.00    +0.000 A 
ATOM      5  C   UNL     1      -0.265  11.567  21.477  0.00  0.00    +0.000 A 
ATOM      6  C   UNL     1       0.183  12.651  20.725  0.00  0.00    +0.000 A 
ATOM      7  C   UNL     1      -0.332  14.002  21.022  0.00  0.00    +0.000 C 
ATOM      8  O   UNL     1      -0.066  14.987  20.343  0.00  0.00    +0.000 OA
ATOM      9  C   UNL     1      -1.224  14.211  22.162  0.00  0.00    +0.000 A 
ATOM     10  C   UNL     1      -1.649  15.514  22.459  0.00  0.00    +0.000 A 
ATOM     11  C   UNL     1      -2.504  15.740  23.531  0.00  0.00    +0.000 A 
ATOM     12  C   UNL     1      -2.935  14.666  24.307  0.00  0.00    +0.000 A 
ATOM     13  C   UNL     1      -2.511  13.365  24.012  0.00  0.00    +0.000 A 
ATOM     14  C   UNL     1      -1.652  13.136  22.932  0.00  0.00    +0.000 A 
ATOM     15  C   UNL     1      -1.202  11.772  22.601  0.00  0.00    +0.000 C 
ATOM     16  O   UNL     1      -1.598  10.808  23.259  0.00  0.00    +0.000 OA
ENDROOT
BRANCH   3  17
ATOM     17  C   UNL     1       1.573   8.760  19.759  0.00  0.00    +0.000 A 
ATOM     18  C   UNL     1       2.077   8.519  18.467  0.00  0.00    +0.000 A 
ATOM     19  C   UNL     1       2.483   7.241  18.074  0.00  0.00    +0.000 A 
ATOM     20  C   UNL     1       2.402   6.185  18.973  0.00  0.00    +0.000 A 
ATOM     21 CL   UNL     1       2.841   4.596  18.474  0.00  0.00    +0.000 Cl
ATOM     22  C   UNL     1       1.946   6.397  20.269  0.00  0.00    +0.000 A 
ATOM     23  C   UNL     1       1.534   7.673  20.656  0.00  0.00    +0.000 A 
ENDBRANCH   3  17
BRANCH   1  25
ATOM     24  C   UNL     1       2.960  14.005  19.063  0.00  0.00    +0.000 C 
ATOM     25  C   UNL     1       1.739  13.471  18.935  0.00  0.00    +0.000 C 
BRANCH  24  27
ATOM     26  C   UNL     1       2.845  16.225  17.947  0.00  0.00    +0.000 C 
ATOM     27  N   UNL     1       3.526  14.964  18.224  0.00  0.00    +0.000 N 
ATOM     28  C   UNL     1       4.917  14.868  17.769  0.00  0.00    +0.000 C 
ENDBRANCH  24  27
ENDBRANCH   1  25
TORSDOF 3
ENDMDL
MODEL 8
REMARK VINA RESULT:      -6.4      4.793      7.776
REMARK  Name = 
REMARK  5 active torsions:
REMARK  status: ('A' for Active; 'I' for Inactive)
REMARK    1  A    between atoms: C_1  and  N_2
REMARK    2  A    between atoms: N_2  and  C_3
REMARK    3  A    between atoms: N_2  and  C_4
REMARK    4  A    between atoms: C_5  and  C_6
REMARK    5  A    between atoms: C_8  and  C_9
REMARK                            x       y       z     vdW  Elec       q    Type
REMARK                         _______ _______ _______ _____ _____    ______ ____
ROOT
ATOM      1  C   UNL     1      -0.136  12.137  20.528  0.00  0.00    +0.000 A 
ATOM      2  N   UNL     1      -1.324  12.062  21.183  0.00  0.00    +0.000 NA
ATOM      3  C   UNL     1      -2.129  13.155  21.227  0.00  0.00    +0.000 A 
ATOM      4  C   UNL     1      -1.749  14.354  20.638  0.00  0.00    +0.000 A 
ATOM      5  C   UNL     1      -0.538  14.417  19.949  0.00  0.00    +0.000 A 
ATOM      6  C   UNL     1       0.277  13.290  19.857  0.00  0.00    +0.000 A 
ATOM      7  C   UNL     1       1.540  13.369  19.095  0.00  0.00    +0.000 C 
ATOM      8  O   UNL     1       2.258  12.399  18.882  0.00  0.00    +0.000 OA
ATOM      9  C   UNL     1       1.976  14.647  18.533  0.00  0.00    +0.000 A 
ATOM     10  C   UNL     1       3.209  14.707  17.867  0.00  0.00    +0.000 A 
ATOM     11  C   UNL     1       3.644  15.906  17.315  0.00  0.00    +0.000 A 
ATOM     12  C   UNL     1       2.849  17.045  17.427  0.00  0.00    +0.000 A 
ATOM     13  C   UNL     1       1.619  16.986  18.092  0.00  0.00    +0.000 A 
ATOM     14  C   UNL     1       1.179  15.779  18.646  0.00  0.00    +0.000 A 
ATOM     15  C   UNL     1      -0.118  15.696  19.342  0.00  0.00    +0.000 C 
ATOM     16  O   UNL     1      -0.847  16.687  19.423  0.00  0.00    +0.000 OA
ENDROOT
BRANCH   3  17
ATOM     17  C   UNL     1      -3.411  12.996  21.934  0.00  0.00    +0.000 A 
ATOM     18  C   UNL     1      -4.627  12.927  21.228  0.00  0.00    +0.000 A 
ATOM     19  C   UNL     1      -5.850  12.839  21.899  0.00  0.00    +0.000 A 
ATOM     20  C   UNL     1      -5.874  12.809  23.288  0.00  0.00    +0.000 A 
ATOM     21 CL   UNL     1      -7.381  12.765  24.120  0.00  0.00    +0.000 Cl
ATOM     22  C   UNL     1      -4.688  12.835  24.013  0.00  0.00    +0.000 A 
ATOM     23  C   UNL     1      -3.470  12.930  23.341  0.00  0.00    +0.000 A 
ENDBRANCH   3  17
BRANCH   1  25
ATOM     24  C   UNL     1       0.489   9.780  19.887  0.00  0.00    +0.000 C 
ATOM     25  C   UNL     1       0.677  10.917  20.569  0.00  0.00    +0.000 C 
BRANCH  24  27
ATOM     26  C   UNL     1       1.381   7.757  21.027  0.00  0.00    +0.000 C 
ATOM     27  N   UNL     1       1.337   8.674  19.891  0.00  0.00    +0.000 N 
ATOM     28  C   UNL     1       2.046   8.239  18.684  0.00  0.00    +0.000 C 
ENDBRANCH  24  27
ENDBRANCH   1  25
TORSDOF 3
ENDMDL
MODEL 9
REMARK VINA RESULT:      -6.4      4.844      7.502
REMARK  Name = 
REMARK  5 active torsions:
REMARK  status: ('A' for Active; 'I' for Inactive)
REMARK    1  A    between atoms: C_1  and  N_2
REMARK    2  A    between atoms: N_2  and  C_3
REMARK    3  A    between atoms: N_2  and  C_4
REMARK    4  A    between atoms: C_5  and  C_6
REMARK    5  A    between atoms: C_8  and  C_9
REMARK                            x       y       z     vdW  Elec       q    Type
REMARK                         _______ _______ _______ _____ _____    ______ ____
ROOT
ATOM      1  C   UNL     1       0.098  11.704  19.028  0.00  0.00    +0.000 A 
ATOM      2  N   UNL     1      -1.200  11.635  19.425  0.00  0.00    +0.000 NA
ATOM      3  C   UNL     1      -1.855  12.777  19.756  0.00  0.00    +0.000 A 
ATOM      4  C   UNL     1      -1.218  14.010  19.723  0.00  0.00    +0.000 A 
ATOM      5  C   UNL     1       0.108  14.075  19.295  0.00  0.00    +0.000 A 
ATOM      6  C   UNL     1       0.780  12.917  18.907  0.00  0.00    +0.000 A 
ATOM      7  C   UNL     1       2.172  13.013  18.426  0.00  0.00    +0.000 C 
ATOM      8  O   UNL     1       2.794  12.058  17.973  0.00  0.00    +0.000 OA
ATOM      9  C   UNL     1       2.870  14.298  18.455  0.00  0.00    +0.000 A 
ATOM     10  C   UNL     1       4.211  14.349  18.050  0.00  0.00    +0.000 A 
ATOM     11  C   UNL     1       4.896  15.558  18.059  0.00  0.00    +0.000 A 
ATOM     12  C   UNL     1       4.242  16.717  18.472  0.00  0.00    +0.000 A 
ATOM     13  C   UNL     1       2.903  16.668  18.876  0.00  0.00    +0.000 A 
ATOM     14  C   UNL     1       2.213  15.451  18.866  0.00  0.00    +0.000 A 
ATOM     15  C   UNL     1       0.799  15.381  19.281  0.00  0.00    +0.000 C 
ATOM     16  O   UNL     1       0.197  16.402  19.619  0.00  0.00    +0.000 OA
ENDROOT
BRANCH   3  17
ATOM     17  C   UNL     1      -3.266  12.631  20.154  0.00  0.00    +0.000 A 
ATOM     18  C   UNL     1      -3.685  12.917  21.468  0.00  0.00    +0.000 A 
ATOM     19  C   UNL     1      -5.010  12.719  21.864  0.00  0.00    +0.000 A 
ATOM     20  C   UNL     1      -5.941  12.243  20.948  0.00  0.00    +0.000 A 
ATOM     21 CL   UNL     1      -7.560  11.938  21.449  0.00  0.00    +0.000 Cl
ATOM     22  C   UNL     1      -5.568  11.990  19.633  0.00  0.00    +0.000 A 
ATOM     23  C   UNL     1      -4.242  12.181  19.242  0.00  0.00    +0.000 A 
ENDBRANCH   3  17
BRANCH   1  25
ATOM     24  C   UNL     1       1.222   9.519  19.592  0.00  0.00    +0.000 C 
ATOM     25  C   UNL     1       0.728  10.414  18.728  0.00  0.00    +0.000 C 
BRANCH  24  27
ATOM     26  C   UNL     1       2.350   8.011  17.968  0.00  0.00    +0.000 C 
ATOM     27  N   UNL     1       1.736   8.265  19.267  0.00  0.00    +0.000 N 
ATOM     28  C   UNL     1       1.901   7.212  20.275  0.00  0.00    +0.000 C 
ENDBRANCH  24  27
ENDBRANCH   1  25
TORSDOF 3
ENDMDL
