MODEL 1
REMARK VINA RESULT:      -7.1      0.000      0.000
REMARK  Name = 
REMARK  5 active torsions:
REMARK  status: ('A' for Active; 'I' for Inactive)
REMARK    1  A    between atoms: C_1  and  C_2
REMARK    2  A    between atoms: C_7  and  C_8
REMARK    3  A    between atoms: C_12  and  C_13
REMARK    4  A    between atoms: C_16  and  N_17
REMARK    5  A    between atoms: C_19  and  C_20
REMARK                            x       y       z     vdW  Elec       q    Type
REMARK                         _______ _______ _______ _____ _____    ______ ____
ROOT
ATOM      1  C   UNL     1      -0.203  11.096  20.249  0.00  0.00    +0.000 C 
ATOM      2  C   UNL     1       0.725  10.090  19.623  0.00  0.00    +0.000 A 
ATOM      3  N   UNL     1       1.216  10.486  18.429  0.00  0.00    +0.000 NA
ATOM      4  N   UNL     1       1.989   9.698  17.754  0.00  0.00    +0.000 NA
ATOM      5  C   UNL     1       2.299   8.499  18.267  0.00  0.00    +0.000 A 
ATOM      6  S   UNL     1       3.246   7.458  17.356  0.00  0.00    +0.000 S 
ATOM      7  C   UNL     1       3.266   6.265  18.581  0.00  0.00    +0.000 A 
ATOM      8  C   UNL     1       2.477   6.663  19.659  0.00  0.00    +0.000 A 
ATOM      9  C   UNL     1       1.886   7.990  19.491  0.00  0.00    +0.000 A 
ATOM     10  C   UNL     1       1.018   8.847  20.238  0.00  0.00    +0.000 A 
ATOM     11  C   UNL     1       0.383   8.542  21.566  0.00  0.00    +0.000 C 
ENDROOT
BRANCH   7  12
ATOM     12  C   UNL     1       3.950   4.993  18.316  0.00  0.00    +0.000 C 
ATOM     13  O   UNL     1       3.839   4.014  19.059  0.00  0.00    +0.000 OA
ATOM     14  N   UNL     1       4.683   4.919  17.140  0.00  0.00    +0.000 N 
ATOM     15  C   UNL     1       5.325   3.764  16.525  0.00  0.00    +0.000 C 
ATOM     16  C   UNL     1       6.557   4.655  16.267  0.00  0.00    +0.000 C 
ATOM     17  C   UNL     1       7.067   4.710  14.835  0.00  0.00    +0.000 C 
ATOM     18  F   UNL     1       7.610   4.425  17.091  0.00  0.00    +0.000 F 
ATOM     19  C   UNL     1       5.684   5.863  16.646  0.00  0.00    +0.000 C 
ENDBRANCH   7  12
BRANCH   8  20
ATOM     20  N   UNL     1       2.307   5.864  20.741  0.00  0.00    +0.000 N 
ATOM     21  H   UNL     1       1.426   5.363  20.873  0.00  0.00    +0.000 HD
ATOM     22  H   UNL     1       2.795   5.999  21.620  0.00  0.00    +0.000 HD
ENDBRANCH   8  20
TORSDOF 2
ENDMDL
MODEL 2
REMARK VINA RESULT:      -7.1      3.380      7.033
REMARK  Name = 
REMARK  5 active torsions:
REMARK  status: ('A' for Active; 'I' for Inactive)
REMARK    1  A    between atoms: C_1  and  C_2
REMARK    2  A    between atoms: C_7  and  C_8
REMARK    3  A    between atoms: C_12  and  C_13
REMARK    4  A    between atoms: C_16  and  N_17
REMARK    5  A    between atoms: C_19  and  C_20
REMARK                            x       y       z     vdW  Elec       q    Type
REMARK                         _______ _______ _______ _____ _____    ______ ____
ROOT
ATOM      1  C   UNL     1       7.338   4.816  12.194  0.00  0.00    +0.000 C 
ATOM      2  C   UNL     1       6.987   4.841  13.657  0.00  0.00    +0.000 A 
ATOM      3  N   UNL     1       7.876   5.525  14.408  0.00  0.00    +0.000 NA
ATOM      4  N   UNL     1       7.727   5.587  15.691  0.00  0.00    +0.000 NA
ATOM      5  C   UNL     1       6.674   4.974  16.251  0.00  0.00    +0.000 A 
ATOM      6  S   UNL     1       6.525   5.002  17.921  0.00  0.00    +0.000 S 
ATOM      7  C   UNL     1       5.044   4.147  17.889  0.00  0.00    +0.000 A 
ATOM      8  C   UNL     1       4.718   3.790  16.582  0.00  0.00    +0.000 A 
ATOM      9  C   UNL     1       5.678   4.268  15.590  0.00  0.00    +0.000 A 
ATOM     10  C   UNL     1       5.844   4.181  14.172  0.00  0.00    +0.000 A 
ATOM     11  C   UNL     1       4.953   3.445  13.209  0.00  0.00    +0.000 C 
ENDROOT
BRANCH   7  12
ATOM     12  C   UNL     1       4.405   3.796  19.164  0.00  0.00    +0.000 C 
ATOM     13  O   UNL     1       4.618   2.723  19.737  0.00  0.00    +0.000 OA
ATOM     14  N   UNL     1       3.595   4.764  19.737  0.00  0.00    +0.000 N 
ATOM     15  C   UNL     1       2.968   4.782  21.053  0.00  0.00    +0.000 C 
ATOM     16  C   UNL     1       1.678   5.282  20.371  0.00  0.00    +0.000 C 
ATOM     17  C   UNL     1       1.064   6.557  20.932  0.00  0.00    +0.000 C 
ATOM     18  F   UNL     1       0.699   4.351  20.247  0.00  0.00    +0.000 F 
ATOM     19  C   UNL     1       2.515   5.521  19.103  0.00  0.00    +0.000 C 
ENDBRANCH   7  12
BRANCH   8  20
ATOM     20  N   UNL     1       3.602   3.071  16.307  0.00  0.00    +0.000 N 
ATOM     21  H   UNL     1       3.355   2.862  15.337  0.00  0.00    +0.000 HD
ATOM     22  H   UNL     1       2.789   3.042  16.914  0.00  0.00    +0.000 HD
ENDBRANCH   8  20
TORSDOF 2
ENDMDL
MODEL 3
REMARK VINA RESULT:      -7.1      1.130      1.273
REMARK  Name = 
REMARK  5 active torsions:
REMARK  status: ('A' for Active; 'I' for Inactive)
REMARK    1  A    between atoms: C_1  and  C_2
REMARK    2  A    between atoms: C_7  and  C_8
REMARK    3  A    between atoms: C_12  and  C_13
REMARK    4  A    between atoms: C_16  and  N_17
REMARK    5  A    between atoms: C_19  and  C_20
REMARK                            x       y       z     vdW  Elec       q    Type
REMARK                         _______ _______ _______ _____ _____    ______ ____
ROOT
ATOM      1  C   UNL     1      -0.052  11.935  21.534  0.00  0.00    +0.000 C 
ATOM      2  C   UNL     1       0.594  10.907  20.644  0.00  0.00    +0.000 A 
ATOM      3  N   UNL     1       0.842  11.360  19.396  0.00  0.00    +0.000 NA
ATOM      4  N   UNL     1       1.350  10.567  18.510  0.00  0.00    +0.000 NA
ATOM      5  C   UNL     1       1.634   9.304  18.857  0.00  0.00    +0.000 A 
ATOM      6  S   UNL     1       2.229   8.264  17.684  0.00  0.00    +0.000 S 
ATOM      7  C   UNL     1       2.394   6.971  18.790  0.00  0.00    +0.000 A 
ATOM      8  C   UNL     1       1.919   7.344  20.047  0.00  0.00    +0.000 A 
ATOM      9  C   UNL     1       1.456   8.728  20.108  0.00  0.00    +0.000 A 
ATOM     10  C   UNL     1       0.879   9.593  21.091  0.00  0.00    +0.000 A 
ATOM     11  C   UNL     1       0.531   9.232  22.509  0.00  0.00    +0.000 C 
ENDROOT
BRANCH   7  12
ATOM     12  C   UNL     1       2.856   5.670  18.291  0.00  0.00    +0.000 C 
ATOM     13  O   UNL     1       2.254   4.618  18.527  0.00  0.00    +0.000 OA
ATOM     14  N   UNL     1       3.976   5.684  17.473  0.00  0.00    +0.000 N 
ATOM     15  C   UNL     1       4.568   4.599  16.699  0.00  0.00    +0.000 C 
ATOM     16  C   UNL     1       5.949   5.065  17.205  0.00  0.00    +0.000 C 
ATOM     17  C   UNL     1       7.002   5.341  16.143  0.00  0.00    +0.000 C 
ATOM     18  F   UNL     1       6.499   4.281  18.166  0.00  0.00    +0.000 F 
ATOM     19  C   UNL     1       5.259   6.340  17.720  0.00  0.00    +0.000 C 
ENDBRANCH   7  12
BRANCH   8  20
ATOM     20  N   UNL     1       1.911   6.471  21.084  0.00  0.00    +0.000 N 
ATOM     21  H   UNL     1       2.561   6.596  21.863  0.00  0.00    +0.000 HD
ATOM     22  H   UNL     1       1.609   5.505  21.002  0.00  0.00    +0.000 HD
ENDBRANCH   8  20
TORSDOF 2
ENDMDL
MODEL 4
REMARK VINA RESULT:      -6.9      2.453      3.022
REMARK  Name = 
REMARK  5 active torsions:
REMARK  status: ('A' for Active; 'I' for Inactive)
REMARK    1  A    between atoms: C_1  and  C_2
REMARK    2  A    between atoms: C_7  and  C_8
REMARK    3  A    between atoms: C_12  and  C_13
REMARK    4  A    between atoms: C_16  and  N_17
REMARK    5  A    between atoms: C_19  and  C_20
REMARK                            x       y       z     vdW  Elec       q    Type
REMARK                         _______ _______ _______ _____ _____    ______ ____
ROOT
ATOM      1  C   UNL     1      -1.473  11.601  21.407  0.00  0.00    +0.000 C 
ATOM      2  C   UNL     1      -0.488  10.813  20.586  0.00  0.00    +0.000 A 
ATOM      3  N   UNL     1      -0.242  11.360  19.376  0.00  0.00    +0.000 NA
ATOM      4  N   UNL     1       0.548  10.762  18.545  0.00  0.00    +0.000 NA
ATOM      5  C   UNL     1       1.121   9.607  18.912  0.00  0.00    +0.000 A 
ATOM      6  S   UNL     1       2.090   8.805  17.803  0.00  0.00    +0.000 S 
ATOM      7  C   UNL     1       2.478   7.562  18.912  0.00  0.00    +0.000 A 
ATOM      8  C   UNL     1       1.794   7.751  20.111  0.00  0.00    +0.000 A 
ATOM      9  C   UNL     1       0.974   8.961  20.132  0.00  0.00    +0.000 A 
ATOM     10  C   UNL     1       0.090   9.606  21.052  0.00  0.00    +0.000 A 
ATOM     11  C   UNL     1      -0.294   9.115  22.420  0.00  0.00    +0.000 C 
ENDROOT
BRANCH   7  12
ATOM     12  C   UNL     1       3.320   6.448  18.456  0.00  0.00    +0.000 C 
ATOM     13  O   UNL     1       4.409   6.626  17.902  0.00  0.00    +0.000 OA
ATOM     14  N   UNL     1       2.862   5.171  18.741  0.00  0.00    +0.000 N 
ATOM     15  C   UNL     1       3.537   3.890  18.573  0.00  0.00    +0.000 C 
ATOM     16  C   UNL     1       2.223   3.337  17.983  0.00  0.00    +0.000 C 
ATOM     17  C   UNL     1       1.674   2.069  18.620  0.00  0.00    +0.000 C 
ATOM     18  F   UNL     1       2.226   3.176  16.636  0.00  0.00    +0.000 F 
ATOM     19  C   UNL     1       1.533   4.616  18.486  0.00  0.00    +0.000 C 
ENDBRANCH   7  12
BRANCH   8  20
ATOM     20  N   UNL     1       1.912   6.870  21.135  0.00  0.00    +0.000 N 
ATOM     21  H   UNL     1       2.837   6.545  21.427  0.00  0.00    +0.000 HD
ATOM     22  H   UNL     1       1.186   6.209  21.393  0.00  0.00    +0.000 HD
ENDBRANCH   8  20
TORSDOF 2
ENDMDL
MODEL 5
REMARK VINA RESULT:      -6.9      3.176      4.658
REMARK  Name = 
REMARK  5 active torsions:
REMARK  status: ('A' for Active; 'I' for Inactive)
REMARK    1  A    between atoms: C_1  and  C_2
REMARK    2  A    between atoms: C_7  and  C_8
REMARK    3  A    between atoms: C_12  and  C_13
REMARK    4  A    between atoms: C_16  and  N_17
REMARK    5  A    between atoms: C_19  and  C_20
REMARK                            x       y       z     vdW  Elec       q    Type
REMARK                         _______ _______ _______ _____ _____    ______ ____
ROOT
ATOM      1  C   UNL     1      -1.407  13.564  21.854  0.00  0.00    +0.000 C 
ATOM      2  C   UNL     1      -0.716  12.242  21.654  0.00  0.00    +0.000 A 
ATOM      3  N   UNL     1      -0.509  11.568  22.806  0.00  0.00    +0.000 NA
ATOM      4  N   UNL     1       0.120  10.438  22.789  0.00  0.00    +0.000 NA
ATOM      5  C   UNL     1       0.544   9.950  21.615  0.00  0.00    +0.000 A 
ATOM      6  S   UNL     1       1.417   8.518  21.610  0.00  0.00    +0.000 S 
ATOM      7  C   UNL     1       1.546   8.501  19.906  0.00  0.00    +0.000 A 
ATOM      8  C   UNL     1       0.966   9.647  19.364  0.00  0.00    +0.000 A 
ATOM      9  C   UNL     1       0.368  10.528  20.365  0.00  0.00    +0.000 A 
ATOM     10  C   UNL     1      -0.312  11.786  20.375  0.00  0.00    +0.000 A 
ATOM     11  C   UNL     1      -0.601  12.657  19.184  0.00  0.00    +0.000 C 
ENDROOT
BRANCH   7  12
ATOM     12  C   UNL     1       2.317   7.426  19.267  0.00  0.00    +0.000 C 
ATOM     13  O   UNL     1       2.888   7.576  18.183  0.00  0.00    +0.000 OA
ATOM     14  N   UNL     1       2.433   6.242  19.979  0.00  0.00    +0.000 N 
ATOM     15  C   UNL     1       3.256   5.072  19.696  0.00  0.00    +0.000 C 
ATOM     16  C   UNL     1       2.033   4.197  20.040  0.00  0.00    +0.000 C 
ATOM     17  C   UNL     1       2.246   3.115  21.087  0.00  0.00    +0.000 C 
ATOM     18  F   UNL     1       1.408   3.644  18.970  0.00  0.00    +0.000 F 
ATOM     19  C   UNL     1       1.365   5.462  20.604  0.00  0.00    +0.000 C 
ENDBRANCH   7  12
BRANCH   8  20
ATOM     20  N   UNL     1       0.978   9.878  18.028  0.00  0.00    +0.000 N 
ATOM     21  H   UNL     1       1.806   9.645  17.475  0.00  0.00    +0.000 HD
ATOM     22  H   UNL     1       0.419  10.596  17.578  0.00  0.00    +0.000 HD
ENDBRANCH   8  20
TORSDOF 2
ENDMDL
MODEL 6
REMARK VINA RESULT:      -6.7      3.010      6.743
REMARK  Name = 
REMARK  5 active torsions:
REMARK  status: ('A' for Active; 'I' for Inactive)
REMARK    1  A    between atoms: C_1  and  C_2
REMARK    2  A    between atoms: C_7  and  C_8
REMARK    3  A    between atoms: C_12  and  C_13
REMARK    4  A    between atoms: C_16  and  N_17
REMARK    5  A    between atoms: C_19  and  C_20
REMARK                            x       y       z     vdW  Elec       q    Type
REMARK                         _______ _______ _______ _____ _____    ______ ____
ROOT
ATOM      1  C   UNL     1       6.022   3.614  15.297  0.00  0.00    +0.000 C 
ATOM      2  C   UNL     1       5.260   4.727  15.963  0.00  0.00    +0.000 A 
ATOM      3  N   UNL     1       5.567   5.950  15.479  0.00  0.00    +0.000 NA
ATOM      4  N   UNL     1       5.023   7.004  15.994  0.00  0.00    +0.000 NA
ATOM      5  C   UNL     1       4.148   6.857  16.998  0.00  0.00    +0.000 A 
ATOM      6  S   UNL     1       3.498   8.233  17.705  0.00  0.00    +0.000 S 
ATOM      7  C   UNL     1       2.514   7.327  18.769  0.00  0.00    +0.000 A 
ATOM      8  C   UNL     1       2.752   5.963  18.608  0.00  0.00    +0.000 A 
ATOM      9  C   UNL     1       3.727   5.660  17.562  0.00  0.00    +0.000 A 
ATOM     10  C   UNL     1       4.335   4.489  17.011  0.00  0.00    +0.000 A 
ATOM     11  C   UNL     1       4.109   3.069  17.452  0.00  0.00    +0.000 C 
ENDROOT
BRANCH   7  12
ATOM     12  C   UNL     1       1.691   8.044  19.751  0.00  0.00    +0.000 C 
ATOM     13  O   UNL     1       1.451   7.587  20.873  0.00  0.00    +0.000 OA
ATOM     14  N   UNL     1       1.246   9.305  19.382  0.00  0.00    +0.000 N 
ATOM     15  C   UNL     1       0.566  10.314  20.184  0.00  0.00    +0.000 C 
ATOM     16  C   UNL     1      -0.394  10.532  18.996  0.00  0.00    +0.000 C 
ATOM     17  C   UNL     1      -0.544  11.961  18.498  0.00  0.00    +0.000 C 
ATOM     18  F   UNL     1      -1.632  10.000  19.157  0.00  0.00    +0.000 F 
ATOM     19  C   UNL     1       0.571   9.691  18.143  0.00  0.00    +0.000 C 
ENDBRANCH   7  12
BRANCH   8  20
ATOM     20  N   UNL     1       2.114   5.041  19.371  0.00  0.00    +0.000 N 
ATOM     21  H   UNL     1       1.480   5.343  20.115  0.00  0.00    +0.000 HD
ATOM     22  H   UNL     1       2.476   4.110  19.545  0.00  0.00    +0.000 HD
ENDBRANCH   8  20
TORSDOF 2
ENDMDL
MODEL 7
REMARK VINA RESULT:      -6.7      2.486      3.696
REMARK  Name = 
REMARK  5 active torsions:
REMARK  status: ('A' for Active; 'I' for Inactive)
REMARK    1  A    between atoms: C_1  and  C_2
REMARK    2  A    between atoms: C_7  and  C_8
REMARK    3  A    between atoms: C_12  and  C_13
REMARK    4  A    between atoms: C_16  and  N_17
REMARK    5  A    between atoms: C_19  and  C_20
REMARK                            x       y       z     vdW  Elec       q    Type
REMARK                         _______ _______ _______ _____ _____    ______ ____
ROOT
ATOM      1  C   UNL     1      -1.393  12.089  21.793  0.00  0.00    +0.000 C 
ATOM      2  C   UNL     1      -0.584  10.888  21.385  0.00  0.00    +0.000 A 
ATOM      3  N   UNL     1      -0.447   9.976  22.371  0.00  0.00    +0.000 NA
ATOM      4  N   UNL     1       0.267   8.915  22.175  0.00  0.00    +0.000 NA
ATOM      5  C   UNL     1       0.849   8.737  20.981  0.00  0.00    +0.000 A 
ATOM      6  S   UNL     1       1.828   7.393  20.758  0.00  0.00    +0.000 S 
ATOM      7  C   UNL     1       2.136   7.781  19.122  0.00  0.00    +0.000 A 
ATOM      8  C   UNL     1       1.529   8.990  18.787  0.00  0.00    +0.000 A 
ATOM      9  C   UNL     1       0.761   9.580  19.882  0.00  0.00    +0.000 A 
ATOM     10  C   UNL     1      -0.013  10.765  20.094  0.00  0.00    +0.000 A 
ATOM     11  C   UNL     1      -0.242  11.874  19.105  0.00  0.00    +0.000 C 
ENDROOT
BRANCH   7  12
ATOM     12  C   UNL     1       3.052   6.927  18.355  0.00  0.00    +0.000 C 
ATOM     13  O   UNL     1       3.822   7.380  17.503  0.00  0.00    +0.000 OA
ATOM     14  N   UNL     1       3.061   5.579  18.683  0.00  0.00    +0.000 N 
ATOM     15  C   UNL     1       3.959   4.525  18.230  0.00  0.00    +0.000 C 
ATOM     16  C   UNL     1       2.720   3.625  18.042  0.00  0.00    +0.000 C 
ATOM     17  C   UNL     1       2.755   2.270  18.733  0.00  0.00    +0.000 C 
ATOM     18  F   UNL     1       2.338   3.442  16.753  0.00  0.00    +0.000 F 
ATOM     19  C   UNL     1       1.914   4.680  18.818  0.00  0.00    +0.000 C 
ENDBRANCH   7  12
BRANCH   8  20
ATOM     20  N   UNL     1       1.663   9.527  17.549  0.00  0.00    +0.000 N 
ATOM     21  H   UNL     1       2.535   9.988  17.283  0.00  0.00    +0.000 HD
ATOM     22  H   UNL     1       0.880   9.859  16.995  0.00  0.00    +0.000 HD
ENDBRANCH   8  20
TORSDOF 2
ENDMDL
MODEL 8
REMARK VINA RESULT:      -6.5      3.167      4.720
REMARK  Name = 
REMARK  5 active torsions:
REMARK  status: ('A' for Active; 'I' for Inactive)
REMARK    1  A    between atoms: C_1  and  C_2
REMARK    2  A    between atoms: C_7  and  C_8
REMARK    3  A    between atoms: C_12  and  C_13
REMARK    4  A    between atoms: C_16  and  N_17
REMARK    5  A    between atoms: C_19  and  C_20
REMARK                            x       y       z     vdW  Elec       q    Type
REMARK                         _______ _______ _______ _____ _____    ______ ____
ROOT
ATOM      1  C   UNL     1       1.735   6.545  20.599  0.00  0.00    +0.000 C 
ATOM      2  C   UNL     1       2.679   5.920  19.606  0.00  0.00    +0.000 A 
ATOM      3  N   UNL     1       3.053   4.666  19.940  0.00  0.00    +0.000 NA
ATOM      4  N   UNL     1       3.901   4.026  19.203  0.00  0.00    +0.000 NA
ATOM      5  C   UNL     1       4.384   4.623  18.104  0.00  0.00    +0.000 A 
ATOM      6  S   UNL     1       5.534   3.813  17.191  0.00  0.00    +0.000 S 
ATOM      7  C   UNL     1       5.616   5.063  16.028  0.00  0.00    +0.000 A 
ATOM      8  C   UNL     1       4.797   6.128  16.400  0.00  0.00    +0.000 A 
ATOM      9  C   UNL     1       4.058   5.890  17.638  0.00  0.00    +0.000 A 
ATOM     10  C   UNL     1       3.133   6.612  18.456  0.00  0.00    +0.000 A 
ATOM     11  C   UNL     1       2.637   8.013  18.226  0.00  0.00    +0.000 C 
ENDROOT
BRANCH   7  12
ATOM     12  C   UNL     1       6.575   4.935  14.922  0.00  0.00    +0.000 C 
ATOM     13  O   UNL     1       7.564   5.666  14.817  0.00  0.00    +0.000 OA
ATOM     14  N   UNL     1       6.352   3.899  14.027  0.00  0.00    +0.000 N 
ATOM     15  C   UNL     1       7.200   3.417  12.944  0.00  0.00    +0.000 C 
ATOM     16  C   UNL     1       5.939   3.353  12.058  0.00  0.00    +0.000 C 
ATOM     17  C   UNL     1       5.658   2.025  11.373  0.00  0.00    +0.000 C 
ATOM     18  F   UNL     1       5.837   4.344  11.137  0.00  0.00    +0.000 F 
ATOM     19  C   UNL     1       5.108   3.563  13.336  0.00  0.00    +0.000 C 
ENDBRANCH   7  12
BRANCH   8  20
ATOM     20  N   UNL     1       4.724   7.256  15.651  0.00  0.00    +0.000 N 
ATOM     21  H   UNL     1       4.119   7.284  14.828  0.00  0.00    +0.000 HD
ATOM     22  H   UNL     1       5.475   7.935  15.586  0.00  0.00    +0.000 HD
ENDBRANCH   8  20
TORSDOF 2
ENDMDL
MODEL 9
REMARK VINA RESULT:      -6.5      9.141     10.014
REMARK  Name = 
REMARK  5 active torsions:
REMARK  status: ('A' for Active; 'I' for Inactive)
REMARK    1  A    between atoms: C_1  and  C_2
REMARK    2  A    between atoms: C_7  and  C_8
REMARK    3  A    between atoms: C_12  and  C_13
REMARK    4  A    between atoms: C_16  and  N_17
REMARK    5  A    between atoms: C_19  and  C_20
REMARK                            x       y       z     vdW  Elec       q    Type
REMARK                         _______ _______ _______ _____ _____    ______ ____
ROOT
ATOM      1  C   UNL     1       2.627  16.790  19.363  0.00  0.00    +0.000 C 
ATOM      2  C   UNL     1       4.128  16.790  19.255  0.00  0.00    +0.000 A 
ATOM      3  N   UNL     1       4.708  17.854  19.852  0.00  0.00    +0.000 NA
ATOM      4  N   UNL     1       5.990  18.009  19.793  0.00  0.00    +0.000 NA
ATOM      5  C   UNL     1       6.725  17.093  19.147  0.00  0.00    +0.000 A 
ATOM      6  S   UNL     1       8.379  17.337  19.019  0.00  0.00    +0.000 S 
ATOM      7  C   UNL     1       8.620  15.859  18.193  0.00  0.00    +0.000 A 
ATOM      8  C   UNL     1       7.400  15.224  17.967  0.00  0.00    +0.000 A 
ATOM      9  C   UNL     1       6.256  15.946  18.522  0.00  0.00    +0.000 A 
ATOM     10  C   UNL     1       4.837  15.774  18.566  0.00  0.00    +0.000 A 
ATOM     11  C   UNL     1       4.049  14.657  17.939  0.00  0.00    +0.000 C 
ENDROOT
BRANCH   7  12
ATOM     12  C   UNL     1       9.973  15.521  17.733  0.00  0.00    +0.000 C 
ATOM     13  O   UNL     1      10.482  16.042  16.736  0.00  0.00    +0.000 OA
ATOM     14  N   UNL     1      10.689  14.628  18.517  0.00  0.00    +0.000 N 
ATOM     15  C   UNL     1      12.088  14.232  18.421  0.00  0.00    +0.000 C 
ATOM     16  C   UNL     1      11.631  12.773  18.631  0.00  0.00    +0.000 C 
ATOM     17  C   UNL     1      12.310  12.005  19.755  0.00  0.00    +0.000 C 
ATOM     18  F   UNL     1      11.646  12.003  17.514  0.00  0.00    +0.000 F 
ATOM     19  C   UNL     1      10.251  13.327  19.023  0.00  0.00    +0.000 C 
ENDBRANCH   7  12
BRANCH   8  20
ATOM     20  N   UNL     1       7.331  14.050  17.294  0.00  0.00    +0.000 N 
ATOM     21  H   UNL     1       8.182  13.623  16.921  0.00  0.00    +0.000 HD
ATOM     22  H   UNL     1       6.506  13.740  16.790  0.00  0.00    +0.000 HD
ENDBRANCH   8  20
TORSDOF 2
ENDMDL
