MODEL 1
REMARK VINA RESULT:      -8.2      0.000      0.000
REMARK  Name = 
REMARK  8 active torsions:
REMARK  status: ('A' for Active; 'I' for Inactive)
REMARK    1  A    between atoms: N_1  and  S_2
REMARK    2  A    between atoms: S_2  and  C_5
REMARK    3  A    between atoms: C_8  and  N_9
REMARK    4  A    between atoms: C_11  and  C_12
REMARK    5  A    between atoms: C_17  and  C_18
REMARK    6  A    between atoms: C_21  and  O_22
REMARK    7  A    between atoms: C_26  and  C_27
REMARK    8  A    between atoms: C_27  and  O_28
REMARK                            x       y       z     vdW  Elec       q    Type
REMARK                         _______ _______ _______ _____ _____    ______ ____
ROOT
ATOM      1  N   UNL     1       5.402   4.472  16.159  0.00  0.00    +0.000 N 
ATOM      2  N   UNL     1       5.232   3.577  15.152  0.00  0.00    +0.000 NA
ATOM      3  C   UNL     1       5.924   4.083  14.118  0.00  0.00    +0.000 A 
ATOM      4  C   UNL     1       6.705   5.187  14.537  0.00  0.00    +0.000 A 
ATOM      5  C   UNL     1       6.427   5.378  15.881  0.00  0.00    +0.000 A 
ENDROOT
BRANCH   1   9
ATOM      6  C   UNL     1       2.782   4.222  19.449  0.00  0.00    +0.000 A 
ATOM      7  C   UNL     1       2.711   5.312  18.561  0.00  0.00    +0.000 A 
ATOM      8  C   UNL     1       3.606   5.419  17.498  0.00  0.00    +0.000 A 
ATOM      9  C   UNL     1       4.546   4.408  17.291  0.00  0.00    +0.000 A 
ATOM     10  C   UNL     1       4.638   3.340  18.195  0.00  0.00    +0.000 A 
ATOM     11  C   UNL     1       3.763   3.226  19.291  0.00  0.00    +0.000 A 
BRANCH   6  12
ATOM     12  S   UNL     1       1.604   4.190  20.772  0.00  0.00    +0.000 S 
ATOM     13  O   UNL     1       0.923   5.461  20.839  0.00  0.00    +0.000 OA
ATOM     14  O   UNL     1       2.210   3.584  21.941  0.00  0.00    +0.000 OA
BRANCH  12  15
ATOM     15  N   UNL     1       0.479   3.055  20.241  0.00  0.00    +0.000 NA
ATOM     16  H   UNL     1       0.570   2.223  20.835  0.00  0.00    +0.000 HD
ATOM     17  H   UNL     1       0.678   2.823  19.263  0.00  0.00    +0.000 HD
ENDBRANCH  12  15
ENDBRANCH   6  12
BRANCH  11  18
ATOM     18  C   UNL     1       3.956   2.054  20.219  0.00  0.00    +0.000 C 
BRANCH  18  19
ATOM     19  O   UNL     1       5.302   1.608  20.199  0.00  0.00    +0.000 OA
ATOM     20  H   UNL     1       5.285   0.634  20.123  0.00  0.00    +0.000 HD
ENDBRANCH  18  19
ENDBRANCH  11  18
ENDBRANCH   1   9
BRANCH   5  21
ATOM     21  C   UNL     1       7.083   6.286  16.838  0.00  0.00    +0.000 A 
ATOM     22  C   UNL     1       7.647   5.782  18.020  0.00  0.00    +0.000 A 
ATOM     23  C   UNL     1       8.281   6.632  18.934  0.00  0.00    +0.000 A 
ATOM     24  C   UNL     1       8.364   7.992  18.663  0.00  0.00    +0.000 A 
ATOM     25  C   UNL     1       7.800   8.518  17.511  0.00  0.00    +0.000 A 
ATOM     26  C   UNL     1       7.138   7.673  16.619  0.00  0.00    +0.000 A 
BRANCH  24  27
ATOM     27  O   UNL     1       8.991   8.855  19.511  0.00  0.00    +0.000 OA
ATOM     28  H   UNL     1       8.352   9.523  19.807  0.00  0.00    +0.000 HD
ENDBRANCH  24  27
ENDBRANCH   5  21
BRANCH   3  29
ATOM     29  C   UNL     1       5.878   3.513  12.725  0.00  0.00    +0.000 C 
ATOM     30  F   UNL     1       6.107   2.176  12.669  0.00  0.00    +0.000 F 
ATOM     31  F   UNL     1       4.661   3.724  12.150  0.00  0.00    +0.000 F 
ATOM     32  F   UNL     1       6.791   4.105  11.911  0.00  0.00    +0.000 F 
ENDBRANCH   3  29
TORSDOF 8
ENDMDL
MODEL 2
REMARK VINA RESULT:      -8.1      3.433      5.854
REMARK  Name = 
REMARK  8 active torsions:
REMARK  status: ('A' for Active; 'I' for Inactive)
REMARK    1  A    between atoms: N_1  and  S_2
REMARK    2  A    between atoms: S_2  and  C_5
REMARK    3  A    between atoms: C_8  and  N_9
REMARK    4  A    between atoms: C_11  and  C_12
REMARK    5  A    between atoms: C_17  and  C_18
REMARK    6  A    between atoms: C_21  and  O_22
REMARK    7  A    between atoms: C_26  and  C_27
REMARK    8  A    between atoms: C_27  and  O_28
REMARK                            x       y       z     vdW  Elec       q    Type
REMARK                         _______ _______ _______ _____ _____    ______ ____
ROOT
ATOM      1  N   UNL     1       3.709   5.733  17.707  0.00  0.00    +0.000 N 
ATOM      2  N   UNL     1       4.413   5.848  16.551  0.00  0.00    +0.000 NA
ATOM      3  C   UNL     1       5.220   4.774  16.528  0.00  0.00    +0.000 A 
ATOM      4  C   UNL     1       4.875   3.872  17.563  0.00  0.00    +0.000 A 
ATOM      5  C   UNL     1       3.838   4.461  18.269  0.00  0.00    +0.000 A 
ENDROOT
BRANCH   1   9
ATOM      6  C   UNL     1       1.503   9.033  19.119  0.00  0.00    +0.000 A 
ATOM      7  C   UNL     1       2.064   9.049  17.829  0.00  0.00    +0.000 A 
ATOM      8  C   UNL     1       2.831   7.977  17.376  0.00  0.00    +0.000 A 
ATOM      9  C   UNL     1       3.000   6.862  18.198  0.00  0.00    +0.000 A 
ATOM     10  C   UNL     1       2.469   6.860  19.496  0.00  0.00    +0.000 A 
ATOM     11  C   UNL     1       1.714   7.943  19.984  0.00  0.00    +0.000 A 
BRANCH   6  12
ATOM     12  S   UNL     1       0.555  10.451  19.597  0.00  0.00    +0.000 S 
ATOM     13  O   UNL     1       1.209  11.116  20.698  0.00  0.00    +0.000 OA
ATOM     14  O   UNL     1      -0.850  10.097  19.642  0.00  0.00    +0.000 OA
BRANCH  12  15
ATOM     15  N   UNL     1       0.695  11.461  18.257  0.00  0.00    +0.000 NA
ATOM     16  H   UNL     1       1.135  10.922  17.503  0.00  0.00    +0.000 HD
ATOM     17  H   UNL     1       1.273  12.268  18.509  0.00  0.00    +0.000 HD
ENDBRANCH  12  15
ENDBRANCH   6  12
BRANCH  11  18
ATOM     18  C   UNL     1       1.206   7.857  21.400  0.00  0.00    +0.000 C 
BRANCH  18  19
ATOM     19  O   UNL     1       1.937   8.720  22.254  0.00  0.00    +0.000 OA
ATOM     20  H   UNL     1       2.887   8.547  22.100  0.00  0.00    +0.000 HD
ENDBRANCH  18  19
ENDBRANCH  11  18
ENDBRANCH   1   9
BRANCH   5  21
ATOM     21  C   UNL     1       3.005   3.884  19.338  0.00  0.00    +0.000 A 
ATOM     22  C   UNL     1       3.599   3.374  20.503  0.00  0.00    +0.000 A 
ATOM     23  C   UNL     1       2.819   2.832  21.531  0.00  0.00    +0.000 A 
ATOM     24  C   UNL     1       1.436   2.807  21.402  0.00  0.00    +0.000 A 
ATOM     25  C   UNL     1       0.825   3.287  20.254  0.00  0.00    +0.000 A 
ATOM     26  C   UNL     1       1.608   3.796  19.217  0.00  0.00    +0.000 A 
BRANCH  24  27
ATOM     27  O   UNL     1       0.633   2.309  22.384  0.00  0.00    +0.000 OA
ATOM     28  H   UNL     1      -0.291   2.373  22.097  0.00  0.00    +0.000 HD
ENDBRANCH  24  27
ENDBRANCH   5  21
BRANCH   3  29
ATOM     29  C   UNL     1       6.313   4.574  15.512  0.00  0.00    +0.000 C 
ATOM     30  F   UNL     1       7.563   4.567  16.042  0.00  0.00    +0.000 F 
ATOM     31  F   UNL     1       6.162   3.390  14.856  0.00  0.00    +0.000 F 
ATOM     32  F   UNL     1       6.294   5.543  14.558  0.00  0.00    +0.000 F 
ENDBRANCH   3  29
TORSDOF 8
ENDMDL
MODEL 3
REMARK VINA RESULT:      -8.1      3.470      5.966
REMARK  Name = 
REMARK  8 active torsions:
REMARK  status: ('A' for Active; 'I' for Inactive)
REMARK    1  A    between atoms: N_1  and  S_2
REMARK    2  A    between atoms: S_2  and  C_5
REMARK    3  A    between atoms: C_8  and  N_9
REMARK    4  A    between atoms: C_11  and  C_12
REMARK    5  A    between atoms: C_17  and  C_18
REMARK    6  A    between atoms: C_21  and  O_22
REMARK    7  A    between atoms: C_26  and  C_27
REMARK    8  A    between atoms: C_27  and  O_28
REMARK                            x       y       z     vdW  Elec       q    Type
REMARK                         _______ _______ _______ _____ _____    ______ ____
ROOT
ATOM      1  N   UNL     1       3.704   5.742  17.745  0.00  0.00    +0.000 N 
ATOM      2  N   UNL     1       4.417   5.844  16.593  0.00  0.00    +0.000 NA
ATOM      3  C   UNL     1       5.220   4.768  16.586  0.00  0.00    +0.000 A 
ATOM      4  C   UNL     1       4.864   3.876  17.626  0.00  0.00    +0.000 A 
ATOM      5  C   UNL     1       3.824   4.474  18.318  0.00  0.00    +0.000 A 
ENDROOT
BRANCH   1   9
ATOM      6  C   UNL     1       1.499   9.062  19.112  0.00  0.00    +0.000 A 
ATOM      7  C   UNL     1       2.077   9.068  17.828  0.00  0.00    +0.000 A 
ATOM      8  C   UNL     1       2.843   7.989  17.392  0.00  0.00    +0.000 A 
ATOM      9  C   UNL     1       2.995   6.877  18.221  0.00  0.00    +0.000 A 
ATOM     10  C   UNL     1       2.448   6.886  19.512  0.00  0.00    +0.000 A 
ATOM     11  C   UNL     1       1.693   7.976  19.985  0.00  0.00    +0.000 A 
BRANCH   6  12
ATOM     12  S   UNL     1       0.554  10.488  19.571  0.00  0.00    +0.000 S 
ATOM     13  O   UNL     1       1.193  11.150  20.682  0.00  0.00    +0.000 OA
ATOM     14  O   UNL     1      -0.855  10.145  19.591  0.00  0.00    +0.000 OA
BRANCH  12  15
ATOM     15  N   UNL     1       0.725  11.494  18.231  0.00  0.00    +0.000 NA
ATOM     16  H   UNL     1       1.564  12.067  18.375  0.00  0.00    +0.000 HD
ATOM     17  H   UNL     1      -0.107  12.086  18.153  0.00  0.00    +0.000 HD
ENDBRANCH  12  15
ENDBRANCH   6  12
BRANCH  11  18
ATOM     18  C   UNL     1       1.167   7.900  21.395  0.00  0.00    +0.000 C 
BRANCH  18  19
ATOM     19  O   UNL     1       1.921   8.728  22.263  0.00  0.00    +0.000 OA
ATOM     20  H   UNL     1       1.574   9.638  22.174  0.00  0.00    +0.000 HD
ENDBRANCH  18  19
ENDBRANCH  11  18
ENDBRANCH   1   9
BRANCH   5  21
ATOM     21  C   UNL     1       2.981   3.909  19.386  0.00  0.00    +0.000 A 
ATOM     22  C   UNL     1       1.603   3.731  19.182  0.00  0.00    +0.000 A 
ATOM     23  C   UNL     1       0.792   3.187  20.185  0.00  0.00    +0.000 A 
ATOM     24  C   UNL     1       1.359   2.806  21.395  0.00  0.00    +0.000 A 
ATOM     25  C   UNL     1       2.714   2.987  21.628  0.00  0.00    +0.000 A 
ATOM     26  C   UNL     1       3.513   3.562  20.639  0.00  0.00    +0.000 A 
BRANCH  24  27
ATOM     27  O   UNL     1       0.614   2.251  22.392  0.00  0.00    +0.000 OA
ATOM     28  H   UNL     1      -0.281   2.625  22.359  0.00  0.00    +0.000 HD
ENDBRANCH  24  27
ENDBRANCH   5  21
BRANCH   3  29
ATOM     29  C   UNL     1       6.320   4.555  15.579  0.00  0.00    +0.000 C 
ATOM     30  F   UNL     1       6.428   5.552  14.663  0.00  0.00    +0.000 F 
ATOM     31  F   UNL     1       7.532   4.456  16.191  0.00  0.00    +0.000 F 
ATOM     32  F   UNL     1       6.148   3.398  14.886  0.00  0.00    +0.000 F 
ENDBRANCH   3  29
TORSDOF 8
ENDMDL
MODEL 4
REMARK VINA RESULT:      -7.9      1.127      1.834
REMARK  Name = 
REMARK  8 active torsions:
REMARK  status: ('A' for Active; 'I' for Inactive)
REMARK    1  A    between atoms: N_1  and  S_2
REMARK    2  A    between atoms: S_2  and  C_5
REMARK    3  A    between atoms: C_8  and  N_9
REMARK    4  A    between atoms: C_11  and  C_12
REMARK    5  A    between atoms: C_17  and  C_18
REMARK    6  A    between atoms: C_21  and  O_22
REMARK    7  A    between atoms: C_26  and  C_27
REMARK    8  A    between atoms: C_27  and  O_28
REMARK                            x       y       z     vdW  Elec       q    Type
REMARK                         _______ _______ _______ _____ _____    ______ ____
ROOT
ATOM      1  N   UNL     1       5.371   4.221  15.831  0.00  0.00    +0.000 N 
ATOM      2  N   UNL     1       5.238   3.365  14.785  0.00  0.00    +0.000 NA
ATOM      3  C   UNL     1       5.992   3.894  13.806  0.00  0.00    +0.000 A 
ATOM      4  C   UNL     1       6.768   4.968  14.304  0.00  0.00    +0.000 A 
ATOM      5  C   UNL     1       6.423   5.118  15.637  0.00  0.00    +0.000 A 
ENDROOT
BRANCH   1   9
ATOM      6  C   UNL     1       2.748   3.982  19.120  0.00  0.00    +0.000 A 
ATOM      7  C   UNL     1       3.380   2.826  18.625  0.00  0.00    +0.000 A 
ATOM      8  C   UNL     1       4.214   2.896  17.510  0.00  0.00    +0.000 A 
ATOM      9  C   UNL     1       4.455   4.134  16.914  0.00  0.00    +0.000 A 
ATOM     10  C   UNL     1       3.798   5.280  17.385  0.00  0.00    +0.000 A 
ATOM     11  C   UNL     1       2.932   5.228  18.493  0.00  0.00    +0.000 A 
BRANCH   6  12
ATOM     12  S   UNL     1       1.702   3.779  20.534  0.00  0.00    +0.000 S 
ATOM     13  O   UNL     1       0.323   3.935  20.138  0.00  0.00    +0.000 OA
ATOM     14  O   UNL     1       2.262   4.506  21.656  0.00  0.00    +0.000 OA
BRANCH  12  15
ATOM     15  N   UNL     1       1.921   2.156  20.929  0.00  0.00    +0.000 NA
ATOM     16  H   UNL     1       2.392   2.117  21.840  0.00  0.00    +0.000 HD
ATOM     17  H   UNL     1       2.496   1.714  20.206  0.00  0.00    +0.000 HD
ENDBRANCH  12  15
ENDBRANCH   6  12
BRANCH  11  18
ATOM     18  C   UNL     1       2.255   6.509  18.909  0.00  0.00    +0.000 C 
BRANCH  18  19
ATOM     19  O   UNL     1       2.780   6.983  20.138  0.00  0.00    +0.000 OA
ATOM     20  H   UNL     1       2.421   7.881  20.282  0.00  0.00    +0.000 HD
ENDBRANCH  18  19
ENDBRANCH  11  18
ENDBRANCH   1   9
BRANCH   5  21
ATOM     21  C   UNL     1       7.043   5.979  16.659  0.00  0.00    +0.000 A 
ATOM     22  C   UNL     1       7.545   5.423  17.846  0.00  0.00    +0.000 A 
ATOM     23  C   UNL     1       8.145   6.229  18.821  0.00  0.00    +0.000 A 
ATOM     24  C   UNL     1       8.256   7.597  18.606  0.00  0.00    +0.000 A 
ATOM     25  C   UNL     1       7.753   8.175  17.451  0.00  0.00    +0.000 A 
ATOM     26  C   UNL     1       7.125   7.373  16.496  0.00  0.00    +0.000 A 
BRANCH  24  27
ATOM     27  O   UNL     1       8.851   8.419  19.516  0.00  0.00    +0.000 OA
ATOM     28  H   UNL     1       8.298   8.458  20.312  0.00  0.00    +0.000 HD
ENDBRANCH  24  27
ENDBRANCH   5  21
BRANCH   3  29
ATOM     29  C   UNL     1       6.008   3.374  12.393  0.00  0.00    +0.000 C 
ATOM     30  F   UNL     1       6.120   2.023  12.305  0.00  0.00    +0.000 F 
ATOM     31  F   UNL     1       4.867   3.714  11.732  0.00  0.00    +0.000 F 
ATOM     32  F   UNL     1       7.035   3.903  11.677  0.00  0.00    +0.000 F 
ENDBRANCH   3  29
TORSDOF 8
ENDMDL
MODEL 5
REMARK VINA RESULT:      -7.9      1.147      1.211
REMARK  Name = 
REMARK  8 active torsions:
REMARK  status: ('A' for Active; 'I' for Inactive)
REMARK    1  A    between atoms: N_1  and  S_2
REMARK    2  A    between atoms: S_2  and  C_5
REMARK    3  A    between atoms: C_8  and  N_9
REMARK    4  A    between atoms: C_11  and  C_12
REMARK    5  A    between atoms: C_17  and  C_18
REMARK    6  A    between atoms: C_21  and  O_22
REMARK    7  A    between atoms: C_26  and  C_27
REMARK    8  A    between atoms: C_27  and  O_28
REMARK                            x       y       z     vdW  Elec       q    Type
REMARK                         _______ _______ _______ _____ _____    ______ ____
ROOT
ATOM      1  N   UNL     1       5.367   4.447  16.016  0.00  0.00    +0.000 N 
ATOM      2  N   UNL     1       5.208   3.560  15.001  0.00  0.00    +0.000 NA
ATOM      3  C   UNL     1       5.947   4.051  13.992  0.00  0.00    +0.000 A 
ATOM      4  C   UNL     1       6.741   5.134  14.441  0.00  0.00    +0.000 A 
ATOM      5  C   UNL     1       6.423   5.328  15.776  0.00  0.00    +0.000 A 
ENDROOT
BRANCH   1   9
ATOM      6  C   UNL     1       2.620   4.320  19.209  0.00  0.00    +0.000 A 
ATOM      7  C   UNL     1       3.127   5.550  18.752  0.00  0.00    +0.000 A 
ATOM      8  C   UNL     1       4.069   5.591  17.725  0.00  0.00    +0.000 A 
ATOM      9  C   UNL     1       4.472   4.401  17.119  0.00  0.00    +0.000 A 
ATOM     10  C   UNL     1       3.992   3.173  17.597  0.00  0.00    +0.000 A 
ATOM     11  C   UNL     1       3.061   3.106  18.650  0.00  0.00    +0.000 A 
BRANCH   6  12
ATOM     12  S   UNL     1       1.436   4.381  20.524  0.00  0.00    +0.000 S 
ATOM     13  O   UNL     1       0.305   3.548  20.191  0.00  0.00    +0.000 OA
ATOM     14  O   UNL     1       1.273   5.754  20.962  0.00  0.00    +0.000 OA
BRANCH  12  15
ATOM     15  N   UNL     1       2.249   3.627  21.792  0.00  0.00    +0.000 NA
ATOM     16  H   UNL     1       2.514   4.350  22.468  0.00  0.00    +0.000 HD
ATOM     17  H   UNL     1       3.080   3.157  21.420  0.00  0.00    +0.000 HD
ENDBRANCH  12  15
ENDBRANCH   6  12
BRANCH  11  18
ATOM     18  C   UNL     1       2.623   1.738  19.108  0.00  0.00    +0.000 C 
BRANCH  18  19
ATOM     19  O   UNL     1       1.334   1.425  18.608  0.00  0.00    +0.000 OA
ATOM     20  H   UNL     1       1.377   0.523  18.233  0.00  0.00    +0.000 HD
ENDBRANCH  18  19
ENDBRANCH  11  18
ENDBRANCH   1   9
BRANCH   5  21
ATOM     21  C   UNL     1       7.069   6.215  16.758  0.00  0.00    +0.000 A 
ATOM     22  C   UNL     1       7.626   5.687  17.933  0.00  0.00    +0.000 A 
ATOM     23  C   UNL     1       8.251   6.517  18.871  0.00  0.00    +0.000 A 
ATOM     24  C   UNL     1       8.333   7.883  18.630  0.00  0.00    +0.000 A 
ATOM     25  C   UNL     1       7.776   8.434  17.486  0.00  0.00    +0.000 A 
ATOM     26  C   UNL     1       7.123   7.607  16.570  0.00  0.00    +0.000 A 
BRANCH  24  27
ATOM     27  O   UNL     1       8.950   8.729  19.502  0.00  0.00    +0.000 OA
ATOM     28  H   UNL     1       8.769   9.644  19.234  0.00  0.00    +0.000 HD
ENDBRANCH  24  27
ENDBRANCH   5  21
BRANCH   3  29
ATOM     29  C   UNL     1       5.932   3.488  12.596  0.00  0.00    +0.000 C 
ATOM     30  F   UNL     1       6.137   2.146  12.541  0.00  0.00    +0.000 F 
ATOM     31  F   UNL     1       4.739   3.724  11.984  0.00  0.00    +0.000 F 
ATOM     32  F   UNL     1       6.882   4.064  11.813  0.00  0.00    +0.000 F 
ENDBRANCH   3  29
TORSDOF 8
ENDMDL
MODEL 6
REMARK VINA RESULT:      -7.9      0.676      1.110
REMARK  Name = 
REMARK  8 active torsions:
REMARK  status: ('A' for Active; 'I' for Inactive)
REMARK    1  A    between atoms: N_1  and  S_2
REMARK    2  A    between atoms: S_2  and  C_5
REMARK    3  A    between atoms: C_8  and  N_9
REMARK    4  A    between atoms: C_11  and  C_12
REMARK    5  A    between atoms: C_17  and  C_18
REMARK    6  A    between atoms: C_21  and  O_22
REMARK    7  A    between atoms: C_26  and  C_27
REMARK    8  A    between atoms: C_27  and  O_28
REMARK                            x       y       z     vdW  Elec       q    Type
REMARK                         _______ _______ _______ _____ _____    ______ ____
ROOT
ATOM      1  N   UNL     1       5.427   4.433  16.127  0.00  0.00    +0.000 N 
ATOM      2  N   UNL     1       5.265   3.547  15.110  0.00  0.00    +0.000 NA
ATOM      3  C   UNL     1       5.955   4.069  14.082  0.00  0.00    +0.000 A 
ATOM      4  C   UNL     1       6.726   5.176  14.514  0.00  0.00    +0.000 A 
ATOM      5  C   UNL     1       6.444   5.351  15.859  0.00  0.00    +0.000 A 
ENDROOT
BRANCH   1   9
ATOM      6  C   UNL     1       2.804   4.126  19.410  0.00  0.00    +0.000 A 
ATOM      7  C   UNL     1       2.723   5.222  18.532  0.00  0.00    +0.000 A 
ATOM      8  C   UNL     1       3.618   5.348  17.471  0.00  0.00    +0.000 A 
ATOM      9  C   UNL     1       4.569   4.350  17.257  0.00  0.00    +0.000 A 
ATOM     10  C   UNL     1       4.672   3.275  18.152  0.00  0.00    +0.000 A 
ATOM     11  C   UNL     1       3.796   3.142  19.245  0.00  0.00    +0.000 A 
BRANCH   6  12
ATOM     12  S   UNL     1       1.625   4.069  20.731  0.00  0.00    +0.000 S 
ATOM     13  O   UNL     1       2.294   3.704  21.956  0.00  0.00    +0.000 OA
ATOM     14  O   UNL     1       0.429   3.386  20.279  0.00  0.00    +0.000 OA
BRANCH  12  15
ATOM     15  N   UNL     1       1.160   5.681  20.883  0.00  0.00    +0.000 NA
ATOM     16  H   UNL     1       0.562   5.912  20.083  0.00  0.00    +0.000 HD
ATOM     17  H   UNL     1       1.999   6.269  20.888  0.00  0.00    +0.000 HD
ENDBRANCH  12  15
ENDBRANCH   6  12
BRANCH  11  18
ATOM     18  C   UNL     1       4.002   1.964  20.164  0.00  0.00    +0.000 C 
BRANCH  18  19
ATOM     19  O   UNL     1       5.333   1.484  20.082  0.00  0.00    +0.000 OA
ATOM     20  H   UNL     1       5.907   2.248  19.873  0.00  0.00    +0.000 HD
ENDBRANCH  18  19
ENDBRANCH  11  18
ENDBRANCH   1   9
BRANCH   5  21
ATOM     21  C   UNL     1       7.091   6.254  16.827  0.00  0.00    +0.000 A 
ATOM     22  C   UNL     1       7.641   5.745  18.014  0.00  0.00    +0.000 A 
ATOM     23  C   UNL     1       8.266   6.590  18.937  0.00  0.00    +0.000 A 
ATOM     24  C   UNL     1       8.355   7.951  18.671  0.00  0.00    +0.000 A 
ATOM     25  C   UNL     1       7.804   8.482  17.515  0.00  0.00    +0.000 A 
ATOM     26  C   UNL     1       7.151   7.641  16.612  0.00  0.00    +0.000 A 
BRANCH  24  27
ATOM     27  O   UNL     1       8.973   8.810  19.529  0.00  0.00    +0.000 OA
ATOM     28  H   UNL     1       9.934   8.716  19.430  0.00  0.00    +0.000 HD
ENDBRANCH  24  27
ENDBRANCH   5  21
BRANCH   3  29
ATOM     29  C   UNL     1       5.915   3.514  12.683  0.00  0.00    +0.000 C 
ATOM     30  F   UNL     1       6.815   4.081  11.840  0.00  0.00    +0.000 F 
ATOM     31  F   UNL     1       6.167   2.176  12.679  0.00  0.00    +0.000 F 
ATOM     32  F   UNL     1       4.689   3.671  12.117  0.00  0.00    +0.000 F 
ENDBRANCH   3  29
TORSDOF 8
ENDMDL
MODEL 7
REMARK VINA RESULT:      -7.9      0.918      1.919
REMARK  Name = 
REMARK  8 active torsions:
REMARK  status: ('A' for Active; 'I' for Inactive)
REMARK    1  A    between atoms: N_1  and  S_2
REMARK    2  A    between atoms: S_2  and  C_5
REMARK    3  A    between atoms: C_8  and  N_9
REMARK    4  A    between atoms: C_11  and  C_12
REMARK    5  A    between atoms: C_17  and  C_18
REMARK    6  A    between atoms: C_21  and  O_22
REMARK    7  A    between atoms: C_26  and  C_27
REMARK    8  A    between atoms: C_27  and  O_28
REMARK                            x       y       z     vdW  Elec       q    Type
REMARK                         _______ _______ _______ _____ _____    ______ ____
ROOT
ATOM      1  N   UNL     1       5.389   4.161  15.853  0.00  0.00    +0.000 N 
ATOM      2  N   UNL     1       5.251   3.323  14.793  0.00  0.00    +0.000 NA
ATOM      3  C   UNL     1       5.948   3.901  13.801  0.00  0.00    +0.000 A 
ATOM      4  C   UNL     1       6.700   4.995  14.294  0.00  0.00    +0.000 A 
ATOM      5  C   UNL     1       6.399   5.102  15.642  0.00  0.00    +0.000 A 
ENDROOT
BRANCH   1   9
ATOM      6  C   UNL     1       2.899   3.756  19.227  0.00  0.00    +0.000 A 
ATOM      7  C   UNL     1       3.610   2.649  18.727  0.00  0.00    +0.000 A 
ATOM      8  C   UNL     1       4.399   2.771  17.585  0.00  0.00    +0.000 A 
ATOM      9  C   UNL     1       4.519   4.015  16.966  0.00  0.00    +0.000 A 
ATOM     10  C   UNL     1       3.784   5.110  17.444  0.00  0.00    +0.000 A 
ATOM     11  C   UNL     1       2.960   5.004  18.580  0.00  0.00    +0.000 A 
BRANCH   6  12
ATOM     12  S   UNL     1       1.918   3.489  20.677  0.00  0.00    +0.000 S 
ATOM     13  O   UNL     1       2.070   4.610  21.573  0.00  0.00    +0.000 OA
ATOM     14  O   UNL     1       2.088   2.121  21.129  0.00  0.00    +0.000 OA
BRANCH  12  15
ATOM     15  N   UNL     1       0.345   3.545  20.078  0.00  0.00    +0.000 NA
ATOM     16  H   UNL     1      -0.287   3.688  20.872  0.00  0.00    +0.000 HD
ATOM     17  H   UNL     1       0.139   2.659  19.607  0.00  0.00    +0.000 HD
ENDBRANCH  12  15
ENDBRANCH   6  12
BRANCH  11  18
ATOM     18  C   UNL     1       2.193   6.231  19.002  0.00  0.00    +0.000 C 
BRANCH  18  19
ATOM     19  O   UNL     1       2.843   6.890  20.075  0.00  0.00    +0.000 OA
ATOM     20  H   UNL     1       2.149   7.213  20.684  0.00  0.00    +0.000 HD
ENDBRANCH  18  19
ENDBRANCH  11  18
ENDBRANCH   1   9
BRANCH   5  21
ATOM     21  C   UNL     1       7.023   5.965  16.660  0.00  0.00    +0.000 A 
ATOM     22  C   UNL     1       7.531   5.411  17.845  0.00  0.00    +0.000 A 
ATOM     23  C   UNL     1       8.134   6.218  18.817  0.00  0.00    +0.000 A 
ATOM     24  C   UNL     1       8.243   7.587  18.600  0.00  0.00    +0.000 A 
ATOM     25  C   UNL     1       7.734   8.162  17.447  0.00  0.00    +0.000 A 
ATOM     26  C   UNL     1       7.102   7.359  16.496  0.00  0.00    +0.000 A 
BRANCH  24  27
ATOM     27  O   UNL     1       8.841   8.410  19.507  0.00  0.00    +0.000 OA
ATOM     28  H   UNL     1       9.680   8.011  19.787  0.00  0.00    +0.000 HD
ENDBRANCH  24  27
ENDBRANCH   5  21
BRANCH   3  29
ATOM     29  C   UNL     1       5.932   3.413  12.376  0.00  0.00    +0.000 C 
ATOM     30  F   UNL     1       6.922   3.932  11.605  0.00  0.00    +0.000 F 
ATOM     31  F   UNL     1       6.065   2.059  12.321  0.00  0.00    +0.000 F 
ATOM     32  F   UNL     1       4.756   3.705  11.759  0.00  0.00    +0.000 F 
ENDBRANCH   3  29
TORSDOF 8
ENDMDL
MODEL 8
REMARK VINA RESULT:      -7.8      0.707      1.122
REMARK  Name = 
REMARK  8 active torsions:
REMARK  status: ('A' for Active; 'I' for Inactive)
REMARK    1  A    between atoms: N_1  and  S_2
REMARK    2  A    between atoms: S_2  and  C_5
REMARK    3  A    between atoms: C_8  and  N_9
REMARK    4  A    between atoms: C_11  and  C_12
REMARK    5  A    between atoms: C_17  and  C_18
REMARK    6  A    between atoms: C_21  and  O_22
REMARK    7  A    between atoms: C_26  and  C_27
REMARK    8  A    between atoms: C_27  and  O_28
REMARK                            x       y       z     vdW  Elec       q    Type
REMARK                         _______ _______ _______ _____ _____    ______ ____
ROOT
ATOM      1  N   UNL     1       5.408   4.371  15.981  0.00  0.00    +0.000 N 
ATOM      2  N   UNL     1       5.262   3.502  14.949  0.00  0.00    +0.000 NA
ATOM      3  C   UNL     1       5.978   4.033  13.944  0.00  0.00    +0.000 A 
ATOM      4  C   UNL     1       6.749   5.127  14.408  0.00  0.00    +0.000 A 
ATOM      5  C   UNL     1       6.439   5.285  15.749  0.00  0.00    +0.000 A 
ENDROOT
BRANCH   1   9
ATOM      6  C   UNL     1       2.709   4.044  19.201  0.00  0.00    +0.000 A 
ATOM      7  C   UNL     1       2.686   5.174  18.362  0.00  0.00    +0.000 A 
ATOM      8  C   UNL     1       3.607   5.304  17.324  0.00  0.00    +0.000 A 
ATOM      9  C   UNL     1       4.525   4.280  17.091  0.00  0.00    +0.000 A 
ATOM     10  C   UNL     1       4.570   3.170  17.948  0.00  0.00    +0.000 A 
ATOM     11  C   UNL     1       3.668   3.030  19.018  0.00  0.00    +0.000 A 
BRANCH   6  12
ATOM     12  S   UNL     1       1.502   3.984  20.495  0.00  0.00    +0.000 S 
ATOM     13  O   UNL     1       0.600   2.883  20.259  0.00  0.00    +0.000 OA
ATOM     14  O   UNL     1       1.020   5.324  20.766  0.00  0.00    +0.000 OA
BRANCH  12  15
ATOM     15  N   UNL     1       2.425   3.584  21.846  0.00  0.00    +0.000 NA
ATOM     16  H   UNL     1       1.967   2.796  22.316  0.00  0.00    +0.000 HD
ATOM     17  H   UNL     1       2.472   4.397  22.467  0.00  0.00    +0.000 HD
ENDBRANCH  12  15
ENDBRANCH   6  12
BRANCH  11  18
ATOM     18  C   UNL     1       3.811   1.814  19.896  0.00  0.00    +0.000 C 
BRANCH  18  19
ATOM     19  O   UNL     1       5.160   1.629  20.290  0.00  0.00    +0.000 OA
ATOM     20  H   UNL     1       5.185   0.862  20.897  0.00  0.00    +0.000 HD
ENDBRANCH  18  19
ENDBRANCH  11  18
ENDBRANCH   1   9
BRANCH   5  21
ATOM     21  C   UNL     1       7.071   6.168  16.744  0.00  0.00    +0.000 A 
ATOM     22  C   UNL     1       7.590   5.638  17.936  0.00  0.00    +0.000 A 
ATOM     23  C   UNL     1       8.201   6.465  18.885  0.00  0.00    +0.000 A 
ATOM     24  C   UNL     1       8.308   7.829  18.640  0.00  0.00    +0.000 A 
ATOM     25  C   UNL     1       7.788   8.381  17.480  0.00  0.00    +0.000 A 
ATOM     26  C   UNL     1       7.148   7.558  16.551  0.00  0.00    +0.000 A 
BRANCH  24  27
ATOM     27  O   UNL     1       8.914   8.670  19.524  0.00  0.00    +0.000 OA
ATOM     28  H   UNL     1       9.827   8.824  19.235  0.00  0.00    +0.000 HD
ENDBRANCH  24  27
ENDBRANCH   5  21
BRANCH   3  29
ATOM     29  C   UNL     1       5.965   3.498  12.537  0.00  0.00    +0.000 C 
ATOM     30  F   UNL     1       4.785   3.682  11.889  0.00  0.00    +0.000 F 
ATOM     31  F   UNL     1       6.924   4.095  11.776  0.00  0.00    +0.000 F 
ATOM     32  F   UNL     1       6.229   2.164  12.505  0.00  0.00    +0.000 F 
ENDBRANCH   3  29
TORSDOF 8
ENDMDL
MODEL 9
REMARK VINA RESULT:      -7.8      4.547      6.039
REMARK  Name = 
REMARK  8 active torsions:
REMARK  status: ('A' for Active; 'I' for Inactive)
REMARK    1  A    between atoms: N_1  and  S_2
REMARK    2  A    between atoms: S_2  and  C_5
REMARK    3  A    between atoms: C_8  and  N_9
REMARK    4  A    between atoms: C_11  and  C_12
REMARK    5  A    between atoms: C_17  and  C_18
REMARK    6  A    between atoms: C_21  and  O_22
REMARK    7  A    between atoms: C_26  and  C_27
REMARK    8  A    between atoms: C_27  and  O_28
REMARK                            x       y       z     vdW  Elec       q    Type
REMARK                         _______ _______ _______ _____ _____    ______ ____
ROOT
ATOM      1  N   UNL     1       2.539   5.490  19.207  0.00  0.00    +0.000 N 
ATOM      2  N   UNL     1       1.738   4.522  19.721  0.00  0.00    +0.000 NA
ATOM      3  C   UNL     1       2.142   3.386  19.128  0.00  0.00    +0.000 A 
ATOM      4  C   UNL     1       3.337   3.605  18.401  0.00  0.00    +0.000 A 
ATOM      5  C   UNL     1       3.635   4.952  18.529  0.00  0.00    +0.000 A 
ENDROOT
BRANCH   1   9
ATOM      6  C   UNL     1       1.334   9.500  19.682  0.00  0.00    +0.000 A 
ATOM      7  C   UNL     1       1.769   9.028  18.429  0.00  0.00    +0.000 A 
ATOM      8  C   UNL     1       2.209   7.714  18.280  0.00  0.00    +0.000 A 
ATOM      9  C   UNL     1       2.171   6.852  19.376  0.00  0.00    +0.000 A 
ATOM     10  C   UNL     1       1.771   7.331  20.632  0.00  0.00    +0.000 A 
ATOM     11  C   UNL     1       1.348   8.661  20.812  0.00  0.00    +0.000 A 
BRANCH   6  12
ATOM     12  S   UNL     1       0.806  11.188  19.763  0.00  0.00    +0.000 S 
ATOM     13  O   UNL     1       1.487  11.853  20.847  0.00  0.00    +0.000 OA
ATOM     14  O   UNL     1      -0.635  11.249  19.612  0.00  0.00    +0.000 OA
BRANCH  12  15
ATOM     15  N   UNL     1       1.409  11.836  18.329  0.00  0.00    +0.000 NA
ATOM     16  H   UNL     1       1.102  11.231  17.560  0.00  0.00    +0.000 HD
ATOM     17  H   UNL     1       2.432  11.862  18.382  0.00  0.00    +0.000 HD
ENDBRANCH  12  15
ENDBRANCH   6  12
BRANCH  11  18
ATOM     18  C   UNL     1       0.959   9.087  22.204  0.00  0.00    +0.000 C 
BRANCH  18  19
ATOM     19  O   UNL     1       2.096   9.492  22.947  0.00  0.00    +0.000 OA
ATOM     20  H   UNL     1       2.792   8.820  22.805  0.00  0.00    +0.000 HD
ENDBRANCH  18  19
ENDBRANCH  11  18
ENDBRANCH   1   9
BRANCH   5  21
ATOM     21  C   UNL     1       4.847   5.673  18.104  0.00  0.00    +0.000 A 
ATOM     22  C   UNL     1       4.854   6.405  16.907  0.00  0.00    +0.000 A 
ATOM     23  C   UNL     1       5.996   7.102  16.496  0.00  0.00    +0.000 A 
ATOM     24  C   UNL     1       7.136   7.080  17.290  0.00  0.00    +0.000 A 
ATOM     25  C   UNL     1       7.162   6.351  18.468  0.00  0.00    +0.000 A 
ATOM     26  C   UNL     1       6.032   5.629  18.858  0.00  0.00    +0.000 A 
BRANCH  24  27
ATOM     27  O   UNL     1       8.264   7.761  16.943  0.00  0.00    +0.000 OA
ATOM     28  H   UNL     1       9.025   7.355  17.389  0.00  0.00    +0.000 HD
ENDBRANCH  24  27
ENDBRANCH   5  21
BRANCH   3  29
ATOM     29  C   UNL     1       1.419   2.073  19.262  0.00  0.00    +0.000 C 
ATOM     30  F   UNL     1       0.237   2.024  18.593  0.00  0.00    +0.000 F 
ATOM     31  F   UNL     1       2.176   1.045  18.788  0.00  0.00    +0.000 F 
ATOM     32  F   UNL     1       1.149   1.779  20.562  0.00  0.00    +0.000 F 
ENDBRANCH   3  29
TORSDOF 8
ENDMDL
