MODEL 1
REMARK VINA RESULT:      -7.3      0.000      0.000
REMARK  Name = 
REMARK  5 active torsions:
REMARK  status: ('A' for Active; 'I' for Inactive)
REMARK    1  A    between atoms: C_2  and  C_4
REMARK    2  A    between atoms: C_4  and  C_5
REMARK    3  A    between atoms: C_8  and  O_9
REMARK    4  A    between atoms: O_9  and  C_10
REMARK    5  A    between atoms: C_10  and  C_11
REMARK                            x       y       z     vdW  Elec       q    Type
REMARK                         _______ _______ _______ _____ _____    ______ ____
ROOT
ATOM      1  C   UNL     1       6.010   4.557  14.673  0.00  0.00    +0.000 A 
ATOM      2  C   UNL     1       5.695   3.639  15.682  0.00  0.00    +0.000 A 
ATOM      3  C   UNL     1       5.080   4.064  16.859  0.00  0.00    +0.000 A 
ATOM      4  C   UNL     1       4.789   5.415  17.054  0.00  0.00    +0.000 A 
ATOM      5  C   UNL     1       5.037   6.324  16.025  0.00  0.00    +0.000 A 
ATOM      6  C   UNL     1       5.647   5.900  14.841  0.00  0.00    +0.000 A 
ENDROOT
BRANCH   1   7
ATOM      7  C   UNL     1       6.714   4.087  13.426  0.00  0.00    +0.000 C 
BRANCH   7   9
ATOM      8  N   UNL     1       6.352   2.211  11.921  0.00  0.00    +0.000 N 
ATOM      9  C   UNL     1       5.801   3.321  12.494  0.00  0.00    +0.000 C 
ATOM     10  O   UNL     1       4.643   3.646  12.255  0.00  0.00    +0.000 OA
ATOM     11  H   UNL     1       5.790   1.735  11.227  0.00  0.00    +0.000 HD
ATOM     12  H   UNL     1       7.349   2.051  11.917  0.00  0.00    +0.000 HD
ENDBRANCH   7   9
ENDBRANCH   1   7
BRANCH   4  13
ATOM     13  O   UNL     1       4.270   5.945  18.207  0.00  0.00    +0.000 OA
BRANCH  13  14
ATOM     14  C   UNL     1       2.846   6.094  18.204  0.00  0.00    +0.000 C 
BRANCH  14  15
ATOM     15  C   UNL     1       2.166   4.949  18.916  0.00  0.00    +0.000 A 
ATOM     16  C   UNL     1       1.551   3.904  18.215  0.00  0.00    +0.000 A 
ATOM     17  C   UNL     1       0.945   2.852  18.906  0.00  0.00    +0.000 A 
ATOM     18  C   UNL     1       0.958   2.829  20.300  0.00  0.00    +0.000 A 
ATOM     19  C   UNL     1       1.589   3.851  21.006  0.00  0.00    +0.000 A 
ATOM     20  C   UNL     1       2.194   4.900  20.317  0.00  0.00    +0.000 A 
ENDBRANCH  14  15
ENDBRANCH  13  14
ENDBRANCH   4  13
TORSDOF 5
ENDMDL
MODEL 2
REMARK VINA RESULT:      -7.2      3.498      6.678
REMARK  Name = 
REMARK  5 active torsions:
REMARK  status: ('A' for Active; 'I' for Inactive)
REMARK    1  A    between atoms: C_2  and  C_4
REMARK    2  A    between atoms: C_4  and  C_5
REMARK    3  A    between atoms: C_8  and  O_9
REMARK    4  A    between atoms: O_9  and  C_10
REMARK    5  A    between atoms: C_10  and  C_11
REMARK                            x       y       z     vdW  Elec       q    Type
REMARK                         _______ _______ _______ _____ _____    ______ ____
ROOT
ATOM      1  C   UNL     1       2.964   4.499  19.544  0.00  0.00    +0.000 A 
ATOM      2  C   UNL     1       3.030   5.662  18.767  0.00  0.00    +0.000 A 
ATOM      3  C   UNL     1       3.653   5.646  17.519  0.00  0.00    +0.000 A 
ATOM      4  C   UNL     1       4.234   4.473  17.037  0.00  0.00    +0.000 A 
ATOM      5  C   UNL     1       4.110   3.294  17.774  0.00  0.00    +0.000 A 
ATOM      6  C   UNL     1       3.481   3.306  19.023  0.00  0.00    +0.000 A 
ENDROOT
BRANCH   1   7
ATOM      7  C   UNL     1       2.326   4.546  20.909  0.00  0.00    +0.000 C 
BRANCH   7   9
ATOM      8  N   UNL     1       0.435   3.092  20.430  0.00  0.00    +0.000 N 
ATOM      9  C   UNL     1       1.528   3.299  21.222  0.00  0.00    +0.000 C 
ATOM     10  O   UNL     1       1.819   2.509  22.114  0.00  0.00    +0.000 OA
ATOM     11  H   UNL     1      -0.162   2.314  20.679  0.00  0.00    +0.000 HD
ATOM     12  H   UNL     1       0.047   3.825  19.853  0.00  0.00    +0.000 HD
ENDBRANCH   7   9
ENDBRANCH   1   7
BRANCH   4  13
ATOM     13  O   UNL     1       4.945   4.374  15.869  0.00  0.00    +0.000 OA
BRANCH  13  14
ATOM     14  C   UNL     1       6.348   4.146  16.045  0.00  0.00    +0.000 C 
BRANCH  14  15
ATOM     15  C   UNL     1       6.972   5.186  16.944  0.00  0.00    +0.000 A 
ATOM     16  C   UNL     1       7.047   6.535  16.573  0.00  0.00    +0.000 A 
ATOM     17  C   UNL     1       7.616   7.473  17.437  0.00  0.00    +0.000 A 
ATOM     18  C   UNL     1       8.104   7.075  18.682  0.00  0.00    +0.000 A 
ATOM     19  C   UNL     1       8.011   5.740  19.070  0.00  0.00    +0.000 A 
ATOM     20  C   UNL     1       7.443   4.805  18.209  0.00  0.00    +0.000 A 
ENDBRANCH  14  15
ENDBRANCH  13  14
ENDBRANCH   4  13
TORSDOF 5
ENDMDL
MODEL 3
REMARK VINA RESULT:      -7.0      0.465      1.193
REMARK  Name = 
REMARK  5 active torsions:
REMARK  status: ('A' for Active; 'I' for Inactive)
REMARK    1  A    between atoms: C_2  and  C_4
REMARK    2  A    between atoms: C_4  and  C_5
REMARK    3  A    between atoms: C_8  and  O_9
REMARK    4  A    between atoms: O_9  and  C_10
REMARK    5  A    between atoms: C_10  and  C_11
REMARK                            x       y       z     vdW  Elec       q    Type
REMARK                         _______ _______ _______ _____ _____    ______ ____
ROOT
ATOM      1  C   UNL     1       6.122   4.807  14.858  0.00  0.00    +0.000 A 
ATOM      2  C   UNL     1       6.125   3.866  15.894  0.00  0.00    +0.000 A 
ATOM      3  C   UNL     1       5.588   4.184  17.142  0.00  0.00    +0.000 A 
ATOM      4  C   UNL     1       5.057   5.452  17.378  0.00  0.00    +0.000 A 
ATOM      5  C   UNL     1       4.987   6.371  16.330  0.00  0.00    +0.000 A 
ATOM      6  C   UNL     1       5.519   6.054  15.076  0.00  0.00    +0.000 A 
ENDROOT
BRANCH   1   7
ATOM      7  C   UNL     1       6.746   4.462  13.530  0.00  0.00    +0.000 C 
BRANCH   7   9
ATOM      8  N   UNL     1       6.566   2.468  12.149  0.00  0.00    +0.000 N 
ATOM      9  C   UNL     1       5.895   3.514  12.715  0.00  0.00    +0.000 C 
ATOM     10  O   UNL     1       4.686   3.646  12.558  0.00  0.00    +0.000 OA
ATOM     11  H   UNL     1       6.034   1.873  11.527  0.00  0.00    +0.000 HD
ATOM     12  H   UNL     1       7.573   2.460  12.070  0.00  0.00    +0.000 HD
ENDBRANCH   7   9
ENDBRANCH   1   7
BRANCH   4  13
ATOM     13  O   UNL     1       4.589   5.891  18.589  0.00  0.00    +0.000 OA
BRANCH  13  14
ATOM     14  C   UNL     1       3.198   6.232  18.601  0.00  0.00    +0.000 C 
BRANCH  14  15
ATOM     15  C   UNL     1       2.342   5.060  19.013  0.00  0.00    +0.000 A 
ATOM     16  C   UNL     1       1.802   4.955  20.302  0.00  0.00    +0.000 A 
ATOM     17  C   UNL     1       1.001   3.863  20.645  0.00  0.00    +0.000 A 
ATOM     18  C   UNL     1       0.722   2.875  19.701  0.00  0.00    +0.000 A 
ATOM     19  C   UNL     1       1.233   2.983  18.410  0.00  0.00    +0.000 A 
ATOM     20  C   UNL     1       2.031   4.071  18.068  0.00  0.00    +0.000 A 
ENDBRANCH  14  15
ENDBRANCH  13  14
ENDBRANCH   4  13
TORSDOF 5
ENDMDL
MODEL 4
REMARK VINA RESULT:      -7.0      3.521      6.670
REMARK  Name = 
REMARK  5 active torsions:
REMARK  status: ('A' for Active; 'I' for Inactive)
REMARK    1  A    between atoms: C_2  and  C_4
REMARK    2  A    between atoms: C_4  and  C_5
REMARK    3  A    between atoms: C_8  and  O_9
REMARK    4  A    between atoms: O_9  and  C_10
REMARK    5  A    between atoms: C_10  and  C_11
REMARK                            x       y       z     vdW  Elec       q    Type
REMARK                         _______ _______ _______ _____ _____    ______ ____
ROOT
ATOM      1  C   UNL     1       2.895   4.463  19.777  0.00  0.00    +0.000 A 
ATOM      2  C   UNL     1       3.693   3.363  19.441  0.00  0.00    +0.000 A 
ATOM      3  C   UNL     1       4.389   3.336  18.233  0.00  0.00    +0.000 A 
ATOM      4  C   UNL     1       4.284   4.399  17.336  0.00  0.00    +0.000 A 
ATOM      5  C   UNL     1       3.547   5.529  17.695  0.00  0.00    +0.000 A 
ATOM      6  C   UNL     1       2.853   5.561  18.908  0.00  0.00    +0.000 A 
ENDROOT
BRANCH   1   7
ATOM      7  C   UNL     1       2.114   4.455  21.067  0.00  0.00    +0.000 C 
BRANCH   7   9
ATOM      8  N   UNL     1       0.371   2.958  20.267  0.00  0.00    +0.000 N 
ATOM      9  C   UNL     1       1.295   3.195  21.245  0.00  0.00    +0.000 C 
ATOM     10  O   UNL     1       1.430   2.421  22.185  0.00  0.00    +0.000 OA
ATOM     11  H   UNL     1      -0.248   2.171  20.413  0.00  0.00    +0.000 HD
ATOM     12  H   UNL     1       0.083   3.677  19.619  0.00  0.00    +0.000 HD
ENDBRANCH   7   9
ENDBRANCH   1   7
BRANCH   4  13
ATOM     13  O   UNL     1       4.854   4.431  16.089  0.00  0.00    +0.000 OA
BRANCH  13  14
ATOM     14  C   UNL     1       6.279   4.283  16.083  0.00  0.00    +0.000 C 
BRANCH  14  15
ATOM     15  C   UNL     1       6.947   5.317  16.957  0.00  0.00    +0.000 A 
ATOM     16  C   UNL     1       6.960   6.676  16.619  0.00  0.00    +0.000 A 
ATOM     17  C   UNL     1       7.574   7.606  17.460  0.00  0.00    +0.000 A 
ATOM     18  C   UNL     1       8.170   7.190  18.650  0.00  0.00    +0.000 A 
ATOM     19  C   UNL     1       8.141   5.844  19.008  0.00  0.00    +0.000 A 
ATOM     20  C   UNL     1       7.528   4.916  18.170  0.00  0.00    +0.000 A 
ENDBRANCH  14  15
ENDBRANCH  13  14
ENDBRANCH   4  13
TORSDOF 5
ENDMDL
MODEL 5
REMARK VINA RESULT:      -6.9      0.883      1.360
REMARK  Name = 
REMARK  5 active torsions:
REMARK  status: ('A' for Active; 'I' for Inactive)
REMARK    1  A    between atoms: C_2  and  C_4
REMARK    2  A    between atoms: C_4  and  C_5
REMARK    3  A    between atoms: C_8  and  O_9
REMARK    4  A    between atoms: O_9  and  C_10
REMARK    5  A    between atoms: C_10  and  C_11
REMARK                            x       y       z     vdW  Elec       q    Type
REMARK                         _______ _______ _______ _____ _____    ______ ____
ROOT
ATOM      1  C   UNL     1       6.355   5.087  15.317  0.00  0.00    +0.000 A 
ATOM      2  C   UNL     1       5.398   6.101  15.444  0.00  0.00    +0.000 A 
ATOM      3  C   UNL     1       4.825   6.384  16.683  0.00  0.00    +0.000 A 
ATOM      4  C   UNL     1       5.186   5.646  17.811  0.00  0.00    +0.000 A 
ATOM      5  C   UNL     1       6.188   4.681  17.705  0.00  0.00    +0.000 A 
ATOM      6  C   UNL     1       6.769   4.399  16.465  0.00  0.00    +0.000 A 
ENDROOT
BRANCH   1   7
ATOM      7  C   UNL     1       6.931   4.765  13.962  0.00  0.00    +0.000 C 
BRANCH   7   9
ATOM      8  N   UNL     1       6.732   3.020  12.278  0.00  0.00    +0.000 N 
ATOM      9  C   UNL     1       6.065   3.807  13.173  0.00  0.00    +0.000 C 
ATOM     10  O   UNL     1       4.850   3.717  13.308  0.00  0.00    +0.000 OA
ATOM     11  H   UNL     1       6.164   2.437  11.678  0.00  0.00    +0.000 HD
ATOM     12  H   UNL     1       7.676   3.227  11.985  0.00  0.00    +0.000 HD
ENDBRANCH   7   9
ENDBRANCH   1   7
BRANCH   4  13
ATOM     13  O   UNL     1       4.618   5.784  19.051  0.00  0.00    +0.000 OA
BRANCH  13  14
ATOM     14  C   UNL     1       3.230   6.137  19.033  0.00  0.00    +0.000 C 
BRANCH  14  15
ATOM     15  C   UNL     1       2.348   4.929  19.239  0.00  0.00    +0.000 A 
ATOM     16  C   UNL     1       1.945   4.117  18.171  0.00  0.00    +0.000 A 
ATOM     17  C   UNL     1       1.141   2.998  18.400  0.00  0.00    +0.000 A 
ATOM     18  C   UNL     1       0.743   2.674  19.697  0.00  0.00    +0.000 A 
ATOM     19  C   UNL     1       1.159   3.461  20.769  0.00  0.00    +0.000 A 
ATOM     20  C   UNL     1       1.961   4.576  20.540  0.00  0.00    +0.000 A 
ENDBRANCH  14  15
ENDBRANCH  13  14
ENDBRANCH   4  13
TORSDOF 5
ENDMDL
MODEL 6
REMARK VINA RESULT:      -6.9      3.443      6.749
REMARK  Name = 
REMARK  5 active torsions:
REMARK  status: ('A' for Active; 'I' for Inactive)
REMARK    1  A    between atoms: C_2  and  C_4
REMARK    2  A    between atoms: C_4  and  C_5
REMARK    3  A    between atoms: C_8  and  O_9
REMARK    4  A    between atoms: O_9  and  C_10
REMARK    5  A    between atoms: C_10  and  C_11
REMARK                            x       y       z     vdW  Elec       q    Type
REMARK                         _______ _______ _______ _____ _____    ______ ____
ROOT
ATOM      1  C   UNL     1       1.881   3.803  19.138  0.00  0.00    +0.000 A 
ATOM      2  C   UNL     1       2.353   5.111  18.974  0.00  0.00    +0.000 A 
ATOM      3  C   UNL     1       3.230   5.422  17.935  0.00  0.00    +0.000 A 
ATOM      4  C   UNL     1       3.661   4.429  17.056  0.00  0.00    +0.000 A 
ATOM      5  C   UNL     1       3.140   3.139  17.171  0.00  0.00    +0.000 A 
ATOM      6  C   UNL     1       2.257   2.825  18.208  0.00  0.00    +0.000 A 
ENDROOT
BRANCH   1   7
ATOM      7  C   UNL     1       0.970   3.475  20.294  0.00  0.00    +0.000 C 
BRANCH   7   9
ATOM      8  N   UNL     1       3.049   2.686  21.280  0.00  0.00    +0.000 N 
ATOM      9  C   UNL     1       1.698   2.803  21.437  0.00  0.00    +0.000 C 
ATOM     10  O   UNL     1       1.143   2.387  22.448  0.00  0.00    +0.000 OA
ATOM     11  H   UNL     1       3.543   2.162  21.990  0.00  0.00    +0.000 HD
ATOM     12  H   UNL     1       3.495   2.807  20.382  0.00  0.00    +0.000 HD
ENDBRANCH   7   9
ENDBRANCH   1   7
BRANCH   4  13
ATOM     13  O   UNL     1       4.587   4.612  16.062  0.00  0.00    +0.000 OA
BRANCH  13  14
ATOM     14  C   UNL     1       5.904   4.149  16.383  0.00  0.00    +0.000 C 
BRANCH  14  15
ATOM     15  C   UNL     1       6.666   5.166  17.197  0.00  0.00    +0.000 A 
ATOM     16  C   UNL     1       7.287   4.830  18.407  0.00  0.00    +0.000 A 
ATOM     17  C   UNL     1       7.999   5.793  19.126  0.00  0.00    +0.000 A 
ATOM     18  C   UNL     1       8.105   7.095  18.639  0.00  0.00    +0.000 A 
ATOM     19  C   UNL     1       7.513   7.433  17.424  0.00  0.00    +0.000 A 
ATOM     20  C   UNL     1       6.804   6.473  16.706  0.00  0.00    +0.000 A 
ENDBRANCH  14  15
ENDBRANCH  13  14
ENDBRANCH   4  13
TORSDOF 5
ENDMDL
MODEL 7
REMARK VINA RESULT:      -6.8      0.954      1.202
REMARK  Name = 
REMARK  5 active torsions:
REMARK  status: ('A' for Active; 'I' for Inactive)
REMARK    1  A    between atoms: C_2  and  C_4
REMARK    2  A    between atoms: C_4  and  C_5
REMARK    3  A    between atoms: C_8  and  O_9
REMARK    4  A    between atoms: O_9  and  C_10
REMARK    5  A    between atoms: C_10  and  C_11
REMARK                            x       y       z     vdW  Elec       q    Type
REMARK                         _______ _______ _______ _____ _____    ______ ____
ROOT
ATOM      1  C   UNL     1       5.989   4.440  14.509  0.00  0.00    +0.000 A 
ATOM      2  C   UNL     1       5.657   3.496  15.488  0.00  0.00    +0.000 A 
ATOM      3  C   UNL     1       5.078   3.897  16.692  0.00  0.00    +0.000 A 
ATOM      4  C   UNL     1       4.838   5.249  16.942  0.00  0.00    +0.000 A 
ATOM      5  C   UNL     1       5.102   6.187  15.943  0.00  0.00    +0.000 A 
ATOM      6  C   UNL     1       5.678   5.787  14.734  0.00  0.00    +0.000 A 
ENDROOT
BRANCH   1   7
ATOM      7  C   UNL     1       6.656   3.993  13.233  0.00  0.00    +0.000 C 
BRANCH   7   9
ATOM      8  N   UNL     1       6.217   2.034  11.859  0.00  0.00    +0.000 N 
ATOM      9  C   UNL     1       5.723   3.217  12.329  0.00  0.00    +0.000 C 
ATOM     10  O   UNL     1       4.598   3.596  12.025  0.00  0.00    +0.000 OA
ATOM     11  H   UNL     1       5.647   1.543  11.183  0.00  0.00    +0.000 HD
ATOM     12  H   UNL     1       7.201   1.811  11.903  0.00  0.00    +0.000 HD
ENDBRANCH   7   9
ENDBRANCH   1   7
BRANCH   4  13
ATOM     13  O   UNL     1       4.358   5.753  18.123  0.00  0.00    +0.000 OA
BRANCH  13  14
ATOM     14  C   UNL     1       4.663   4.959  19.276  0.00  0.00    +0.000 C 
BRANCH  14  15
ATOM     15  C   UNL     1       3.427   4.303  19.841  0.00  0.00    +0.000 A 
ATOM     16  C   UNL     1       3.457   3.012  20.385  0.00  0.00    +0.000 A 
ATOM     17  C   UNL     1       2.297   2.443  20.914  0.00  0.00    +0.000 A 
ATOM     18  C   UNL     1       1.101   3.160  20.917  0.00  0.00    +0.000 A 
ATOM     19  C   UNL     1       1.067   4.454  20.401  0.00  0.00    +0.000 A 
ATOM     20  C   UNL     1       2.223   5.023  19.874  0.00  0.00    +0.000 A 
ENDBRANCH  14  15
ENDBRANCH  13  14
ENDBRANCH   4  13
TORSDOF 5
ENDMDL
MODEL 8
REMARK VINA RESULT:      -6.8      0.945      1.664
REMARK  Name = 
REMARK  5 active torsions:
REMARK  status: ('A' for Active; 'I' for Inactive)
REMARK    1  A    between atoms: C_2  and  C_4
REMARK    2  A    between atoms: C_4  and  C_5
REMARK    3  A    between atoms: C_8  and  O_9
REMARK    4  A    between atoms: O_9  and  C_10
REMARK    5  A    between atoms: C_10  and  C_11
REMARK                            x       y       z     vdW  Elec       q    Type
REMARK                         _______ _______ _______ _____ _____    ______ ____
ROOT
ATOM      1  C   UNL     1       6.023   4.456  14.495  0.00  0.00    +0.000 A 
ATOM      2  C   UNL     1       5.766   5.800  14.790  0.00  0.00    +0.000 A 
ATOM      3  C   UNL     1       5.111   6.153  15.970  0.00  0.00    +0.000 A 
ATOM      4  C   UNL     1       4.688   5.169  16.863  0.00  0.00    +0.000 A 
ATOM      5  C   UNL     1       5.003   3.833  16.609  0.00  0.00    +0.000 A 
ATOM      6  C   UNL     1       5.664   3.476  15.430  0.00  0.00    +0.000 A 
ENDROOT
BRANCH   1   7
ATOM      7  C   UNL     1       6.692   4.089  13.195  0.00  0.00    +0.000 C 
BRANCH   7   9
ATOM      8  N   UNL     1       6.393   2.137  11.775  0.00  0.00    +0.000 N 
ATOM      9  C   UNL     1       5.805   3.252  12.299  0.00  0.00    +0.000 C 
ATOM     10  O   UNL     1       4.637   3.527  12.046  0.00  0.00    +0.000 OA
ATOM     11  H   UNL     1       5.848   1.612  11.104  0.00  0.00    +0.000 HD
ATOM     12  H   UNL     1       7.395   2.010  11.778  0.00  0.00    +0.000 HD
ENDBRANCH   7   9
ENDBRANCH   1   7
BRANCH   4  13
ATOM     13  O   UNL     1       3.960   5.405  18.000  0.00  0.00    +0.000 OA
BRANCH  13  14
ATOM     14  C   UNL     1       2.657   4.810  18.006  0.00  0.00    +0.000 C 
BRANCH  14  15
ATOM     15  C   UNL     1       2.428   3.987  19.251  0.00  0.00    +0.000 A 
ATOM     16  C   UNL     1       3.477   3.332  19.909  0.00  0.00    +0.000 A 
ATOM     17  C   UNL     1       3.230   2.593  21.067  0.00  0.00    +0.000 A 
ATOM     18  C   UNL     1       1.938   2.510  21.585  0.00  0.00    +0.000 A 
ATOM     19  C   UNL     1       0.892   3.179  20.953  0.00  0.00    +0.000 A 
ATOM     20  C   UNL     1       1.138   3.918  19.798  0.00  0.00    +0.000 A 
ENDBRANCH  14  15
ENDBRANCH  13  14
ENDBRANCH   4  13
TORSDOF 5
ENDMDL
MODEL 9
REMARK VINA RESULT:      -6.7      3.609      6.574
REMARK  Name = 
REMARK  5 active torsions:
REMARK  status: ('A' for Active; 'I' for Inactive)
REMARK    1  A    between atoms: C_2  and  C_4
REMARK    2  A    between atoms: C_4  and  C_5
REMARK    3  A    between atoms: C_8  and  O_9
REMARK    4  A    between atoms: O_9  and  C_10
REMARK    5  A    between atoms: C_10  and  C_11
REMARK                            x       y       z     vdW  Elec       q    Type
REMARK                         _______ _______ _______ _____ _____    ______ ____
ROOT
ATOM      1  C   UNL     1       2.787   4.573  19.381  0.00  0.00    +0.000 A 
ATOM      2  C   UNL     1       3.456   3.402  19.004  0.00  0.00    +0.000 A 
ATOM      3  C   UNL     1       4.234   3.373  17.847  0.00  0.00    +0.000 A 
ATOM      4  C   UNL     1       4.341   4.506  17.041  0.00  0.00    +0.000 A 
ATOM      5  C   UNL     1       3.735   5.695  17.448  0.00  0.00    +0.000 A 
ATOM      6  C   UNL     1       2.958   5.730  18.610  0.00  0.00    +0.000 A 
ENDROOT
BRANCH   1   7
ATOM      7  C   UNL     1       1.914   4.574  20.610  0.00  0.00    +0.000 C 
BRANCH   7   9
ATOM      8  N   UNL     1       1.604   2.611  22.013  0.00  0.00    +0.000 N 
ATOM      9  C   UNL     1       1.248   3.237  20.853  0.00  0.00    +0.000 C 
ATOM     10  O   UNL     1       0.439   2.729  20.085  0.00  0.00    +0.000 OA
ATOM     11  H   UNL     1       1.240   1.677  22.153  0.00  0.00    +0.000 HD
ATOM     12  H   UNL     1       2.420   2.887  22.541  0.00  0.00    +0.000 HD
ENDBRANCH   7   9
ENDBRANCH   1   7
BRANCH   4  13
ATOM     13  O   UNL     1       5.005   4.554  15.843  0.00  0.00    +0.000 OA
BRANCH  13  14
ATOM     14  C   UNL     1       6.424   4.382  15.943  0.00  0.00    +0.000 C 
BRANCH  14  15
ATOM     15  C   UNL     1       7.029   5.326  16.953  0.00  0.00    +0.000 A 
ATOM     16  C   UNL     1       7.545   4.871  18.174  0.00  0.00    +0.000 A 
ATOM     17  C   UNL     1       8.112   5.771  19.079  0.00  0.00    +0.000 A 
ATOM     18  C   UNL     1       8.179   7.129  18.769  0.00  0.00    +0.000 A 
ATOM     19  C   UNL     1       7.692   7.588  17.546  0.00  0.00    +0.000 A 
ATOM     20  C   UNL     1       7.127   6.690  16.644  0.00  0.00    +0.000 A 
ENDBRANCH  14  15
ENDBRANCH  13  14
ENDBRANCH   4  13
TORSDOF 5
ENDMDL
