MODEL 1
REMARK VINA RESULT:      -8.0      0.000      0.000
REMARK  Name = 
REMARK  9 active torsions:
REMARK  status: ('A' for Active; 'I' for Inactive)
REMARK    1  A    between atoms: C_1  and  O_2
REMARK    2  A    between atoms: O_2  and  C_3
REMARK    3  A    between atoms: C_7  and  C_8
REMARK    4  A    between atoms: C_11  and  S_12
REMARK    5  A    between atoms: S_12  and  C_13
REMARK    6  A    between atoms: C_13  and  C_14
REMARK    7  A    between atoms: N_16  and  C_17
REMARK    8  A    between atoms: C_17  and  C_18
REMARK    9  A    between atoms: C_18  and  C_19
REMARK                            x       y       z     vdW  Elec       q    Type
REMARK                         _______ _______ _______ _____ _____    ______ ____
ROOT
ATOM      1  C   UNL     1       2.094   6.729  20.199  0.00  0.00    +0.000 A 
ATOM      2  C   UNL     1       1.365   5.649  20.745  0.00  0.00    +0.000 A 
ATOM      3  C   UNL     1       1.859   4.313  20.739  0.00  0.00    +0.000 A 
ATOM      4  C   UNL     1       3.091   4.035  20.212  0.00  0.00    +0.000 A 
ATOM      5  N   UNL     1       3.799   5.050  19.683  0.00  0.00    +0.000 NA
ATOM      6  N   UNL     1       3.294   6.407  19.675  0.00  0.00    +0.000 NA
ENDROOT
BRANCH   1  11
ATOM      7  C   UNL     1       0.496   9.774  21.934  0.00  0.00    +0.000 A 
ATOM      8  C   UNL     1       0.045  10.487  20.831  0.00  0.00    +0.000 A 
ATOM      9  C   UNL     1       0.475  10.130  19.556  0.00  0.00    +0.000 A 
ATOM     10  C   UNL     1       1.249   8.977  19.362  0.00  0.00    +0.000 A 
ATOM     11  C   UNL     1       1.696   8.190  20.440  0.00  0.00    +0.000 A 
ATOM     12  C   UNL     1       1.466   8.766  21.734  0.00  0.00    +0.000 A 
BRANCH   7  14
ATOM     13  C   UNL     1      -1.227  10.991  23.113  0.00  0.00    +0.000 C 
ATOM     14  O   UNL     1      -0.064  10.155  23.131  0.00  0.00    +0.000 OA
ENDBRANCH   7  14
ENDBRANCH   1  11
BRANCH   4  15
ATOM     15  S   UNL     1       3.635   2.340  20.124  0.00  0.00    +0.000 S 
BRANCH  15  16
ATOM     16  C   UNL     1       3.027   1.777  18.501  0.00  0.00    +0.000 C 
BRANCH  16  17
ATOM     17  C   UNL     1       3.341   2.798  17.425  0.00  0.00    +0.000 C 
ATOM     18  O   UNL     1       2.454   3.346  16.768  0.00  0.00    +0.000 OA
ATOM     19  N   UNL     1       4.675   3.083  17.238  0.00  0.00    +0.000 N 
ATOM     20  H   UNL     1       5.345   2.382  17.547  0.00  0.00    +0.000 HD
BRANCH  19  21
ATOM     21  C   UNL     1       5.021   3.955  16.117  0.00  0.00    +0.000 C 
BRANCH  21  22
ATOM     22  C   UNL     1       6.508   4.219  15.929  0.00  0.00    +0.000 C 
BRANCH  22  23
ATOM     23  C   UNL     1       6.932   5.284  16.889  0.00  0.00    +0.000 A 
ATOM     24  C   UNL     1       7.043   6.640  16.560  0.00  0.00    +0.000 A 
ATOM     25  C   UNL     1       7.594   7.555  17.456  0.00  0.00    +0.000 A 
ATOM     26  C   UNL     1       8.054   7.084  18.668  0.00  0.00    +0.000 A 
ATOM     27  C   UNL     1       7.998   5.723  18.938  0.00  0.00    +0.000 A 
ATOM     28  C   UNL     1       7.386   4.830  18.100  0.00  0.00    +0.000 A 
ENDBRANCH  22  23
ENDBRANCH  21  22
ENDBRANCH  19  21
ENDBRANCH  16  17
ENDBRANCH  15  16
ENDBRANCH   4  15
TORSDOF 8
ENDMDL
MODEL 2
REMARK VINA RESULT:      -7.8      2.215      4.401
REMARK  Name = 
REMARK  9 active torsions:
REMARK  status: ('A' for Active; 'I' for Inactive)
REMARK    1  A    between atoms: C_1  and  O_2
REMARK    2  A    between atoms: O_2  and  C_3
REMARK    3  A    between atoms: C_7  and  C_8
REMARK    4  A    between atoms: C_11  and  S_12
REMARK    5  A    between atoms: S_12  and  C_13
REMARK    6  A    between atoms: C_13  and  C_14
REMARK    7  A    between atoms: N_16  and  C_17
REMARK    8  A    between atoms: C_17  and  C_18
REMARK    9  A    between atoms: C_18  and  C_19
REMARK                            x       y       z     vdW  Elec       q    Type
REMARK                         _______ _______ _______ _____ _____    ______ ____
ROOT
ATOM      1  C   UNL     1       3.341   6.885  18.716  0.00  0.00    +0.000 A 
ATOM      2  C   UNL     1       3.953   5.928  19.556  0.00  0.00    +0.000 A 
ATOM      3  C   UNL     1       5.219   5.347  19.257  0.00  0.00    +0.000 A 
ATOM      4  C   UNL     1       5.903   5.724  18.134  0.00  0.00    +0.000 A 
ATOM      5  N   UNL     1       5.335   6.632  17.318  0.00  0.00    +0.000 NA
ATOM      6  N   UNL     1       4.043   7.214  17.612  0.00  0.00    +0.000 NA
ENDROOT
BRANCH   1  11
ATOM      7  C   UNL     1       1.021   9.933  19.122  0.00  0.00    +0.000 A 
ATOM      8  C   UNL     1       0.593   9.753  20.430  0.00  0.00    +0.000 A 
ATOM      9  C   UNL     1       0.835   8.544  21.076  0.00  0.00    +0.000 A 
ATOM     10  C   UNL     1       1.624   7.557  20.467  0.00  0.00    +0.000 A 
ATOM     11  C   UNL     1       2.124   7.705  19.160  0.00  0.00    +0.000 A 
ATOM     12  C   UNL     1       1.603   8.836  18.447  0.00  0.00    +0.000 A 
BRANCH   7  14
ATOM     13  C   UNL     1      -0.072  12.079  19.320  0.00  0.00    +0.000 C 
ATOM     14  O   UNL     1       0.809  11.194  18.618  0.00  0.00    +0.000 OA
ENDBRANCH   7  14
ENDBRANCH   1  11
BRANCH   4  15
ATOM     15  S   UNL     1       7.433   4.902  17.733  0.00  0.00    +0.000 S 
BRANCH  15  16
ATOM     16  C   UNL     1       7.144   4.246  16.057  0.00  0.00    +0.000 C 
BRANCH  16  17
ATOM     17  C   UNL     1       5.671   3.965  15.837  0.00  0.00    +0.000 C 
ATOM     18  O   UNL     1       5.092   4.298  14.801  0.00  0.00    +0.000 OA
ATOM     19  N   UNL     1       5.026   3.305  16.859  0.00  0.00    +0.000 N 
ATOM     20  H   UNL     1       5.445   3.365  17.785  0.00  0.00    +0.000 HD
BRANCH  19  21
ATOM     21  C   UNL     1       3.578   3.144  16.740  0.00  0.00    +0.000 C 
BRANCH  21  22
ATOM     22  C   UNL     1       2.968   2.054  17.610  0.00  0.00    +0.000 C 
BRANCH  22  23
ATOM     23  C   UNL     1       2.554   2.657  18.915  0.00  0.00    +0.000 A 
ATOM     24  C   UNL     1       3.143   2.348  20.146  0.00  0.00    +0.000 A 
ATOM     25  C   UNL     1       2.605   2.826  21.341  0.00  0.00    +0.000 A 
ATOM     26  C   UNL     1       1.459   3.590  21.280  0.00  0.00    +0.000 A 
ATOM     27  C   UNL     1       0.856   3.820  20.050  0.00  0.00    +0.000 A 
ATOM     28  C   UNL     1       1.419   3.424  18.867  0.00  0.00    +0.000 A 
ENDBRANCH  22  23
ENDBRANCH  21  22
ENDBRANCH  19  21
ENDBRANCH  16  17
ENDBRANCH  15  16
ENDBRANCH   4  15
TORSDOF 8
ENDMDL
MODEL 3
REMARK VINA RESULT:      -7.5      3.458      4.770
REMARK  Name = 
REMARK  9 active torsions:
REMARK  status: ('A' for Active; 'I' for Inactive)
REMARK    1  A    between atoms: C_1  and  O_2
REMARK    2  A    between atoms: O_2  and  C_3
REMARK    3  A    between atoms: C_7  and  C_8
REMARK    4  A    between atoms: C_11  and  S_12
REMARK    5  A    between atoms: S_12  and  C_13
REMARK    6  A    between atoms: C_13  and  C_14
REMARK    7  A    between atoms: N_16  and  C_17
REMARK    8  A    between atoms: C_17  and  C_18
REMARK    9  A    between atoms: C_18  and  C_19
REMARK                            x       y       z     vdW  Elec       q    Type
REMARK                         _______ _______ _______ _____ _____    ______ ____
ROOT
ATOM      1  C   UNL     1       2.328   7.342  19.173  0.00  0.00    +0.000 A 
ATOM      2  C   UNL     1       2.756   6.167  19.831  0.00  0.00    +0.000 A 
ATOM      3  C   UNL     1       3.814   5.353  19.330  0.00  0.00    +0.000 A 
ATOM      4  C   UNL     1       4.473   5.706  18.185  0.00  0.00    +0.000 A 
ATOM      5  N   UNL     1       4.077   6.820  17.541  0.00  0.00    +0.000 NA
ATOM      6  N   UNL     1       2.995   7.642  18.039  0.00  0.00    +0.000 NA
ENDROOT
BRANCH   1  11
ATOM      7  C   UNL     1       0.788  10.756  20.070  0.00  0.00    +0.000 A 
ATOM      8  C   UNL     1       0.524  10.568  21.420  0.00  0.00    +0.000 A 
ATOM      9  C   UNL     1       0.595   9.290  21.967  0.00  0.00    +0.000 A 
ATOM     10  C   UNL     1       1.062   8.212  21.199  0.00  0.00    +0.000 A 
ATOM     11  C   UNL     1       1.388   8.355  19.838  0.00  0.00    +0.000 A 
ATOM     12  C   UNL     1       1.022   9.618  19.265  0.00  0.00    +0.000 A 
BRANCH   7  14
ATOM     13  C   UNL     1       1.664  12.470  18.609  0.00  0.00    +0.000 C 
ATOM     14  O   UNL     1       0.778  12.069  19.661  0.00  0.00    +0.000 OA
ENDBRANCH   7  14
ENDBRANCH   1  11
BRANCH   4  15
ATOM     15  S   UNL     1       5.718   4.613  17.528  0.00  0.00    +0.000 S 
BRANCH  15  16
ATOM     16  C   UNL     1       6.866   5.735  16.665  0.00  0.00    +0.000 C 
BRANCH  16  17
ATOM     17  C   UNL     1       7.555   6.659  17.649  0.00  0.00    +0.000 C 
ATOM     18  O   UNL     1       7.954   6.263  18.746  0.00  0.00    +0.000 OA
ATOM     19  N   UNL     1       7.718   7.963  17.236  0.00  0.00    +0.000 N 
ATOM     20  H   UNL     1       7.090   8.299  16.508  0.00  0.00    +0.000 HD
BRANCH  19  21
ATOM     21  C   UNL     1       8.249   8.911  18.213  0.00  0.00    +0.000 C 
BRANCH  21  22
ATOM     22  C   UNL     1       8.651  10.269  17.654  0.00  0.00    +0.000 C 
BRANCH  22  23
ATOM     23  C   UNL     1       9.578  10.931  18.622  0.00  0.00    +0.000 A 
ATOM     24  C   UNL     1       9.443  10.862  20.013  0.00  0.00    +0.000 A 
ATOM     25  C   UNL     1      10.248  11.630  20.853  0.00  0.00    +0.000 A 
ATOM     26  C   UNL     1      11.164  12.485  20.277  0.00  0.00    +0.000 A 
ATOM     27  C   UNL     1      11.225  12.586  18.893  0.00  0.00    +0.000 A 
ATOM     28  C   UNL     1      10.498  11.778  18.061  0.00  0.00    +0.000 A 
ENDBRANCH  22  23
ENDBRANCH  21  22
ENDBRANCH  19  21
ENDBRANCH  16  17
ENDBRANCH  15  16
ENDBRANCH   4  15
TORSDOF 8
ENDMDL
MODEL 4
REMARK VINA RESULT:      -7.5      1.555      2.640
REMARK  Name = 
REMARK  9 active torsions:
REMARK  status: ('A' for Active; 'I' for Inactive)
REMARK    1  A    between atoms: C_1  and  O_2
REMARK    2  A    between atoms: O_2  and  C_3
REMARK    3  A    between atoms: C_7  and  C_8
REMARK    4  A    between atoms: C_11  and  S_12
REMARK    5  A    between atoms: S_12  and  C_13
REMARK    6  A    between atoms: C_13  and  C_14
REMARK    7  A    between atoms: N_16  and  C_17
REMARK    8  A    between atoms: C_17  and  C_18
REMARK    9  A    between atoms: C_18  and  C_19
REMARK                            x       y       z     vdW  Elec       q    Type
REMARK                         _______ _______ _______ _____ _____    ______ ____
ROOT
ATOM      1  C   UNL     1       1.996   6.973  20.113  0.00  0.00    +0.000 A 
ATOM      2  C   UNL     1       1.398   5.950  20.883  0.00  0.00    +0.000 A 
ATOM      3  C   UNL     1       1.932   4.630  20.946  0.00  0.00    +0.000 A 
ATOM      4  C   UNL     1       3.076   4.316  20.266  0.00  0.00    +0.000 A 
ATOM      5  N   UNL     1       3.659   5.275  19.523  0.00  0.00    +0.000 NA
ATOM      6  N   UNL     1       3.112   6.613  19.446  0.00  0.00    +0.000 NA
ENDROOT
BRANCH   1  11
ATOM      7  C   UNL     1       0.514  10.152  21.704  0.00  0.00    +0.000 A 
ATOM      8  C   UNL     1      -0.067  10.745  20.591  0.00  0.00    +0.000 A 
ATOM      9  C   UNL     1       0.237  10.270  19.318  0.00  0.00    +0.000 A 
ATOM     10  C   UNL     1       1.015   9.114  19.156  0.00  0.00    +0.000 A 
ATOM     11  C   UNL     1       1.590   8.445  20.252  0.00  0.00    +0.000 A 
ATOM     12  C   UNL     1       1.482   9.143  21.501  0.00  0.00    +0.000 A 
BRANCH   7  14
ATOM     13  C   UNL     1      -1.337  10.674  23.167  0.00  0.00    +0.000 C 
ATOM     14  O   UNL     1       0.072  10.642  22.911  0.00  0.00    +0.000 OA
ENDBRANCH   7  14
ENDBRANCH   1  11
BRANCH   4  15
ATOM     15  S   UNL     1       3.658   2.631  20.280  0.00  0.00    +0.000 S 
BRANCH  15  16
ATOM     16  C   UNL     1       2.953   1.918  18.758  0.00  0.00    +0.000 C 
BRANCH  16  17
ATOM     17  C   UNL     1       3.124   2.870  17.589  0.00  0.00    +0.000 C 
ATOM     18  O   UNL     1       2.160   3.304  16.957  0.00  0.00    +0.000 OA
ATOM     19  N   UNL     1       4.420   3.226  17.289  0.00  0.00    +0.000 N 
ATOM     20  H   UNL     1       5.156   2.597  17.603  0.00  0.00    +0.000 HD
BRANCH  19  21
ATOM     21  C   UNL     1       4.630   4.027  16.085  0.00  0.00    +0.000 C 
BRANCH  21  22
ATOM     22  C   UNL     1       6.053   4.520  15.869  0.00  0.00    +0.000 C 
BRANCH  22  23
ATOM     23  C   UNL     1       6.359   4.475  14.405  0.00  0.00    +0.000 A 
ATOM     24  C   UNL     1       5.777   3.572  13.508  0.00  0.00    +0.000 A 
ATOM     25  C   UNL     1       6.223   3.480  12.190  0.00  0.00    +0.000 A 
ATOM     26  C   UNL     1       7.273   4.284  11.799  0.00  0.00    +0.000 A 
ATOM     27  C   UNL     1       7.879   5.118  12.731  0.00  0.00    +0.000 A 
ATOM     28  C   UNL     1       7.397   5.274  14.003  0.00  0.00    +0.000 A 
ENDBRANCH  22  23
ENDBRANCH  21  22
ENDBRANCH  19  21
ENDBRANCH  16  17
ENDBRANCH  15  16
ENDBRANCH   4  15
TORSDOF 8
ENDMDL
MODEL 5
REMARK VINA RESULT:      -7.5      1.049      1.542
REMARK  Name = 
REMARK  9 active torsions:
REMARK  status: ('A' for Active; 'I' for Inactive)
REMARK    1  A    between atoms: C_1  and  O_2
REMARK    2  A    between atoms: O_2  and  C_3
REMARK    3  A    between atoms: C_7  and  C_8
REMARK    4  A    between atoms: C_11  and  S_12
REMARK    5  A    between atoms: S_12  and  C_13
REMARK    6  A    between atoms: C_13  and  C_14
REMARK    7  A    between atoms: N_16  and  C_17
REMARK    8  A    between atoms: C_17  and  C_18
REMARK    9  A    between atoms: C_18  and  C_19
REMARK                            x       y       z     vdW  Elec       q    Type
REMARK                         _______ _______ _______ _____ _____    ______ ____
ROOT
ATOM      1  C   UNL     1       2.134   7.158  20.041  0.00  0.00    +0.000 A 
ATOM      2  C   UNL     1       3.274   6.677  19.360  0.00  0.00    +0.000 A 
ATOM      3  C   UNL     1       3.676   5.311  19.414  0.00  0.00    +0.000 A 
ATOM      4  C   UNL     1       2.941   4.402  20.124  0.00  0.00    +0.000 A 
ATOM      5  N   UNL     1       1.853   4.842  20.784  0.00  0.00    +0.000 NA
ATOM      6  N   UNL     1       1.449   6.231  20.743  0.00  0.00    +0.000 NA
ENDROOT
BRANCH   1  11
ATOM      7  C   UNL     1      -0.097  10.263  20.510  0.00  0.00    +0.000 A 
ATOM      8  C   UNL     1      -0.374  10.578  19.187  0.00  0.00    +0.000 A 
ATOM      9  C   UNL     1       0.351   9.969  18.165  0.00  0.00    +0.000 A 
ATOM     10  C   UNL     1       1.262   8.942  18.453  0.00  0.00    +0.000 A 
ATOM     11  C   UNL     1       1.548   8.549  19.774  0.00  0.00    +0.000 A 
ATOM     12  C   UNL     1       0.991   9.403  20.784  0.00  0.00    +0.000 A 
BRANCH   7  14
ATOM     13  C   UNL     1      -0.515  12.069  22.059  0.00  0.00    +0.000 C 
ATOM     14  O   UNL     1      -0.934  10.853  21.427  0.00  0.00    +0.000 OA
ENDBRANCH   7  14
ENDBRANCH   1  11
BRANCH   4  15
ATOM     15  S   UNL     1       3.529   2.725  20.258  0.00  0.00    +0.000 S 
BRANCH  15  16
ATOM     16  C   UNL     1       2.922   1.932  18.734  0.00  0.00    +0.000 C 
BRANCH  16  17
ATOM     17  C   UNL     1       3.209   2.801  17.525  0.00  0.00    +0.000 C 
ATOM     18  O   UNL     1       2.306   3.241  16.811  0.00  0.00    +0.000 OA
ATOM     19  N   UNL     1       4.537   3.077  17.284  0.00  0.00    +0.000 N 
ATOM     20  H   UNL     1       5.221   2.434  17.677  0.00  0.00    +0.000 HD
BRANCH  19  21
ATOM     21  C   UNL     1       4.857   3.792  16.051  0.00  0.00    +0.000 C 
BRANCH  21  22
ATOM     22  C   UNL     1       6.340   3.915  15.733  0.00  0.00    +0.000 C 
BRANCH  22  23
ATOM     23  C   UNL     1       6.950   4.909  16.669  0.00  0.00    +0.000 A 
ATOM     24  C   UNL     1       7.625   4.568  17.846  0.00  0.00    +0.000 A 
ATOM     25  C   UNL     1       8.031   5.548  18.752  0.00  0.00    +0.000 A 
ATOM     26  C   UNL     1       7.726   6.863  18.470  0.00  0.00    +0.000 A 
ATOM     27  C   UNL     1       6.991   7.165  17.330  0.00  0.00    +0.000 A 
ATOM     28  C   UNL     1       6.659   6.221  16.396  0.00  0.00    +0.000 A 
ENDBRANCH  22  23
ENDBRANCH  21  22
ENDBRANCH  19  21
ENDBRANCH  16  17
ENDBRANCH  15  16
ENDBRANCH   4  15
TORSDOF 8
ENDMDL
MODEL 6
REMARK VINA RESULT:      -7.5      0.715      1.208
REMARK  Name = 
REMARK  9 active torsions:
REMARK  status: ('A' for Active; 'I' for Inactive)
REMARK    1  A    between atoms: C_1  and  O_2
REMARK    2  A    between atoms: O_2  and  C_3
REMARK    3  A    between atoms: C_7  and  C_8
REMARK    4  A    between atoms: C_11  and  S_12
REMARK    5  A    between atoms: S_12  and  C_13
REMARK    6  A    between atoms: C_13  and  C_14
REMARK    7  A    between atoms: N_16  and  C_17
REMARK    8  A    between atoms: C_17  and  C_18
REMARK    9  A    between atoms: C_18  and  C_19
REMARK                            x       y       z     vdW  Elec       q    Type
REMARK                         _______ _______ _______ _____ _____    ______ ____
ROOT
ATOM      1  C   UNL     1       2.012   7.041  19.906  0.00  0.00    +0.000 A 
ATOM      2  C   UNL     1       1.179   6.048  20.466  0.00  0.00    +0.000 A 
ATOM      3  C   UNL     1       1.615   4.705  20.660  0.00  0.00    +0.000 A 
ATOM      4  C   UNL     1       2.889   4.338  20.322  0.00  0.00    +0.000 A 
ATOM      5  N   UNL     1       3.697   5.269  19.782  0.00  0.00    +0.000 NA
ATOM      6  N   UNL     1       3.253   6.630  19.571  0.00  0.00    +0.000 NA
ENDROOT
BRANCH   1  11
ATOM      7  C   UNL     1       0.232  10.275  21.007  0.00  0.00    +0.000 A 
ATOM      8  C   UNL     1       0.076  10.908  19.782  0.00  0.00    +0.000 A 
ATOM      9  C   UNL     1       0.759  10.431  18.666  0.00  0.00    +0.000 A 
ATOM     10  C   UNL     1       1.495   9.239  18.737  0.00  0.00    +0.000 A 
ATOM     11  C   UNL     1       1.648   8.530  19.943  0.00  0.00    +0.000 A 
ATOM     12  C   UNL     1       1.167   9.220  21.106  0.00  0.00    +0.000 A 
BRANCH   7  14
ATOM     13  C   UNL     1      -0.734   9.993  23.204  0.00  0.00    +0.000 C 
ATOM     14  O   UNL     1      -0.559  10.773  22.015  0.00  0.00    +0.000 OA
ENDBRANCH   7  14
ENDBRANCH   1  11
BRANCH   4  15
ATOM     15  S   UNL     1       3.369   2.628  20.478  0.00  0.00    +0.000 S 
BRANCH  15  16
ATOM     16  C   UNL     1       2.820   1.881  18.909  0.00  0.00    +0.000 C 
BRANCH  16  17
ATOM     17  C   UNL     1       3.211   2.753  17.733  0.00  0.00    +0.000 C 
ATOM     18  O   UNL     1       2.384   3.141  16.906  0.00  0.00    +0.000 OA
ATOM     19  N   UNL     1       4.543   3.094  17.654  0.00  0.00    +0.000 N 
ATOM     20  H   UNL     1       5.204   2.490  18.138  0.00  0.00    +0.000 HD
BRANCH  19  21
ATOM     21  C   UNL     1       4.979   3.814  16.459  0.00  0.00    +0.000 C 
BRANCH  21  22
ATOM     22  C   UNL     1       4.898   5.331  16.545  0.00  0.00    +0.000 C 
BRANCH  22  23
ATOM     23  C   UNL     1       6.136   5.840  17.212  0.00  0.00    +0.000 A 
ATOM     24  C   UNL     1       6.803   5.174  18.246  0.00  0.00    +0.000 A 
ATOM     25  C   UNL     1       7.858   5.779  18.929  0.00  0.00    +0.000 A 
ATOM     26  C   UNL     1       8.210   7.065  18.577  0.00  0.00    +0.000 A 
ATOM     27  C   UNL     1       7.483   7.728  17.596  0.00  0.00    +0.000 A 
ATOM     28  C   UNL     1       6.501   7.116  16.866  0.00  0.00    +0.000 A 
ENDBRANCH  22  23
ENDBRANCH  21  22
ENDBRANCH  19  21
ENDBRANCH  16  17
ENDBRANCH  15  16
ENDBRANCH   4  15
TORSDOF 8
ENDMDL
MODEL 7
REMARK VINA RESULT:      -7.4      4.099      8.011
REMARK  Name = 
REMARK  9 active torsions:
REMARK  status: ('A' for Active; 'I' for Inactive)
REMARK    1  A    between atoms: C_1  and  O_2
REMARK    2  A    between atoms: O_2  and  C_3
REMARK    3  A    between atoms: C_7  and  C_8
REMARK    4  A    between atoms: C_11  and  S_12
REMARK    5  A    between atoms: S_12  and  C_13
REMARK    6  A    between atoms: C_13  and  C_14
REMARK    7  A    between atoms: N_16  and  C_17
REMARK    8  A    between atoms: C_17  and  C_18
REMARK    9  A    between atoms: C_18  and  C_19
REMARK                            x       y       z     vdW  Elec       q    Type
REMARK                         _______ _______ _______ _____ _____    ______ ____
ROOT
ATOM      1  C   UNL     1       8.194   8.794  18.361  0.00  0.00    +0.000 A 
ATOM      2  C   UNL     1       8.481   7.606  19.070  0.00  0.00    +0.000 A 
ATOM      3  C   UNL     1       8.068   6.323  18.609  0.00  0.00    +0.000 A 
ATOM      4  C   UNL     1       7.386   6.200  17.429  0.00  0.00    +0.000 A 
ATOM      5  N   UNL     1       7.098   7.320  16.741  0.00  0.00    +0.000 NA
ATOM      6  N   UNL     1       7.505   8.627  17.213  0.00  0.00    +0.000 NA
ENDROOT
BRANCH   1  11
ATOM      7  C   UNL     1      10.418  11.910  17.935  0.00  0.00    +0.000 A 
ATOM      8  C   UNL     1      10.912  12.047  19.225  0.00  0.00    +0.000 A 
ATOM      9  C   UNL     1      10.340  11.318  20.265  0.00  0.00    +0.000 A 
ATOM     10  C   UNL     1       9.363  10.347  20.000  0.00  0.00    +0.000 A 
ATOM     11  C   UNL     1       8.859  10.132  18.704  0.00  0.00    +0.000 A 
ATOM     12  C   UNL     1       9.274  11.105  17.734  0.00  0.00    +0.000 A 
BRANCH   7  14
ATOM     13  C   UNL     1      12.297  13.318  17.366  0.00  0.00    +0.000 C 
ATOM     14  O   UNL     1      11.116  12.606  16.977  0.00  0.00    +0.000 OA
ENDBRANCH   7  14
ENDBRANCH   1  11
BRANCH   4  15
ATOM     15  S   UNL     1       6.791   4.594  16.934  0.00  0.00    +0.000 S 
BRANCH  15  16
ATOM     16  C   UNL     1       5.071   4.910  16.422  0.00  0.00    +0.000 C 
BRANCH  16  17
ATOM     17  C   UNL     1       4.261   5.471  17.575  0.00  0.00    +0.000 C 
ATOM     18  O   UNL     1       4.093   4.840  18.620  0.00  0.00    +0.000 OA
ATOM     19  N   UNL     1       3.738   6.730  17.384  0.00  0.00    +0.000 N 
ATOM     20  H   UNL     1       3.619   7.041  16.422  0.00  0.00    +0.000 HD
BRANCH  19  21
ATOM     21  C   UNL     1       2.837   7.242  18.415  0.00  0.00    +0.000 C 
BRANCH  21  22
ATOM     22  C   UNL     1       2.163   8.568  18.095  0.00  0.00    +0.000 C 
BRANCH  22  23
ATOM     23  C   UNL     1       1.397   9.020  19.298  0.00  0.00    +0.000 A 
ATOM     24  C   UNL     1       1.420   8.366  20.535  0.00  0.00    +0.000 A 
ATOM     25  C   UNL     1       0.562   8.749  21.566  0.00  0.00    +0.000 A 
ATOM     26  C   UNL     1      -0.331   9.771  21.325  0.00  0.00    +0.000 A 
ATOM     27  C   UNL     1      -0.381  10.352  20.064  0.00  0.00    +0.000 A 
ATOM     28  C   UNL     1       0.510  10.040  19.073  0.00  0.00    +0.000 A 
ENDBRANCH  22  23
ENDBRANCH  21  22
ENDBRANCH  19  21
ENDBRANCH  16  17
ENDBRANCH  15  16
ENDBRANCH   4  15
TORSDOF 8
ENDMDL
MODEL 8
REMARK VINA RESULT:      -7.4      2.271      4.704
REMARK  Name = 
REMARK  9 active torsions:
REMARK  status: ('A' for Active; 'I' for Inactive)
REMARK    1  A    between atoms: C_1  and  O_2
REMARK    2  A    between atoms: O_2  and  C_3
REMARK    3  A    between atoms: C_7  and  C_8
REMARK    4  A    between atoms: C_11  and  S_12
REMARK    5  A    between atoms: S_12  and  C_13
REMARK    6  A    between atoms: C_13  and  C_14
REMARK    7  A    between atoms: N_16  and  C_17
REMARK    8  A    between atoms: C_17  and  C_18
REMARK    9  A    between atoms: C_18  and  C_19
REMARK                            x       y       z     vdW  Elec       q    Type
REMARK                         _______ _______ _______ _____ _____    ______ ____
ROOT
ATOM      1  C   UNL     1       1.479   8.557  19.928  0.00  0.00    +0.000 A 
ATOM      2  C   UNL     1       1.828   8.977  18.625  0.00  0.00    +0.000 A 
ATOM      3  C   UNL     1       2.652   8.194  17.765  0.00  0.00    +0.000 A 
ATOM      4  C   UNL     1       3.121   6.977  18.179  0.00  0.00    +0.000 A 
ATOM      5  N   UNL     1       2.803   6.561  19.419  0.00  0.00    +0.000 NA
ATOM      6  N   UNL     1       1.977   7.360  20.299  0.00  0.00    +0.000 NA
ENDROOT
BRANCH   1  11
ATOM      7  C   UNL     1      -0.655  11.431  21.351  0.00  0.00    +0.000 A 
ATOM      8  C   UNL     1      -0.826  10.996  22.658  0.00  0.00    +0.000 A 
ATOM      9  C   UNL     1      -0.489   9.689  23.001  0.00  0.00    +0.000 A 
ATOM     10  C   UNL     1       0.147   8.851  22.074  0.00  0.00    +0.000 A 
ATOM     11  C   UNL     1       0.388   9.256  20.747  0.00  0.00    +0.000 A 
ATOM     12  C   UNL     1      -0.237  10.494  20.379  0.00  0.00    +0.000 A 
BRANCH   7  14
ATOM     13  C   UNL     1      -1.691  13.139  19.992  0.00  0.00    +0.000 C 
ATOM     14  O   UNL     1      -0.934  12.762  21.148  0.00  0.00    +0.000 OA
ENDBRANCH   7  14
ENDBRANCH   1  11
BRANCH   4  15
ATOM     15  S   UNL     1       4.235   6.072  17.122  0.00  0.00    +0.000 S 
BRANCH  15  16
ATOM     16  C   UNL     1       5.858   6.282  17.925  0.00  0.00    +0.000 C 
BRANCH  16  17
ATOM     17  C   UNL     1       6.056   5.247  19.015  0.00  0.00    +0.000 C 
ATOM     18  O   UNL     1       6.933   5.364  19.872  0.00  0.00    +0.000 OA
ATOM     19  N   UNL     1       5.187   4.178  18.994  0.00  0.00    +0.000 N 
ATOM     20  H   UNL     1       4.736   3.967  18.106  0.00  0.00    +0.000 HD
BRANCH  19  21
ATOM     21  C   UNL     1       5.439   3.095  19.942  0.00  0.00    +0.000 C 
BRANCH  21  22
ATOM     22  C   UNL     1       4.433   1.954  19.912  0.00  0.00    +0.000 C 
BRANCH  22  23
ATOM     23  C   UNL     1       3.054   2.531  19.866  0.00  0.00    +0.000 A 
ATOM     24  C   UNL     1       2.471   3.257  20.911  0.00  0.00    +0.000 A 
ATOM     25  C   UNL     1       1.128   3.629  20.866  0.00  0.00    +0.000 A 
ATOM     26  C   UNL     1       0.379   3.239  19.775  0.00  0.00    +0.000 A 
ATOM     27  C   UNL     1       0.966   2.457  18.789  0.00  0.00    +0.000 A 
ATOM     28  C   UNL     1       2.301   2.155  18.784  0.00  0.00    +0.000 A 
ENDBRANCH  22  23
ENDBRANCH  21  22
ENDBRANCH  19  21
ENDBRANCH  16  17
ENDBRANCH  15  16
ENDBRANCH   4  15
TORSDOF 8
ENDMDL
MODEL 9
REMARK VINA RESULT:      -7.3      3.640      4.958
REMARK  Name = 
REMARK  9 active torsions:
REMARK  status: ('A' for Active; 'I' for Inactive)
REMARK    1  A    between atoms: C_1  and  O_2
REMARK    2  A    between atoms: O_2  and  C_3
REMARK    3  A    between atoms: C_7  and  C_8
REMARK    4  A    between atoms: C_11  and  S_12
REMARK    5  A    between atoms: S_12  and  C_13
REMARK    6  A    between atoms: C_13  and  C_14
REMARK    7  A    between atoms: N_16  and  C_17
REMARK    8  A    between atoms: C_17  and  C_18
REMARK    9  A    between atoms: C_18  and  C_19
REMARK                            x       y       z     vdW  Elec       q    Type
REMARK                         _______ _______ _______ _____ _____    ______ ____
ROOT
ATOM      1  C   UNL     1       2.441   7.339  19.142  0.00  0.00    +0.000 A 
ATOM      2  C   UNL     1       2.952   6.215  19.828  0.00  0.00    +0.000 A 
ATOM      3  C   UNL     1       4.066   5.468  19.348  0.00  0.00    +0.000 A 
ATOM      4  C   UNL     1       4.700   5.840  18.194  0.00  0.00    +0.000 A 
ATOM      5  N   UNL     1       4.225   6.906  17.522  0.00  0.00    +0.000 NA
ATOM      6  N   UNL     1       3.085   7.659  18.001  0.00  0.00    +0.000 NA
ENDROOT
BRANCH   1  11
ATOM      7  C   UNL     1       0.687  10.661  19.994  0.00  0.00    +0.000 A 
ATOM      8  C   UNL     1       0.401  10.459  21.337  0.00  0.00    +0.000 A 
ATOM      9  C   UNL     1       0.531   9.186  21.888  0.00  0.00    +0.000 A 
ATOM     10  C   UNL     1       1.077   8.137  21.134  0.00  0.00    +0.000 A 
ATOM     11  C   UNL     1       1.429   8.297  19.781  0.00  0.00    +0.000 A 
ATOM     12  C   UNL     1       1.005   9.538  19.197  0.00  0.00    +0.000 A 
BRANCH   7  14
ATOM     13  C   UNL     1       0.960  13.006  20.510  0.00  0.00    +0.000 C 
ATOM     14  O   UNL     1       0.613  11.971  19.583  0.00  0.00    +0.000 OA
ENDBRANCH   7  14
ENDBRANCH   1  11
BRANCH   4  15
ATOM     15  S   UNL     1       6.022   4.824  17.564  0.00  0.00    +0.000 S 
BRANCH  15  16
ATOM     16  C   UNL     1       7.519   5.556  18.304  0.00  0.00    +0.000 C 
BRANCH  16  17
ATOM     17  C   UNL     1       7.726   6.973  17.805  0.00  0.00    +0.000 C 
ATOM     18  O   UNL     1       7.431   7.310  16.658  0.00  0.00    +0.000 OA
ATOM     19  N   UNL     1       8.254   7.859  18.718  0.00  0.00    +0.000 N 
ATOM     20  H   UNL     1       8.778   7.464  19.497  0.00  0.00    +0.000 HD
BRANCH  19  21
ATOM     21  C   UNL     1       8.598   9.193  18.231  0.00  0.00    +0.000 C 
BRANCH  21  22
ATOM     22  C   UNL     1       9.272  10.105  19.245  0.00  0.00    +0.000 C 
BRANCH  22  23
ATOM     23  C   UNL     1       9.667  11.375  18.561  0.00  0.00    +0.000 A 
ATOM     24  C   UNL     1      10.758  11.492  17.692  0.00  0.00    +0.000 A 
ATOM     25  C   UNL     1      11.165  12.737  17.212  0.00  0.00    +0.000 A 
ATOM     26  C   UNL     1      10.481  13.856  17.640  0.00  0.00    +0.000 A 
ATOM     27  C   UNL     1       9.449  13.716  18.559  0.00  0.00    +0.000 A 
ATOM     28  C   UNL     1       8.991  12.494  18.972  0.00  0.00    +0.000 A 
ENDBRANCH  22  23
ENDBRANCH  21  22
ENDBRANCH  19  21
ENDBRANCH  16  17
ENDBRANCH  15  16
ENDBRANCH   4  15
TORSDOF 8
ENDMDL
