MODEL 1
REMARK VINA RESULT:      -7.8      0.000      0.000
REMARK  Name = 
REMARK  10 active torsions:
REMARK  status: ('A' for Active; 'I' for Inactive)
REMARK    1  A    between atoms: C_1  and  C_2
REMARK    2  A    between atoms: C_2  and  C_3
REMARK    3  A    between atoms: C_3  and  C_4
REMARK    4  A    between atoms: C_4  and  O_5
REMARK    5  A    between atoms: O_5  and  C_6
REMARK    6  A    between atoms: C_9  and  C_10
REMARK    7  A    between atoms: N_12  and  N_13
REMARK    8  A    between atoms: C_22  and  C_23
REMARK    9  A    between atoms: C_26  and  O_27
REMARK   10  A    between atoms: O_27  and  C_28
REMARK                            x       y       z     vdW  Elec       q    Type
REMARK                         _______ _______ _______ _____ _____    ______ ____
ROOT
ATOM      1  N   UNL     1       0.392  11.015  19.634  0.00  0.00    +0.000 NA
ATOM      2  C   UNL     1       1.010  11.712  20.773  0.00  0.00    +0.000 C 
ATOM      3  C   UNL     1       0.378  13.049  21.048  0.00  0.00    +0.000 A 
ATOM      4  C   UNL     1       1.146  14.140  21.486  0.00  0.00    +0.000 A 
ATOM      5  C   UNL     1       0.514  15.311  21.896  0.00  0.00    +0.000 A 
ATOM      6  C   UNL     1      -0.876  15.382  21.907  0.00  0.00    +0.000 A 
ATOM      7  C   UNL     1      -1.637  14.297  21.469  0.00  0.00    +0.000 A 
ATOM      8  C   UNL     1      -1.017  13.130  21.023  0.00  0.00    +0.000 A 
ATOM      9  N   UNL     1      -1.777  12.117  20.458  0.00  0.00    +0.000 N 
ATOM     10  C   UNL     1      -1.085  11.010  19.799  0.00  0.00    +0.000 C 
ATOM     11  H   UNL     1      -2.605  11.853  20.974  0.00  0.00    +0.000 HD
ENDROOT
BRANCH  10  12
ATOM     12  C   UNL     1      -1.768  10.888  18.423  0.00  0.00    +0.000 A 
ATOM     13  C   UNL     1      -2.861  11.711  18.099  0.00  0.00    +0.000 A 
ATOM     14  C   UNL     1      -3.625  11.468  16.955  0.00  0.00    +0.000 A 
ATOM     15  C   UNL     1      -3.298  10.422  16.091  0.00  0.00    +0.000 A 
ATOM     16  C   UNL     1      -2.169   9.647  16.358  0.00  0.00    +0.000 A 
ATOM     17  C   UNL     1      -1.406   9.880  17.514  0.00  0.00    +0.000 A 
BRANCH  15  18
ATOM     18  O   UNL     1      -4.186  10.233  15.068  0.00  0.00    +0.000 OA
ATOM     19  C   UNL     1      -3.646  10.070  13.764  0.00  0.00    +0.000 C 
ENDBRANCH  15  18
ENDBRANCH  10  12
BRANCH   1  22
ATOM     20  C   UNL     1       1.849   9.433  18.435  0.00  0.00    +0.000 C 
ATOM     21  O   UNL     1       2.201  10.232  17.572  0.00  0.00    +0.000 OA
ATOM     22  N   UNL     1       0.954   9.709  19.463  0.00  0.00    +0.000 N 
ATOM     23  H   UNL     1       0.816   9.054  20.226  0.00  0.00    +0.000 HD
BRANCH  20  27
ATOM     24  C   UNL     1       3.513   5.505  18.604  0.00  0.00    +0.000 A 
ATOM     25  C   UNL     1       2.750   6.024  19.655  0.00  0.00    +0.000 A 
ATOM     26  C   UNL     1       2.234   7.310  19.577  0.00  0.00    +0.000 A 
ATOM     27  C   UNL     1       2.477   8.097  18.449  0.00  0.00    +0.000 A 
ATOM     28  C   UNL     1       3.280   7.609  17.414  0.00  0.00    +0.000 A 
ATOM     29  C   UNL     1       3.795   6.311  17.497  0.00  0.00    +0.000 A 
BRANCH  24  30
ATOM     30  O   UNL     1       4.022   4.230  18.569  0.00  0.00    +0.000 OA
BRANCH  30  31
ATOM     31  C   UNL     1       3.180   3.252  19.182  0.00  0.00    +0.000 C 
BRANCH  31  32
ATOM     32  C   UNL     1       2.240   2.629  18.163  0.00  0.00    +0.000 C 
BRANCH  32  34
ATOM     33  C   UNL     1       0.778   3.106  20.161  0.00  0.00    +0.000 C 
ATOM     34  C   UNL     1       0.867   2.437  18.805  0.00  0.00    +0.000 C 
ENDBRANCH  32  34
ENDBRANCH  31  32
ENDBRANCH  30  31
ENDBRANCH  24  30
ENDBRANCH  20  27
ENDBRANCH   1  22
TORSDOF 8
ENDMDL
MODEL 2
REMARK VINA RESULT:      -7.8      0.665      1.419
REMARK  Name = 
REMARK  10 active torsions:
REMARK  status: ('A' for Active; 'I' for Inactive)
REMARK    1  A    between atoms: C_1  and  C_2
REMARK    2  A    between atoms: C_2  and  C_3
REMARK    3  A    between atoms: C_3  and  C_4
REMARK    4  A    between atoms: C_4  and  O_5
REMARK    5  A    between atoms: O_5  and  C_6
REMARK    6  A    between atoms: C_9  and  C_10
REMARK    7  A    between atoms: N_12  and  N_13
REMARK    8  A    between atoms: C_22  and  C_23
REMARK    9  A    between atoms: C_26  and  O_27
REMARK   10  A    between atoms: O_27  and  C_28
REMARK                            x       y       z     vdW  Elec       q    Type
REMARK                         _______ _______ _______ _____ _____    ______ ____
ROOT
ATOM      1  N   UNL     1       0.322  11.224  19.259  0.00  0.00    +0.000 NA
ATOM      2  C   UNL     1       1.140  12.104  20.107  0.00  0.00    +0.000 C 
ATOM      3  C   UNL     1       0.579  13.496  20.213  0.00  0.00    +0.000 A 
ATOM      4  C   UNL     1       1.421  14.617  20.281  0.00  0.00    +0.000 A 
ATOM      5  C   UNL     1       0.883  15.872  20.550  0.00  0.00    +0.000 A 
ATOM      6  C   UNL     1      -0.481  16.005  20.790  0.00  0.00    +0.000 A 
ATOM      7  C   UNL     1      -1.318  14.890  20.719  0.00  0.00    +0.000 A 
ATOM      8  C   UNL     1      -0.797  13.631  20.417  0.00  0.00    +0.000 A 
ATOM      9  N   UNL     1      -1.654  12.562  20.209  0.00  0.00    +0.000 N 
ATOM     10  C   UNL     1      -1.101  11.317  19.677  0.00  0.00    +0.000 C 
ATOM     11  H   UNL     1      -2.378  12.440  20.905  0.00  0.00    +0.000 HD
ENDROOT
BRANCH  10  12
ATOM     12  C   UNL     1      -2.023  10.956  18.495  0.00  0.00    +0.000 A 
ATOM     13  C   UNL     1      -1.595  10.041  17.517  0.00  0.00    +0.000 A 
ATOM     14  C   UNL     1      -2.319   9.868  16.335  0.00  0.00    +0.000 A 
ATOM     15  C   UNL     1      -3.500  10.577  16.114  0.00  0.00    +0.000 A 
ATOM     16  C   UNL     1      -3.978  11.429  17.110  0.00  0.00    +0.000 A 
ATOM     17  C   UNL     1      -3.247  11.615  18.295  0.00  0.00    +0.000 A 
BRANCH  15  18
ATOM     18  O   UNL     1      -4.051  10.391  14.877  0.00  0.00    +0.000 OA
ATOM     19  C   UNL     1      -3.185   9.943  13.843  0.00  0.00    +0.000 C 
ENDBRANCH  15  18
ENDBRANCH  10  12
BRANCH   1  22
ATOM     20  C   UNL     1       1.802   9.480  18.348  0.00  0.00    +0.000 C 
ATOM     21  O   UNL     1       2.268  10.180  17.453  0.00  0.00    +0.000 OA
ATOM     22  N   UNL     1       0.833   9.887  19.259  0.00  0.00    +0.000 N 
ATOM     23  H   UNL     1       0.596   9.313  20.062  0.00  0.00    +0.000 HD
BRANCH  20  27
ATOM     24  C   UNL     1       3.585   5.626  18.787  0.00  0.00    +0.000 A 
ATOM     25  C   UNL     1       3.844   6.431  17.674  0.00  0.00    +0.000 A 
ATOM     26  C   UNL     1       3.238   7.674  17.552  0.00  0.00    +0.000 A 
ATOM     27  C   UNL     1       2.362   8.128  18.541  0.00  0.00    +0.000 A 
ATOM     28  C   UNL     1       2.055   7.312  19.634  0.00  0.00    +0.000 A 
ATOM     29  C   UNL     1       2.672   6.061  19.752  0.00  0.00    +0.000 A 
BRANCH  24  30
ATOM     30  O   UNL     1       4.174   4.407  19.019  0.00  0.00    +0.000 OA
BRANCH  30  31
ATOM     31  C   UNL     1       3.453   3.580  19.935  0.00  0.00    +0.000 C 
BRANCH  31  32
ATOM     32  C   UNL     1       3.134   2.231  19.313  0.00  0.00    +0.000 C 
BRANCH  32  34
ATOM     33  C   UNL     1       0.713   2.678  18.768  0.00  0.00    +0.000 C 
ATOM     34  C   UNL     1       2.097   2.425  18.208  0.00  0.00    +0.000 C 
ENDBRANCH  32  34
ENDBRANCH  31  32
ENDBRANCH  30  31
ENDBRANCH  24  30
ENDBRANCH  20  27
ENDBRANCH   1  22
TORSDOF 8
ENDMDL
MODEL 3
REMARK VINA RESULT:      -7.7      2.048      2.669
REMARK  Name = 
REMARK  10 active torsions:
REMARK  status: ('A' for Active; 'I' for Inactive)
REMARK    1  A    between atoms: C_1  and  C_2
REMARK    2  A    between atoms: C_2  and  C_3
REMARK    3  A    between atoms: C_3  and  C_4
REMARK    4  A    between atoms: C_4  and  O_5
REMARK    5  A    between atoms: O_5  and  C_6
REMARK    6  A    between atoms: C_9  and  C_10
REMARK    7  A    between atoms: N_12  and  N_13
REMARK    8  A    between atoms: C_22  and  C_23
REMARK    9  A    between atoms: C_26  and  O_27
REMARK   10  A    between atoms: O_27  and  C_28
REMARK                            x       y       z     vdW  Elec       q    Type
REMARK                         _______ _______ _______ _____ _____    ______ ____
ROOT
ATOM      1  N   UNL     1       0.740  11.947  18.873  0.00  0.00    +0.000 NA
ATOM      2  C   UNL     1       1.987  12.709  19.041  0.00  0.00    +0.000 C 
ATOM      3  C   UNL     1       1.819  14.173  18.738  0.00  0.00    +0.000 A 
ATOM      4  C   UNL     1       2.841  14.911  18.120  0.00  0.00    +0.000 A 
ATOM      5  C   UNL     1       2.727  16.293  18.008  0.00  0.00    +0.000 A 
ATOM      6  C   UNL     1       1.619  16.944  18.543  0.00  0.00    +0.000 A 
ATOM      7  C   UNL     1       0.602  16.209  19.155  0.00  0.00    +0.000 A 
ATOM      8  C   UNL     1       0.687  14.819  19.244  0.00  0.00    +0.000 A 
ATOM      9  N   UNL     1      -0.391  14.091  19.724  0.00  0.00    +0.000 N 
ATOM     10  C   UNL     1      -0.362  12.635  19.597  0.00  0.00    +0.000 C 
ATOM     11  H   UNL     1      -0.803  14.434  20.581  0.00  0.00    +0.000 HD
ENDROOT
BRANCH  10  12
ATOM     12  C   UNL     1      -1.718  12.272  18.961  0.00  0.00    +0.000 A 
ATOM     13  C   UNL     1      -2.916  12.529  19.652  0.00  0.00    +0.000 A 
ATOM     14  C   UNL     1      -4.130  12.013  19.192  0.00  0.00    +0.000 A 
ATOM     15  C   UNL     1      -4.185  11.260  18.019  0.00  0.00    +0.000 A 
ATOM     16  C   UNL     1      -3.017  11.065  17.281  0.00  0.00    +0.000 A 
ATOM     17  C   UNL     1      -1.792  11.571  17.746  0.00  0.00    +0.000 A 
BRANCH  15  18
ATOM     18  O   UNL     1      -5.415  10.733  17.740  0.00  0.00    +0.000 OA
ATOM     19  C   UNL     1      -6.338  10.638  18.815  0.00  0.00    +0.000 C 
ENDBRANCH  15  18
ENDBRANCH  10  12
BRANCH   1  22
ATOM     20  C   UNL     1       1.553   9.666  18.431  0.00  0.00    +0.000 C 
ATOM     21  O   UNL     1       1.975   9.911  17.303  0.00  0.00    +0.000 OA
ATOM     22  N   UNL     1       0.914  10.581  19.261  0.00  0.00    +0.000 N 
ATOM     23  H   UNL     1       0.720  10.358  20.232  0.00  0.00    +0.000 HD
BRANCH  20  27
ATOM     24  C   UNL     1       2.454   5.773  19.932  0.00  0.00    +0.000 A 
ATOM     25  C   UNL     1       2.747   6.136  18.615  0.00  0.00    +0.000 A 
ATOM     26  C   UNL     1       2.429   7.405  18.150  0.00  0.00    +0.000 A 
ATOM     27  C   UNL     1       1.810   8.328  18.997  0.00  0.00    +0.000 A 
ATOM     28  C   UNL     1       1.466   7.960  20.302  0.00  0.00    +0.000 A 
ATOM     29  C   UNL     1       1.792   6.680  20.764  0.00  0.00    +0.000 A 
BRANCH  24  30
ATOM     30  O   UNL     1       2.774   4.561  20.494  0.00  0.00    +0.000 OA
BRANCH  30  31
ATOM     31  C   UNL     1       1.643   3.815  20.946  0.00  0.00    +0.000 C 
BRANCH  31  32
ATOM     32  C   UNL     1       0.898   3.195  19.776  0.00  0.00    +0.000 C 
BRANCH  32  34
ATOM     33  C   UNL     1       2.331   2.333  17.889  0.00  0.00    +0.000 C 
ATOM     34  C   UNL     1       1.711   2.020  19.235  0.00  0.00    +0.000 C 
ENDBRANCH  32  34
ENDBRANCH  31  32
ENDBRANCH  30  31
ENDBRANCH  24  30
ENDBRANCH  20  27
ENDBRANCH   1  22
TORSDOF 8
ENDMDL
MODEL 4
REMARK VINA RESULT:      -7.6      0.610      1.048
REMARK  Name = 
REMARK  10 active torsions:
REMARK  status: ('A' for Active; 'I' for Inactive)
REMARK    1  A    between atoms: C_1  and  C_2
REMARK    2  A    between atoms: C_2  and  C_3
REMARK    3  A    between atoms: C_3  and  C_4
REMARK    4  A    between atoms: C_4  and  O_5
REMARK    5  A    between atoms: O_5  and  C_6
REMARK    6  A    between atoms: C_9  and  C_10
REMARK    7  A    between atoms: N_12  and  N_13
REMARK    8  A    between atoms: C_22  and  C_23
REMARK    9  A    between atoms: C_26  and  O_27
REMARK   10  A    between atoms: O_27  and  C_28
REMARK                            x       y       z     vdW  Elec       q    Type
REMARK                         _______ _______ _______ _____ _____    ______ ____
ROOT
ATOM      1  N   UNL     1       0.470  11.086  19.542  0.00  0.00    +0.000 NA
ATOM      2  C   UNL     1       1.292  11.890  20.460  0.00  0.00    +0.000 C 
ATOM      3  C   UNL     1       0.711  13.253  20.718  0.00  0.00    +0.000 A 
ATOM      4  C   UNL     1       1.536  14.377  20.884  0.00  0.00    +0.000 A 
ATOM      5  C   UNL     1       0.984  15.588  21.290  0.00  0.00    +0.000 A 
ATOM      6  C   UNL     1      -0.377  15.671  21.569  0.00  0.00    +0.000 A 
ATOM      7  C   UNL     1      -1.197  14.554  21.401  0.00  0.00    +0.000 A 
ATOM      8  C   UNL     1      -0.663  13.342  20.961  0.00  0.00    +0.000 A 
ATOM      9  N   UNL     1      -1.507  12.284  20.662  0.00  0.00    +0.000 N 
ATOM     10  C   UNL     1      -0.946  11.110  19.994  0.00  0.00    +0.000 C 
ATOM     11  H   UNL     1      -2.214  12.080  21.355  0.00  0.00    +0.000 HD
ENDROOT
BRANCH  10  12
ATOM     12  C   UNL     1      -1.886  10.855  18.800  0.00  0.00    +0.000 A 
ATOM     13  C   UNL     1      -1.523   9.939  17.796  0.00  0.00    +0.000 A 
ATOM     14  C   UNL     1      -2.252   9.857  16.608  0.00  0.00    +0.000 A 
ATOM     15  C   UNL     1      -3.375  10.659  16.405  0.00  0.00    +0.000 A 
ATOM     16  C   UNL     1      -3.793  11.515  17.424  0.00  0.00    +0.000 A 
ATOM     17  C   UNL     1      -3.056  11.610  18.616  0.00  0.00    +0.000 A 
BRANCH  15  18
ATOM     18  O   UNL     1      -3.933  10.552  15.161  0.00  0.00    +0.000 OA
ATOM     19  C   UNL     1      -3.093  10.088  14.113  0.00  0.00    +0.000 C 
ENDBRANCH  15  18
ENDBRANCH  10  12
BRANCH   1  22
ATOM     20  C   UNL     1       1.841   9.433  18.338  0.00  0.00    +0.000 C 
ATOM     21  O   UNL     1       2.163  10.192  17.427  0.00  0.00    +0.000 OA
ATOM     22  N   UNL     1       1.002   9.765  19.396  0.00  0.00    +0.000 N 
ATOM     23  H   UNL     1       0.892   9.143  20.190  0.00  0.00    +0.000 HD
BRANCH  20  27
ATOM     24  C   UNL     1       3.427   5.475  18.544  0.00  0.00    +0.000 A 
ATOM     25  C   UNL     1       2.520   5.953  19.496  0.00  0.00    +0.000 A 
ATOM     26  C   UNL     1       2.033   7.249  19.410  0.00  0.00    +0.000 A 
ATOM     27  C   UNL     1       2.448   8.089  18.374  0.00  0.00    +0.000 A 
ATOM     28  C   UNL     1       3.393   7.640  17.445  0.00  0.00    +0.000 A 
ATOM     29  C   UNL     1       3.877   6.331  17.535  0.00  0.00    +0.000 A 
BRANCH  24  30
ATOM     30  O   UNL     1       3.924   4.196  18.518  0.00  0.00    +0.000 OA
BRANCH  30  31
ATOM     31  C   UNL     1       3.804   3.501  19.760  0.00  0.00    +0.000 C 
BRANCH  31  32
ATOM     32  C   UNL     1       3.124   2.155  19.567  0.00  0.00    +0.000 C 
BRANCH  32  34
ATOM     33  C   UNL     1       1.455   2.977  21.269  0.00  0.00    +0.000 C 
ATOM     34  C   UNL     1       1.647   2.288  19.934  0.00  0.00    +0.000 C 
ENDBRANCH  32  34
ENDBRANCH  31  32
ENDBRANCH  30  31
ENDBRANCH  24  30
ENDBRANCH  20  27
ENDBRANCH   1  22
TORSDOF 8
ENDMDL
MODEL 5
REMARK VINA RESULT:      -7.6      1.900      2.568
REMARK  Name = 
REMARK  10 active torsions:
REMARK  status: ('A' for Active; 'I' for Inactive)
REMARK    1  A    between atoms: C_1  and  C_2
REMARK    2  A    between atoms: C_2  and  C_3
REMARK    3  A    between atoms: C_3  and  C_4
REMARK    4  A    between atoms: C_4  and  O_5
REMARK    5  A    between atoms: O_5  and  C_6
REMARK    6  A    between atoms: C_9  and  C_10
REMARK    7  A    between atoms: N_12  and  N_13
REMARK    8  A    between atoms: C_22  and  C_23
REMARK    9  A    between atoms: C_26  and  O_27
REMARK   10  A    between atoms: O_27  and  C_28
REMARK                            x       y       z     vdW  Elec       q    Type
REMARK                         _______ _______ _______ _____ _____    ______ ____
ROOT
ATOM      1  N   UNL     1       0.901  11.676  18.948  0.00  0.00    +0.000 NA
ATOM      2  C   UNL     1       2.127  12.486  19.031  0.00  0.00    +0.000 C 
ATOM      3  C   UNL     1       1.875  13.947  18.780  0.00  0.00    +0.000 A 
ATOM      4  C   UNL     1       2.812  14.740  18.098  0.00  0.00    +0.000 A 
ATOM      5  C   UNL     1       2.633  16.119  18.030  0.00  0.00    +0.000 A 
ATOM      6  C   UNL     1       1.550  16.711  18.672  0.00  0.00    +0.000 A 
ATOM      7  C   UNL     1       0.618  15.921  19.348  0.00  0.00    +0.000 A 
ATOM      8  C   UNL     1       0.765  14.534  19.395  0.00  0.00    +0.000 A 
ATOM      9  N   UNL     1      -0.239  13.751  19.943  0.00  0.00    +0.000 N 
ATOM     10  C   UNL     1      -0.162  12.300  19.778  0.00  0.00    +0.000 C 
ATOM     11  H   UNL     1      -0.590  14.058  20.841  0.00  0.00    +0.000 HD
ENDROOT
BRANCH  10  12
ATOM     12  C   UNL     1      -1.551  11.895  19.248  0.00  0.00    +0.000 A 
ATOM     13  C   UNL     1      -1.669  11.181  18.042  0.00  0.00    +0.000 A 
ATOM     14  C   UNL     1      -2.915  10.997  17.440  0.00  0.00    +0.000 A 
ATOM     15  C   UNL     1      -4.075  11.490  18.039  0.00  0.00    +0.000 A 
ATOM     16  C   UNL     1      -3.982  12.132  19.274  0.00  0.00    +0.000 A 
ATOM     17  C   UNL     1      -2.729  12.330  19.878  0.00  0.00    +0.000 A 
BRANCH  15  18
ATOM     18  O   UNL     1      -5.210  11.331  17.294  0.00  0.00    +0.000 OA
ATOM     19  C   UNL     1      -6.452  11.541  17.952  0.00  0.00    +0.000 C 
ENDBRANCH  15  18
ENDBRANCH  10  12
BRANCH   1  22
ATOM     20  C   UNL     1       1.725   9.429  18.368  0.00  0.00    +0.000 C 
ATOM     21  O   UNL     1       2.001   9.706  17.203  0.00  0.00    +0.000 OA
ATOM     22  N   UNL     1       1.163  10.309  19.285  0.00  0.00    +0.000 N 
ATOM     23  H   UNL     1       1.093  10.066  20.269  0.00  0.00    +0.000 HD
BRANCH  20  27
ATOM     24  C   UNL     1       2.948   5.566  19.710  0.00  0.00    +0.000 A 
ATOM     25  C   UNL     1       3.327   6.061  18.459  0.00  0.00    +0.000 A 
ATOM     26  C   UNL     1       2.901   7.315  18.043  0.00  0.00    +0.000 A 
ATOM     27  C   UNL     1       2.088   8.091  18.873  0.00  0.00    +0.000 A 
ATOM     28  C   UNL     1       1.662   7.588  20.106  0.00  0.00    +0.000 A 
ATOM     29  C   UNL     1       2.097   6.324  20.519  0.00  0.00    +0.000 A 
BRANCH  24  30
ATOM     30  O   UNL     1       3.359   4.362  20.226  0.00  0.00    +0.000 OA
BRANCH  30  31
ATOM     31  C   UNL     1       4.001   3.512  19.275  0.00  0.00    +0.000 C 
BRANCH  31  32
ATOM     32  C   UNL     1       3.283   2.177  19.166  0.00  0.00    +0.000 C 
BRANCH  32  34
ATOM     33  C   UNL     1       0.820   2.496  18.730  0.00  0.00    +0.000 C 
ATOM     34  C   UNL     1       2.185   2.287  18.108  0.00  0.00    +0.000 C 
ENDBRANCH  32  34
ENDBRANCH  31  32
ENDBRANCH  30  31
ENDBRANCH  24  30
ENDBRANCH  20  27
ENDBRANCH   1  22
TORSDOF 8
ENDMDL
MODEL 6
REMARK VINA RESULT:      -7.5      0.514      1.061
REMARK  Name = 
REMARK  10 active torsions:
REMARK  status: ('A' for Active; 'I' for Inactive)
REMARK    1  A    between atoms: C_1  and  C_2
REMARK    2  A    between atoms: C_2  and  C_3
REMARK    3  A    between atoms: C_3  and  C_4
REMARK    4  A    between atoms: C_4  and  O_5
REMARK    5  A    between atoms: O_5  and  C_6
REMARK    6  A    between atoms: C_9  and  C_10
REMARK    7  A    between atoms: N_12  and  N_13
REMARK    8  A    between atoms: C_22  and  C_23
REMARK    9  A    between atoms: C_26  and  O_27
REMARK   10  A    between atoms: O_27  and  C_28
REMARK                            x       y       z     vdW  Elec       q    Type
REMARK                         _______ _______ _______ _____ _____    ______ ____
ROOT
ATOM      1  N   UNL     1       0.137  11.128  19.732  0.00  0.00    +0.000 NA
ATOM      2  C   UNL     1       0.707  11.861  20.872  0.00  0.00    +0.000 C 
ATOM      3  C   UNL     1       0.091  13.222  21.054  0.00  0.00    +0.000 A 
ATOM      4  C   UNL     1       0.858  14.316  21.487  0.00  0.00    +0.000 A 
ATOM      5  C   UNL     1       0.231  15.515  21.810  0.00  0.00    +0.000 A 
ATOM      6  C   UNL     1      -1.155  15.615  21.742  0.00  0.00    +0.000 A 
ATOM      7  C   UNL     1      -1.916  14.527  21.309  0.00  0.00    +0.000 A 
ATOM      8  C   UNL     1      -1.298  13.329  20.948  0.00  0.00    +0.000 A 
ATOM      9  N   UNL     1      -2.048  12.308  20.385  0.00  0.00    +0.000 N 
ATOM     10  C   UNL     1      -1.346  11.159  19.814  0.00  0.00    +0.000 C 
ATOM     11  H   UNL     1      -2.910  12.083  20.866  0.00  0.00    +0.000 HD
ENDROOT
BRANCH  10  12
ATOM     12  C   UNL     1      -1.957  10.990  18.409  0.00  0.00    +0.000 A 
ATOM     13  C   UNL     1      -3.101  11.719  18.041  0.00  0.00    +0.000 A 
ATOM     14  C   UNL     1      -3.790  11.421  16.863  0.00  0.00    +0.000 A 
ATOM     15  C   UNL     1      -3.338  10.414  16.010  0.00  0.00    +0.000 A 
ATOM     16  C   UNL     1      -2.159   9.737  16.322  0.00  0.00    +0.000 A 
ATOM     17  C   UNL     1      -1.470  10.025  17.512  0.00  0.00    +0.000 A 
BRANCH  15  18
ATOM     18  O   UNL     1      -4.160  10.158  14.948  0.00  0.00    +0.000 OA
ATOM     19  C   UNL     1      -3.549  10.028  13.672  0.00  0.00    +0.000 C 
ENDBRANCH  15  18
ENDBRANCH  10  12
BRANCH   1  22
ATOM     20  C   UNL     1       1.660   9.479  18.719  0.00  0.00    +0.000 C 
ATOM     21  O   UNL     1       2.115  10.246  17.875  0.00  0.00    +0.000 OA
ATOM     22  N   UNL     1       0.678   9.805  19.648  0.00  0.00    +0.000 N 
ATOM     23  H   UNL     1       0.449   9.174  20.410  0.00  0.00    +0.000 HD
BRANCH  20  27
ATOM     24  C   UNL     1       3.514   5.637  18.897  0.00  0.00    +0.000 A 
ATOM     25  C   UNL     1       3.649   6.466  17.779  0.00  0.00    +0.000 A 
ATOM     26  C   UNL     1       3.023   7.704  17.744  0.00  0.00    +0.000 A 
ATOM     27  C   UNL     1       2.249   8.130  18.826  0.00  0.00    +0.000 A 
ATOM     28  C   UNL     1       2.064   7.290  19.929  0.00  0.00    +0.000 A 
ATOM     29  C   UNL     1       2.701   6.045  19.959  0.00  0.00    +0.000 A 
BRANCH  24  30
ATOM     30  O   UNL     1       4.134   4.421  19.043  0.00  0.00    +0.000 OA
BRANCH  30  31
ATOM     31  C   UNL     1       4.219   3.665  17.834  0.00  0.00    +0.000 C 
BRANCH  31  32
ATOM     32  C   UNL     1       3.594   2.291  18.007  0.00  0.00    +0.000 C 
BRANCH  32  34
ATOM     33  C   UNL     1       1.277   2.545  18.970  0.00  0.00    +0.000 C 
ATOM     34  C   UNL     1       2.098   2.384  17.708  0.00  0.00    +0.000 C 
ENDBRANCH  32  34
ENDBRANCH  31  32
ENDBRANCH  30  31
ENDBRANCH  24  30
ENDBRANCH  20  27
ENDBRANCH   1  22
TORSDOF 8
ENDMDL
MODEL 7
REMARK VINA RESULT:      -7.4      1.379      2.355
REMARK  Name = 
REMARK  10 active torsions:
REMARK  status: ('A' for Active; 'I' for Inactive)
REMARK    1  A    between atoms: C_1  and  C_2
REMARK    2  A    between atoms: C_2  and  C_3
REMARK    3  A    between atoms: C_3  and  C_4
REMARK    4  A    between atoms: C_4  and  O_5
REMARK    5  A    between atoms: O_5  and  C_6
REMARK    6  A    between atoms: C_9  and  C_10
REMARK    7  A    between atoms: N_12  and  N_13
REMARK    8  A    between atoms: C_22  and  C_23
REMARK    9  A    between atoms: C_26  and  O_27
REMARK   10  A    between atoms: O_27  and  C_28
REMARK                            x       y       z     vdW  Elec       q    Type
REMARK                         _______ _______ _______ _____ _____    ______ ____
ROOT
ATOM      1  N   UNL     1       0.145  11.231  19.204  0.00  0.00    +0.000 NA
ATOM      2  C   UNL     1       0.920  12.123  20.079  0.00  0.00    +0.000 C 
ATOM      3  C   UNL     1       0.317  13.497  20.189  0.00  0.00    +0.000 A 
ATOM      4  C   UNL     1       1.125  14.641  20.287  0.00  0.00    +0.000 A 
ATOM      5  C   UNL     1       0.545  15.877  20.560  0.00  0.00    +0.000 A 
ATOM      6  C   UNL     1      -0.827  15.967  20.774  0.00  0.00    +0.000 A 
ATOM      7  C   UNL     1      -1.629  14.829  20.674  0.00  0.00    +0.000 A 
ATOM      8  C   UNL     1      -1.066  13.590  20.367  0.00  0.00    +0.000 A 
ATOM      9  N   UNL     1      -1.888  12.499  20.130  0.00  0.00    +0.000 N 
ATOM     10  C   UNL     1      -1.288  11.277  19.594  0.00  0.00    +0.000 C 
ATOM     11  H   UNL     1      -2.622  12.348  20.810  0.00  0.00    +0.000 HD
ENDROOT
BRANCH  10  12
ATOM     12  C   UNL     1      -2.176  10.904  18.390  0.00  0.00    +0.000 A 
ATOM     13  C   UNL     1      -1.727   9.968  17.442  0.00  0.00    +0.000 A 
ATOM     14  C   UNL     1      -2.414   9.782  16.241  0.00  0.00    +0.000 A 
ATOM     15  C   UNL     1      -3.580  10.498  15.970  0.00  0.00    +0.000 A 
ATOM     16  C   UNL     1      -4.081  11.372  16.935  0.00  0.00    +0.000 A 
ATOM     17  C   UNL     1      -3.386  11.572  18.140  0.00  0.00    +0.000 A 
BRANCH  15  18
ATOM     18  O   UNL     1      -4.094  10.295  14.719  0.00  0.00    +0.000 OA
ATOM     19  C   UNL     1      -3.178   9.940  13.693  0.00  0.00    +0.000 C 
ENDBRANCH  15  18
ENDBRANCH  10  12
BRANCH   1  22
ATOM     20  C   UNL     1       1.723   9.553  18.333  0.00  0.00    +0.000 C 
ATOM     21  O   UNL     1       2.216  10.290  17.482  0.00  0.00    +0.000 OA
ATOM     22  N   UNL     1       0.695   9.909  19.198  0.00  0.00    +0.000 N 
ATOM     23  H   UNL     1       0.431   9.307  19.973  0.00  0.00    +0.000 HD
BRANCH  20  27
ATOM     24  C   UNL     1       3.585   5.735  18.758  0.00  0.00    +0.000 A 
ATOM     25  C   UNL     1       3.807   6.539  17.636  0.00  0.00    +0.000 A 
ATOM     26  C   UNL     1       3.176   7.770  17.519  0.00  0.00    +0.000 A 
ATOM     27  C   UNL     1       2.311   8.213  18.522  0.00  0.00    +0.000 A 
ATOM     28  C   UNL     1       2.041   7.398  19.625  0.00  0.00    +0.000 A 
ATOM     29  C   UNL     1       2.682   6.160  19.738  0.00  0.00    +0.000 A 
BRANCH  24  30
ATOM     30  O   UNL     1       4.200   4.529  18.985  0.00  0.00    +0.000 OA
BRANCH  30  31
ATOM     31  C   UNL     1       5.432   4.365  18.281  0.00  0.00    +0.000 C 
BRANCH  31  32
ATOM     32  C   UNL     1       5.194   3.785  16.897  0.00  0.00    +0.000 C 
BRANCH  32  34
ATOM     33  C   UNL     1       5.987   3.999  14.513  0.00  0.00    +0.000 C 
ATOM     34  C   UNL     1       6.325   4.230  15.971  0.00  0.00    +0.000 C 
ENDBRANCH  32  34
ENDBRANCH  31  32
ENDBRANCH  30  31
ENDBRANCH  24  30
ENDBRANCH  20  27
ENDBRANCH   1  22
TORSDOF 8
ENDMDL
MODEL 8
REMARK VINA RESULT:      -7.3      1.303      2.448
REMARK  Name = 
REMARK  10 active torsions:
REMARK  status: ('A' for Active; 'I' for Inactive)
REMARK    1  A    between atoms: C_1  and  C_2
REMARK    2  A    between atoms: C_2  and  C_3
REMARK    3  A    between atoms: C_3  and  C_4
REMARK    4  A    between atoms: C_4  and  O_5
REMARK    5  A    between atoms: O_5  and  C_6
REMARK    6  A    between atoms: C_9  and  C_10
REMARK    7  A    between atoms: N_12  and  N_13
REMARK    8  A    between atoms: C_22  and  C_23
REMARK    9  A    between atoms: C_26  and  O_27
REMARK   10  A    between atoms: O_27  and  C_28
REMARK                            x       y       z     vdW  Elec       q    Type
REMARK                         _______ _______ _______ _____ _____    ______ ____
ROOT
ATOM      1  N   UNL     1       0.036  11.101  19.645  0.00  0.00    +0.000 NA
ATOM      2  C   UNL     1       0.570  11.809  20.819  0.00  0.00    +0.000 C 
ATOM      3  C   UNL     1      -0.092  13.140  21.044  0.00  0.00    +0.000 A 
ATOM      4  C   UNL     1       0.634  14.241  21.527  0.00  0.00    +0.000 A 
ATOM      5  C   UNL     1      -0.036  15.407  21.888  0.00  0.00    +0.000 A 
ATOM      6  C   UNL     1      -1.423  15.464  21.807  0.00  0.00    +0.000 A 
ATOM      7  C   UNL     1      -2.144  14.370  21.324  0.00  0.00    +0.000 A 
ATOM      8  C   UNL     1      -1.483  13.207  20.927  0.00  0.00    +0.000 A 
ATOM      9  N   UNL     1      -2.194  12.185  20.317  0.00  0.00    +0.000 N 
ATOM     10  C   UNL     1      -1.449  11.081  19.711  0.00  0.00    +0.000 C 
ATOM     11  H   UNL     1      -3.052  11.913  20.778  0.00  0.00    +0.000 HD
ENDROOT
BRANCH  10  12
ATOM     12  C   UNL     1      -2.039  10.946  18.294  0.00  0.00    +0.000 A 
ATOM     13  C   UNL     1      -3.189  11.669  17.933  0.00  0.00    +0.000 A 
ATOM     14  C   UNL     1      -3.859  11.397  16.738  0.00  0.00    +0.000 A 
ATOM     15  C   UNL     1      -3.381  10.423  15.860  0.00  0.00    +0.000 A 
ATOM     16  C   UNL     1      -2.196   9.754  16.168  0.00  0.00    +0.000 A 
ATOM     17  C   UNL     1      -1.526  10.015  17.375  0.00  0.00    +0.000 A 
BRANCH  15  18
ATOM     18  O   UNL     1      -4.185  10.188  14.781  0.00  0.00    +0.000 OA
ATOM     19  C   UNL     1      -3.545   9.943  13.536  0.00  0.00    +0.000 C 
ENDBRANCH  15  18
ENDBRANCH  10  12
BRANCH   1  22
ATOM     20  C   UNL     1       1.668   9.558  18.637  0.00  0.00    +0.000 C 
ATOM     21  O   UNL     1       2.151  10.387  17.870  0.00  0.00    +0.000 OA
ATOM     22  N   UNL     1       0.620   9.800  19.518  0.00  0.00    +0.000 N 
ATOM     23  H   UNL     1       0.364   9.118  20.225  0.00  0.00    +0.000 HD
BRANCH  20  27
ATOM     24  C   UNL     1       3.611   5.757  18.690  0.00  0.00    +0.000 A 
ATOM     25  C   UNL     1       3.707   6.614  17.590  0.00  0.00    +0.000 A 
ATOM     26  C   UNL     1       3.052   7.838  17.595  0.00  0.00    +0.000 A 
ATOM     27  C   UNL     1       2.289   8.220  18.701  0.00  0.00    +0.000 A 
ATOM     28  C   UNL     1       2.144   7.351  19.787  0.00  0.00    +0.000 A 
ATOM     29  C   UNL     1       2.809   6.120  19.775  0.00  0.00    +0.000 A 
BRANCH  24  30
ATOM     30  O   UNL     1       4.262   4.552  18.796  0.00  0.00    +0.000 OA
BRANCH  30  31
ATOM     31  C   UNL     1       5.492   4.492  18.072  0.00  0.00    +0.000 C 
BRANCH  31  32
ATOM     32  C   UNL     1       6.581   5.276  18.784  0.00  0.00    +0.000 C 
BRANCH  32  34
ATOM     33  C   UNL     1       8.024   7.299  18.359  0.00  0.00    +0.000 C 
ATOM     34  C   UNL     1       7.376   6.073  17.751  0.00  0.00    +0.000 C 
ENDBRANCH  32  34
ENDBRANCH  31  32
ENDBRANCH  30  31
ENDBRANCH  24  30
ENDBRANCH  20  27
ENDBRANCH   1  22
TORSDOF 8
ENDMDL
MODEL 9
REMARK VINA RESULT:      -7.3      1.559      2.756
REMARK  Name = 
REMARK  10 active torsions:
REMARK  status: ('A' for Active; 'I' for Inactive)
REMARK    1  A    between atoms: C_1  and  C_2
REMARK    2  A    between atoms: C_2  and  C_3
REMARK    3  A    between atoms: C_3  and  C_4
REMARK    4  A    between atoms: C_4  and  O_5
REMARK    5  A    between atoms: O_5  and  C_6
REMARK    6  A    between atoms: C_9  and  C_10
REMARK    7  A    between atoms: N_12  and  N_13
REMARK    8  A    between atoms: C_22  and  C_23
REMARK    9  A    between atoms: C_26  and  O_27
REMARK   10  A    between atoms: O_27  and  C_28
REMARK                            x       y       z     vdW  Elec       q    Type
REMARK                         _______ _______ _______ _____ _____    ______ ____
ROOT
ATOM      1  N   UNL     1       0.435  11.419  19.654  0.00  0.00    +0.000 NA
ATOM      2  C   UNL     1       1.089  12.124  20.767  0.00  0.00    +0.000 C 
ATOM      3  C   UNL     1       0.220  13.194  21.368  0.00  0.00    +0.000 A 
ATOM      4  C   UNL     1       0.768  14.397  21.841  0.00  0.00    +0.000 A 
ATOM      5  C   UNL     1      -0.031  15.293  22.545  0.00  0.00    +0.000 A 
ATOM      6  C   UNL     1      -1.360  14.976  22.812  0.00  0.00    +0.000 A 
ATOM      7  C   UNL     1      -1.904  13.781  22.338  0.00  0.00    +0.000 A 
ATOM      8  C   UNL     1      -1.124  12.889  21.602  0.00  0.00    +0.000 A 
ATOM      9  N   UNL     1      -1.712  11.778  21.017  0.00  0.00    +0.000 N 
ATOM     10  C   UNL     1      -0.925  10.988  20.072  0.00  0.00    +0.000 C 
ATOM     11  H   UNL     1      -2.319  11.238  21.619  0.00  0.00    +0.000 HD
ENDROOT
BRANCH  10  12
ATOM     12  C   UNL     1      -1.834  10.840  18.836  0.00  0.00    +0.000 A 
ATOM     13  C   UNL     1      -1.449  10.010  17.768  0.00  0.00    +0.000 A 
ATOM     14  C   UNL     1      -2.147  10.033  16.558  0.00  0.00    +0.000 A 
ATOM     15  C   UNL     1      -3.262  10.856  16.396  0.00  0.00    +0.000 A 
ATOM     16  C   UNL     1      -3.702  11.625  17.473  0.00  0.00    +0.000 A 
ATOM     17  C   UNL     1      -2.997  11.614  18.688  0.00  0.00    +0.000 A 
BRANCH  15  18
ATOM     18  O   UNL     1      -3.787  10.857  15.133  0.00  0.00    +0.000 OA
ATOM     19  C   UNL     1      -3.191   9.986  14.183  0.00  0.00    +0.000 C 
ENDBRANCH  15  18
ENDBRANCH  10  12
BRANCH   1  22
ATOM     20  C   UNL     1       1.345   9.140  19.854  0.00  0.00    +0.000 C 
ATOM     21  O   UNL     1       0.798   8.891  20.925  0.00  0.00    +0.000 OA
ATOM     22  N   UNL     1       1.252  10.347  19.171  0.00  0.00    +0.000 N 
ATOM     23  H   UNL     1       1.607  10.441  18.224  0.00  0.00    +0.000 HD
BRANCH  20  27
ATOM     24  C   UNL     1       3.624   6.160  17.815  0.00  0.00    +0.000 A 
ATOM     25  C   UNL     1       3.414   7.428  17.264  0.00  0.00    +0.000 A 
ATOM     26  C   UNL     1       2.656   8.371  17.944  0.00  0.00    +0.000 A 
ATOM     27  C   UNL     1       2.095   8.059  19.185  0.00  0.00    +0.000 A 
ATOM     28  C   UNL     1       2.255   6.779  19.724  0.00  0.00    +0.000 A 
ATOM     29  C   UNL     1       3.022   5.834  19.034  0.00  0.00    +0.000 A 
BRANCH  24  30
ATOM     30  O   UNL     1       4.397   5.181  17.242  0.00  0.00    +0.000 OA
BRANCH  30  31
ATOM     31  C   UNL     1       5.257   5.655  16.205  0.00  0.00    +0.000 C 
BRANCH  31  32
ATOM     32  C   UNL     1       6.716   5.407  16.552  0.00  0.00    +0.000 C 
BRANCH  32  34
ATOM     33  C   UNL     1       7.725   6.109  18.754  0.00  0.00    +0.000 C 
ATOM     34  C   UNL     1       7.230   6.571  17.399  0.00  0.00    +0.000 C 
ENDBRANCH  32  34
ENDBRANCH  31  32
ENDBRANCH  30  31
ENDBRANCH  24  30
ENDBRANCH  20  27
ENDBRANCH   1  22
TORSDOF 8
ENDMDL
