MODEL 1
REMARK VINA RESULT:      -7.4      0.000      0.000
REMARK  Name = 
REMARK  11 active torsions:
REMARK  status: ('A' for Active; 'I' for Inactive)
REMARK    1  A    between atoms: C_1  and  C_2
REMARK    2  A    between atoms: C_2  and  O_4
REMARK    3  A    between atoms: O_4  and  C_5
REMARK    4  A    between atoms: C_5  and  C_6
REMARK    5  A    between atoms: C_5  and  C_7
REMARK    6  A    between atoms: C_5  and  C_13
REMARK    7  A    between atoms: C_7  and  C_8
REMARK    8  A    between atoms: C_8  and  C_9
REMARK    9  A    between atoms: C_10  and  C_11
REMARK   10  A    between atoms: C_10  and  C_12
REMARK   11  A    between atoms: C_16  and  C_17
REMARK                            x       y       z     vdW  Elec       q    Type
REMARK                         _______ _______ _______ _____ _____    ______ ____
ROOT
ATOM      1  C   UNL     1       5.438   5.400  16.808  0.00  0.00    +0.000 C 
ATOM      2  C   UNL     1       6.287   4.151  17.095  0.00  0.00    +0.000 C 
ENDROOT
BRANCH   1   3
ATOM      3  C   UNL     1       3.977   5.210  17.404  0.00  0.00    +0.000 C 
ATOM      4  C   UNL     1       3.502   6.146  18.547  0.00  0.00    +0.000 C 
ATOM      5  C   UNL     1       2.444   5.578  19.455  0.00  0.00    +0.000 C 
ATOM      6  C   UNL     1       1.866   4.378  19.295  0.00  0.00    +0.000 C 
ATOM      7  C   UNL     1       0.794   3.867  20.213  0.00  0.00    +0.000 C 
ATOM      8  C   UNL     1       2.258   3.464  18.171  0.00  0.00    +0.000 C 
ATOM      9  C   UNL     1       3.675   3.718  17.669  0.00  0.00    +0.000 C 
ENDBRANCH   1   3
BRANCH   1  10
ATOM     10  O   UNL     1       5.941   6.501  17.648  0.00  0.00    +0.000 OA
BRANCH  10  12
ATOM     11  C   UNL     1       7.927   6.371  18.862  0.00  0.00    +0.000 C 
ATOM     12  C   UNL     1       7.206   6.960  17.681  0.00  0.00    +0.000 C 
ATOM     13  O   UNL     1       7.721   7.713  16.868  0.00  0.00    +0.000 OA
ENDBRANCH  10  12
ENDBRANCH   1  10
BRANCH   1  14
ATOM     14  C   UNL     1       5.516   5.822  15.292  0.00  0.00    +0.000 C 
BRANCH  14  15
ATOM     15  C   UNL     1       6.131   4.756  14.383  0.00  0.00    +0.000 C 
BRANCH  15  16
ATOM     16  C   UNL     1       5.286   3.827  13.559  0.00  0.00    +0.000 C 
ATOM     17  C   UNL     1       5.609   3.448  12.302  0.00  0.00    +0.000 C 
ATOM     18  C   UNL     1       6.982   3.580  11.697  0.00  0.00    +0.000 C 
ATOM     19  C   UNL     1       4.574   2.930  11.343  0.00  0.00    +0.000 C 
ENDBRANCH  15  16
ENDBRANCH  14  15
ENDBRANCH   1  14
TORSDOF 6
ENDMDL
MODEL 2
REMARK VINA RESULT:      -7.3      0.879      1.605
REMARK  Name = 
REMARK  11 active torsions:
REMARK  status: ('A' for Active; 'I' for Inactive)
REMARK    1  A    between atoms: C_1  and  C_2
REMARK    2  A    between atoms: C_2  and  O_4
REMARK    3  A    between atoms: O_4  and  C_5
REMARK    4  A    between atoms: C_5  and  C_6
REMARK    5  A    between atoms: C_5  and  C_7
REMARK    6  A    between atoms: C_5  and  C_13
REMARK    7  A    between atoms: C_7  and  C_8
REMARK    8  A    between atoms: C_8  and  C_9
REMARK    9  A    between atoms: C_10  and  C_11
REMARK   10  A    between atoms: C_10  and  C_12
REMARK   11  A    between atoms: C_16  and  C_17
REMARK                            x       y       z     vdW  Elec       q    Type
REMARK                         _______ _______ _______ _____ _____    ______ ____
ROOT
ATOM      1  C   UNL     1       5.910   5.274  16.735  0.00  0.00    +0.000 C 
ATOM      2  C   UNL     1       7.181   4.415  16.845  0.00  0.00    +0.000 C 
ENDROOT
BRANCH   1   3
ATOM      3  C   UNL     1       4.760   4.657  17.642  0.00  0.00    +0.000 C 
ATOM      4  C   UNL     1       4.566   3.117  17.667  0.00  0.00    +0.000 C 
ATOM      5  C   UNL     1       3.177   2.643  18.003  0.00  0.00    +0.000 C 
ATOM      6  C   UNL     1       2.156   3.448  18.334  0.00  0.00    +0.000 C 
ATOM      7  C   UNL     1       0.795   2.924  18.690  0.00  0.00    +0.000 C 
ATOM      8  C   UNL     1       2.316   4.940  18.374  0.00  0.00    +0.000 C 
ATOM      9  C   UNL     1       3.438   5.439  17.471  0.00  0.00    +0.000 C 
ENDBRANCH   1   3
BRANCH   1  10
ATOM     10  O   UNL     1       6.156   6.551  17.428  0.00  0.00    +0.000 OA
BRANCH  10  12
ATOM     11  C   UNL     1       7.950   6.549  18.916  0.00  0.00    +0.000 C 
ATOM     12  C   UNL     1       7.359   7.112  17.654  0.00  0.00    +0.000 C 
ATOM     13  O   UNL     1       7.918   7.930  16.939  0.00  0.00    +0.000 OA
ENDBRANCH  10  12
ENDBRANCH   1  10
BRANCH   1  14
ATOM     14  C   UNL     1       5.527   5.560  15.233  0.00  0.00    +0.000 C 
BRANCH  14  15
ATOM     15  C   UNL     1       5.281   4.297  14.406  0.00  0.00    +0.000 C 
BRANCH  15  16
ATOM     16  C   UNL     1       6.250   3.828  13.358  0.00  0.00    +0.000 C 
ATOM     17  C   UNL     1       5.867   3.235  12.205  0.00  0.00    +0.000 C 
ATOM     18  C   UNL     1       4.472   3.289  11.639  0.00  0.00    +0.000 C 
ATOM     19  C   UNL     1       6.807   2.369  11.414  0.00  0.00    +0.000 C 
ENDBRANCH  15  16
ENDBRANCH  14  15
ENDBRANCH   1  14
TORSDOF 6
ENDMDL
MODEL 3
REMARK VINA RESULT:      -7.2      1.009      1.614
REMARK  Name = 
REMARK  11 active torsions:
REMARK  status: ('A' for Active; 'I' for Inactive)
REMARK    1  A    between atoms: C_1  and  C_2
REMARK    2  A    between atoms: C_2  and  O_4
REMARK    3  A    between atoms: O_4  and  C_5
REMARK    4  A    between atoms: C_5  and  C_6
REMARK    5  A    between atoms: C_5  and  C_7
REMARK    6  A    between atoms: C_5  and  C_13
REMARK    7  A    between atoms: C_7  and  C_8
REMARK    8  A    between atoms: C_8  and  C_9
REMARK    9  A    between atoms: C_10  and  C_11
REMARK   10  A    between atoms: C_10  and  C_12
REMARK   11  A    between atoms: C_16  and  C_17
REMARK                            x       y       z     vdW  Elec       q    Type
REMARK                         _______ _______ _______ _____ _____    ______ ____
ROOT
ATOM      1  C   UNL     1       6.026   5.254  17.018  0.00  0.00    +0.000 C 
ATOM      2  C   UNL     1       7.292   4.381  17.021  0.00  0.00    +0.000 C 
ENDROOT
BRANCH   1   3
ATOM      3  C   UNL     1       4.861   4.518  17.810  0.00  0.00    +0.000 C 
ATOM      4  C   UNL     1       4.444   3.086  17.379  0.00  0.00    +0.000 C 
ATOM      5  C   UNL     1       3.027   2.698  17.704  0.00  0.00    +0.000 C 
ATOM      6  C   UNL     1       2.160   3.468  18.378  0.00  0.00    +0.000 C 
ATOM      7  C   UNL     1       0.763   3.022  18.702  0.00  0.00    +0.000 C 
ATOM      8  C   UNL     1       2.541   4.837  18.860  0.00  0.00    +0.000 C 
ATOM      9  C   UNL     1       3.660   5.464  18.037  0.00  0.00    +0.000 C 
ENDBRANCH   1   3
BRANCH   1  10
ATOM     10  O   UNL     1       6.266   6.416  17.891  0.00  0.00    +0.000 OA
BRANCH  10  12
ATOM     11  C   UNL     1       7.805   8.130  17.531  0.00  0.00    +0.000 C 
ATOM     12  C   UNL     1       7.468   6.876  18.287  0.00  0.00    +0.000 C 
ATOM     13  O   UNL     1       8.178   6.384  19.152  0.00  0.00    +0.000 OA
ENDBRANCH  10  12
ENDBRANCH   1  10
BRANCH   1  14
ATOM     14  C   UNL     1       5.666   5.755  15.568  0.00  0.00    +0.000 C 
BRANCH  14  15
ATOM     15  C   UNL     1       6.213   4.864  14.451  0.00  0.00    +0.000 C 
BRANCH  15  16
ATOM     16  C   UNL     1       5.328   3.948  13.656  0.00  0.00    +0.000 C 
ATOM     17  C   UNL     1       5.618   3.542  12.399  0.00  0.00    +0.000 C 
ATOM     18  C   UNL     1       6.983   3.627  11.768  0.00  0.00    +0.000 C 
ATOM     19  C   UNL     1       4.551   3.040  11.466  0.00  0.00    +0.000 C 
ENDBRANCH  15  16
ENDBRANCH  14  15
ENDBRANCH   1  14
TORSDOF 6
ENDMDL
MODEL 4
REMARK VINA RESULT:      -7.2      2.011      5.162
REMARK  Name = 
REMARK  11 active torsions:
REMARK  status: ('A' for Active; 'I' for Inactive)
REMARK    1  A    between atoms: C_1  and  C_2
REMARK    2  A    between atoms: C_2  and  O_4
REMARK    3  A    between atoms: O_4  and  C_5
REMARK    4  A    between atoms: C_5  and  C_6
REMARK    5  A    between atoms: C_5  and  C_7
REMARK    6  A    between atoms: C_5  and  C_13
REMARK    7  A    between atoms: C_7  and  C_8
REMARK    8  A    between atoms: C_8  and  C_9
REMARK    9  A    between atoms: C_10  and  C_11
REMARK   10  A    between atoms: C_10  and  C_12
REMARK   11  A    between atoms: C_16  and  C_17
REMARK                            x       y       z     vdW  Elec       q    Type
REMARK                         _______ _______ _______ _____ _____    ______ ____
ROOT
ATOM      1  C   UNL     1       4.972   4.870  17.985  0.00  0.00    +0.000 C 
ATOM      2  C   UNL     1       5.816   4.977  19.266  0.00  0.00    +0.000 C 
ENDROOT
BRANCH   1   3
ATOM      3  C   UNL     1       3.710   5.829  18.088  0.00  0.00    +0.000 C 
ATOM      4  C   UNL     1       3.648   7.093  17.188  0.00  0.00    +0.000 C 
ATOM      5  C   UNL     1       2.817   8.229  17.721  0.00  0.00    +0.000 C 
ATOM      6  C   UNL     1       2.102   8.184  18.855  0.00  0.00    +0.000 C 
ATOM      7  C   UNL     1       1.264   9.337  19.329  0.00  0.00    +0.000 C 
ATOM      8  C   UNL     1       2.091   6.963  19.726  0.00  0.00    +0.000 C 
ATOM      9  C   UNL     1       3.343   6.109  19.562  0.00  0.00    +0.000 C 
ENDBRANCH   1   3
BRANCH   1  10
ATOM     10  O   UNL     1       5.720   5.509  16.887  0.00  0.00    +0.000 OA
BRANCH  10  12
ATOM     11  C   UNL     1       6.147   4.788  14.712  0.00  0.00    +0.000 C 
ATOM     12  C   UNL     1       6.657   4.922  16.120  0.00  0.00    +0.000 C 
ATOM     13  O   UNL     1       7.771   4.575  16.483  0.00  0.00    +0.000 OA
ENDBRANCH  10  12
ENDBRANCH   1  10
BRANCH   1  14
ATOM     14  C   UNL     1       4.672   3.369  17.609  0.00  0.00    +0.000 C 
BRANCH  14  15
ATOM     15  C   UNL     1       3.311   2.869  18.097  0.00  0.00    +0.000 C 
BRANCH  15  16
ATOM     16  C   UNL     1       3.095   2.394  19.506  0.00  0.00    +0.000 C 
ATOM     17  C   UNL     1       2.020   2.741  20.250  0.00  0.00    +0.000 C 
ATOM     18  C   UNL     1       0.745   3.316  19.691  0.00  0.00    +0.000 C 
ATOM     19  C   UNL     1       2.042   2.665  21.751  0.00  0.00    +0.000 C 
ENDBRANCH  15  16
ENDBRANCH  14  15
ENDBRANCH   1  14
TORSDOF 6
ENDMDL
MODEL 5
REMARK VINA RESULT:      -7.2      1.419      2.058
REMARK  Name = 
REMARK  11 active torsions:
REMARK  status: ('A' for Active; 'I' for Inactive)
REMARK    1  A    between atoms: C_1  and  C_2
REMARK    2  A    between atoms: C_2  and  O_4
REMARK    3  A    between atoms: O_4  and  C_5
REMARK    4  A    between atoms: C_5  and  C_6
REMARK    5  A    between atoms: C_5  and  C_7
REMARK    6  A    between atoms: C_5  and  C_13
REMARK    7  A    between atoms: C_7  and  C_8
REMARK    8  A    between atoms: C_8  and  C_9
REMARK    9  A    between atoms: C_10  and  C_11
REMARK   10  A    between atoms: C_10  and  C_12
REMARK   11  A    between atoms: C_16  and  C_17
REMARK                            x       y       z     vdW  Elec       q    Type
REMARK                         _______ _______ _______ _____ _____    ______ ____
ROOT
ATOM      1  C   UNL     1       5.379   4.259  16.926  0.00  0.00    +0.000 C 
ATOM      2  C   UNL     1       6.490   4.667  17.907  0.00  0.00    +0.000 C 
ENDROOT
BRANCH   1   3
ATOM      3  C   UNL     1       4.187   3.566  17.716  0.00  0.00    +0.000 C 
ATOM      4  C   UNL     1       2.733   3.760  17.208  0.00  0.00    +0.000 C 
ATOM      5  C   UNL     1       1.658   3.636  18.254  0.00  0.00    +0.000 C 
ATOM      6  C   UNL     1       1.876   3.315  19.538  0.00  0.00    +0.000 C 
ATOM      7  C   UNL     1       0.764   3.176  20.537  0.00  0.00    +0.000 C 
ATOM      8  C   UNL     1       3.262   3.067  20.058  0.00  0.00    +0.000 C 
ATOM      9  C   UNL     1       4.336   3.774  19.240  0.00  0.00    +0.000 C 
ENDBRANCH   1   3
BRANCH   1  10
ATOM     10  O   UNL     1       4.719   5.485  16.443  0.00  0.00    +0.000 OA
BRANCH  10  12
ATOM     11  C   UNL     1       3.846   7.272  17.659  0.00  0.00    +0.000 C 
ATOM     12  C   UNL     1       4.990   6.742  16.841  0.00  0.00    +0.000 C 
ATOM     13  O   UNL     1       6.017   7.363  16.613  0.00  0.00    +0.000 OA
ENDBRANCH  10  12
ENDBRANCH   1  10
BRANCH   1  14
ATOM     14  C   UNL     1       5.952   3.456  15.697  0.00  0.00    +0.000 C 
BRANCH  14  15
ATOM     15  C   UNL     1       5.809   4.185  14.360  0.00  0.00    +0.000 C 
BRANCH  15  16
ATOM     16  C   UNL     1       6.611   3.796  13.150  0.00  0.00    +0.000 C 
ATOM     17  C   UNL     1       6.076   3.183  12.070  0.00  0.00    +0.000 C 
ATOM     18  C   UNL     1       4.603   3.135  11.758  0.00  0.00    +0.000 C 
ATOM     19  C   UNL     1       6.923   2.395  11.111  0.00  0.00    +0.000 C 
ENDBRANCH  15  16
ENDBRANCH  14  15
ENDBRANCH   1  14
TORSDOF 6
ENDMDL
MODEL 6
REMARK VINA RESULT:      -7.1      1.526      2.289
REMARK  Name = 
REMARK  11 active torsions:
REMARK  status: ('A' for Active; 'I' for Inactive)
REMARK    1  A    between atoms: C_1  and  C_2
REMARK    2  A    between atoms: C_2  and  O_4
REMARK    3  A    between atoms: O_4  and  C_5
REMARK    4  A    between atoms: C_5  and  C_6
REMARK    5  A    between atoms: C_5  and  C_7
REMARK    6  A    between atoms: C_5  and  C_13
REMARK    7  A    between atoms: C_7  and  C_8
REMARK    8  A    between atoms: C_8  and  C_9
REMARK    9  A    between atoms: C_10  and  C_11
REMARK   10  A    between atoms: C_10  and  C_12
REMARK   11  A    between atoms: C_16  and  C_17
REMARK                            x       y       z     vdW  Elec       q    Type
REMARK                         _______ _______ _______ _____ _____    ______ ____
ROOT
ATOM      1  C   UNL     1       4.806   4.945  17.283  0.00  0.00    +0.000 C 
ATOM      2  C   UNL     1       4.530   3.434  17.354  0.00  0.00    +0.000 C 
ENDROOT
BRANCH   1   3
ATOM      3  C   UNL     1       3.562   5.749  17.858  0.00  0.00    +0.000 C 
ATOM      4  C   UNL     1       3.326   7.210  17.388  0.00  0.00    +0.000 C 
ATOM      5  C   UNL     1       2.577   8.089  18.353  0.00  0.00    +0.000 C 
ATOM      6  C   UNL     1       2.064   7.675  19.521  0.00  0.00    +0.000 C 
ATOM      7  C   UNL     1       1.298   8.587  20.437  0.00  0.00    +0.000 C 
ATOM      8  C   UNL     1       2.223   6.258  19.988  0.00  0.00    +0.000 C 
ATOM      9  C   UNL     1       3.444   5.571  19.388  0.00  0.00    +0.000 C 
ENDBRANCH   1   3
BRANCH   1  10
ATOM     10  O   UNL     1       5.836   5.272  18.285  0.00  0.00    +0.000 OA
BRANCH  10  12
ATOM     11  C   UNL     1       7.603   6.767  18.005  0.00  0.00    +0.000 C 
ATOM     12  C   UNL     1       7.164   5.330  18.068  0.00  0.00    +0.000 C 
ATOM     13  O   UNL     1       7.920   4.376  17.968  0.00  0.00    +0.000 OA
ENDBRANCH  10  12
ENDBRANCH   1  10
BRANCH   1  14
ATOM     14  C   UNL     1       5.310   5.380  15.855  0.00  0.00    +0.000 C 
BRANCH  14  15
ATOM     15  C   UNL     1       5.202   4.279  14.798  0.00  0.00    +0.000 C 
BRANCH  15  16
ATOM     16  C   UNL     1       6.267   4.063  13.760  0.00  0.00    +0.000 C 
ATOM     17  C   UNL     1       6.017   3.538  12.539  0.00  0.00    +0.000 C 
ATOM     18  C   UNL     1       4.650   3.444  11.914  0.00  0.00    +0.000 C 
ATOM     19  C   UNL     1       7.103   2.902  11.718  0.00  0.00    +0.000 C 
ENDBRANCH  15  16
ENDBRANCH  14  15
ENDBRANCH   1  14
TORSDOF 6
ENDMDL
MODEL 7
REMARK VINA RESULT:      -7.1      1.115      1.353
REMARK  Name = 
REMARK  11 active torsions:
REMARK  status: ('A' for Active; 'I' for Inactive)
REMARK    1  A    between atoms: C_1  and  C_2
REMARK    2  A    between atoms: C_2  and  O_4
REMARK    3  A    between atoms: O_4  and  C_5
REMARK    4  A    between atoms: C_5  and  C_6
REMARK    5  A    between atoms: C_5  and  C_7
REMARK    6  A    between atoms: C_5  and  C_13
REMARK    7  A    between atoms: C_7  and  C_8
REMARK    8  A    between atoms: C_8  and  C_9
REMARK    9  A    between atoms: C_10  and  C_11
REMARK   10  A    between atoms: C_10  and  C_12
REMARK   11  A    between atoms: C_16  and  C_17
REMARK                            x       y       z     vdW  Elec       q    Type
REMARK                         _______ _______ _______ _____ _____    ______ ____
ROOT
ATOM      1  C   UNL     1       5.570   4.961  17.191  0.00  0.00    +0.000 C 
ATOM      2  C   UNL     1       6.739   3.967  17.097  0.00  0.00    +0.000 C 
ENDROOT
BRANCH   1   3
ATOM      3  C   UNL     1       4.276   4.223  17.745  0.00  0.00    +0.000 C 
ATOM      4  C   UNL     1       2.928   4.992  17.782  0.00  0.00    +0.000 C 
ATOM      5  C   UNL     1       1.942   4.525  18.819  0.00  0.00    +0.000 C 
ATOM      6  C   UNL     1       2.134   3.478  19.636  0.00  0.00    +0.000 C 
ATOM      7  C   UNL     1       1.106   3.034  20.636  0.00  0.00    +0.000 C 
ATOM      8  C   UNL     1       3.401   2.675  19.595  0.00  0.00    +0.000 C 
ATOM      9  C   UNL     1       4.586   3.467  19.056  0.00  0.00    +0.000 C 
ENDBRANCH   1   3
BRANCH   1  10
ATOM     10  O   UNL     1       5.850   5.898  18.294  0.00  0.00    +0.000 OA
BRANCH  10  12
ATOM     11  C   UNL     1       7.892   7.021  18.254  0.00  0.00    +0.000 C 
ATOM     12  C   UNL     1       7.017   6.020  18.954  0.00  0.00    +0.000 C 
ATOM     13  O   UNL     1       7.324   5.440  19.985  0.00  0.00    +0.000 OA
ENDBRANCH  10  12
ENDBRANCH   1  10
BRANCH   1  14
ATOM     14  C   UNL     1       5.384   5.772  15.852  0.00  0.00    +0.000 C 
BRANCH  14  15
ATOM     15  C   UNL     1       6.000   5.094  14.628  0.00  0.00    +0.000 C 
BRANCH  15  16
ATOM     16  C   UNL     1       5.249   4.078  13.815  0.00  0.00    +0.000 C 
ATOM     17  C   UNL     1       5.650   3.660  12.593  0.00  0.00    +0.000 C 
ATOM     18  C   UNL     1       7.039   3.847  12.041  0.00  0.00    +0.000 C 
ATOM     19  C   UNL     1       4.690   3.038  11.618  0.00  0.00    +0.000 C 
ENDBRANCH  15  16
ENDBRANCH  14  15
ENDBRANCH   1  14
TORSDOF 6
ENDMDL
MODEL 8
REMARK VINA RESULT:      -7.1      2.592      4.345
REMARK  Name = 
REMARK  11 active torsions:
REMARK  status: ('A' for Active; 'I' for Inactive)
REMARK    1  A    between atoms: C_1  and  C_2
REMARK    2  A    between atoms: C_2  and  O_4
REMARK    3  A    between atoms: O_4  and  C_5
REMARK    4  A    between atoms: C_5  and  C_6
REMARK    5  A    between atoms: C_5  and  C_7
REMARK    6  A    between atoms: C_5  and  C_13
REMARK    7  A    between atoms: C_7  and  C_8
REMARK    8  A    between atoms: C_8  and  C_9
REMARK    9  A    between atoms: C_10  and  C_11
REMARK   10  A    between atoms: C_10  and  C_12
REMARK   11  A    between atoms: C_16  and  C_17
REMARK                            x       y       z     vdW  Elec       q    Type
REMARK                         _______ _______ _______ _____ _____    ______ ____
ROOT
ATOM      1  C   UNL     1       4.843   5.580  17.745  0.00  0.00    +0.000 C 
ATOM      2  C   UNL     1       5.573   5.105  19.012  0.00  0.00    +0.000 C 
ENDROOT
BRANCH   1   3
ATOM      3  C   UNL     1       3.501   6.332  18.145  0.00  0.00    +0.000 C 
ATOM      4  C   UNL     1       3.208   7.728  17.533  0.00  0.00    +0.000 C 
ATOM      5  C   UNL     1       2.319   8.623  18.354  0.00  0.00    +0.000 C 
ATOM      6  C   UNL     1       1.736   8.267  19.508  0.00  0.00    +0.000 C 
ATOM      7  C   UNL     1       0.832   9.188  20.276  0.00  0.00    +0.000 C 
ATOM      8  C   UNL     1       1.949   6.907  20.106  0.00  0.00    +0.000 C 
ATOM      9  C   UNL     1       3.263   6.269  19.670  0.00  0.00    +0.000 C 
ENDBRANCH   1   3
BRANCH   1  10
ATOM     10  O   UNL     1       5.618   6.687  17.155  0.00  0.00    +0.000 OA
BRANCH  10  12
ATOM     11  C   UNL     1       7.644   7.675  17.747  0.00  0.00    +0.000 C 
ATOM     12  C   UNL     1       6.935   6.674  16.878  0.00  0.00    +0.000 C 
ATOM     13  O   UNL     1       7.494   5.945  16.073  0.00  0.00    +0.000 OA
ENDBRANCH  10  12
ENDBRANCH   1  10
BRANCH   1  14
ATOM     14  C   UNL     1       4.698   4.422  16.686  0.00  0.00    +0.000 C 
BRANCH  14  15
ATOM     15  C   UNL     1       4.000   3.173  17.226  0.00  0.00    +0.000 C 
BRANCH  15  16
ATOM     16  C   UNL     1       2.529   3.150  17.531  0.00  0.00    +0.000 C 
ATOM     17  C   UNL     1       2.026   2.790  18.733  0.00  0.00    +0.000 C 
ATOM     18  C   UNL     1       2.825   2.726  20.009  0.00  0.00    +0.000 C 
ATOM     19  C   UNL     1       0.606   2.321  18.886  0.00  0.00    +0.000 C 
ENDBRANCH  15  16
ENDBRANCH  14  15
ENDBRANCH   1  14
TORSDOF 6
ENDMDL
MODEL 9
REMARK VINA RESULT:      -7.1      0.839      1.106
REMARK  Name = 
REMARK  11 active torsions:
REMARK  status: ('A' for Active; 'I' for Inactive)
REMARK    1  A    between atoms: C_1  and  C_2
REMARK    2  A    between atoms: C_2  and  O_4
REMARK    3  A    between atoms: O_4  and  C_5
REMARK    4  A    between atoms: C_5  and  C_6
REMARK    5  A    between atoms: C_5  and  C_7
REMARK    6  A    between atoms: C_5  and  C_13
REMARK    7  A    between atoms: C_7  and  C_8
REMARK    8  A    between atoms: C_8  and  C_9
REMARK    9  A    between atoms: C_10  and  C_11
REMARK   10  A    between atoms: C_10  and  C_12
REMARK   11  A    between atoms: C_16  and  C_17
REMARK                            x       y       z     vdW  Elec       q    Type
REMARK                         _______ _______ _______ _____ _____    ______ ____
ROOT
ATOM      1  C   UNL     1       5.634   5.351  17.163  0.00  0.00    +0.000 C 
ATOM      2  C   UNL     1       6.701   4.245  17.154  0.00  0.00    +0.000 C 
ENDROOT
BRANCH   1   3
ATOM      3  C   UNL     1       4.468   4.969  18.172  0.00  0.00    +0.000 C 
ATOM      4  C   UNL     1       4.663   3.761  19.127  0.00  0.00    +0.000 C 
ATOM      5  C   UNL     1       3.399   3.083  19.584  0.00  0.00    +0.000 C 
ATOM      6  C   UNL     1       2.159   3.493  19.275  0.00  0.00    +0.000 C 
ATOM      7  C   UNL     1       0.928   2.798  19.780  0.00  0.00    +0.000 C 
ATOM      8  C   UNL     1       1.926   4.689  18.399  0.00  0.00    +0.000 C 
ATOM      9  C   UNL     1       3.095   4.974  17.463  0.00  0.00    +0.000 C 
ENDBRANCH   1   3
BRANCH   1  10
ATOM     10  O   UNL     1       6.204   6.535  17.830  0.00  0.00    +0.000 OA
BRANCH  10  12
ATOM     11  C   UNL     1       8.219   6.805  18.970  0.00  0.00    +0.000 C 
ATOM     12  C   UNL     1       7.459   6.999  17.687  0.00  0.00    +0.000 C 
ATOM     13  O   UNL     1       7.939   7.476  16.670  0.00  0.00    +0.000 OA
ENDBRANCH  10  12
ENDBRANCH   1  10
BRANCH   1  14
ATOM     14  C   UNL     1       5.184   5.740  15.703  0.00  0.00    +0.000 C 
BRANCH  14  15
ATOM     15  C   UNL     1       5.964   5.019  14.603  0.00  0.00    +0.000 C 
BRANCH  15  16
ATOM     16  C   UNL     1       5.353   3.918  13.782  0.00  0.00    +0.000 C 
ATOM     17  C   UNL     1       5.791   3.581  12.548  0.00  0.00    +0.000 C 
ATOM     18  C   UNL     1       7.130   3.974  11.981  0.00  0.00    +0.000 C 
ATOM     19  C   UNL     1       4.915   2.843  11.575  0.00  0.00    +0.000 C 
ENDBRANCH  15  16
ENDBRANCH  14  15
ENDBRANCH   1  14
TORSDOF 6
ENDMDL
