MODEL 1
REMARK VINA RESULT:      -7.0      0.000      0.000
REMARK  Name = 
REMARK  6 active torsions:
REMARK  status: ('A' for Active; 'I' for Inactive)
REMARK    1  A    between atoms: C_1  and  C_2
REMARK    2  A    between atoms: C_4  and  C_5
REMARK    3  A    between atoms: C_12  and  N_13
REMARK    4  A    between atoms: N_13  and  C_14
REMARK    5  A    between atoms: C_14  and  C_15
REMARK    6  A    between atoms: C_15  and  N_16
REMARK                            x       y       z     vdW  Elec       q    Type
REMARK                         _______ _______ _______ _____ _____    ______ ____
ROOT
ATOM      1  C   UNL     1       8.156   5.921  19.392  0.00  0.00    +0.000 C 
ATOM      2  C   UNL     1       6.994   6.044  18.450  0.00  0.00    +0.000 A 
ATOM      3  C   UNL     1       5.882   5.204  18.629  0.00  0.00    +0.000 A 
ATOM      4  C   UNL     1       4.790   5.309  17.782  0.00  0.00    +0.000 A 
ATOM      5  N   UNL     1       4.780   6.232  16.805  0.00  0.00    +0.000 NA
ATOM      6  N   UNL     1       5.864   7.075  16.643  0.00  0.00    +0.000 NA
ATOM      7  C   UNL     1       6.960   6.998  17.433  0.00  0.00    +0.000 A 
ENDROOT
BRANCH   4   8
ATOM      8  C   UNL     1       3.587   4.477  17.880  0.00  0.00    +0.000 A 
ATOM      9  C   UNL     1       2.262   4.873  17.934  0.00  0.00    +0.000 A 
ATOM     10  C   UNL     1       1.353   3.774  18.022  0.00  0.00    +0.000 A 
ATOM     11  C   UNL     1       2.013   2.565  18.013  0.00  0.00    +0.000 A 
ATOM     12  S   UNL     1       3.704   2.756  17.904  0.00  0.00    +0.000 S 
ENDBRANCH   4   8
BRANCH   7  13
ATOM     13  N   UNL     1       8.029   7.900  17.277  0.00  0.00    +0.000 N 
ATOM     14  H   UNL     1       8.434   7.859  16.350  0.00  0.00    +0.000 HD
BRANCH  13  15
ATOM     15  C   UNL     1       7.827   9.233  17.853  0.00  0.00    +0.000 C 
BRANCH  15  16
ATOM     16  C   UNL     1       9.029   9.767  18.666  0.00  0.00    +0.000 C 
BRANCH  16  17
ATOM     17  N   UNL     1       9.216  11.228  18.496  0.00  0.00    +0.000 NA
ATOM     18  C   UNL     1      10.498  11.593  17.844  0.00  0.00    +0.000 C 
ATOM     19  C   UNL     1      11.720  11.364  18.742  0.00  0.00    +0.000 C 
ATOM     20  O   UNL     1      11.613  12.137  19.944  0.00  0.00    +0.000 OA
ATOM     21  C   UNL     1      10.411  11.818  20.658  0.00  0.00    +0.000 C 
ATOM     22  C   UNL     1       9.154  11.964  19.779  0.00  0.00    +0.000 C 
ENDBRANCH  16  17
ENDBRANCH  15  16
ENDBRANCH  13  15
ENDBRANCH   7  13
TORSDOF 5
ENDMDL
MODEL 2
REMARK VINA RESULT:      -6.8      4.629      6.611
REMARK  Name = 
REMARK  6 active torsions:
REMARK  status: ('A' for Active; 'I' for Inactive)
REMARK    1  A    between atoms: C_1  and  C_2
REMARK    2  A    between atoms: C_4  and  C_5
REMARK    3  A    between atoms: C_12  and  N_13
REMARK    4  A    between atoms: N_13  and  C_14
REMARK    5  A    between atoms: C_14  and  C_15
REMARK    6  A    between atoms: C_15  and  N_16
REMARK                            x       y       z     vdW  Elec       q    Type
REMARK                         _______ _______ _______ _____ _____    ______ ____
ROOT
ATOM      1  C   UNL     1       3.409   7.443  17.261  0.00  0.00    +0.000 C 
ATOM      2  C   UNL     1       2.729   7.164  18.570  0.00  0.00    +0.000 A 
ATOM      3  C   UNL     1       2.065   8.213  19.227  0.00  0.00    +0.000 A 
ATOM      4  C   UNL     1       1.416   7.978  20.429  0.00  0.00    +0.000 A 
ATOM      5  N   UNL     1       1.397   6.742  20.955  0.00  0.00    +0.000 NA
ATOM      6  N   UNL     1       2.030   5.704  20.297  0.00  0.00    +0.000 NA
ATOM      7  C   UNL     1       2.692   5.888  19.131  0.00  0.00    +0.000 A 
ENDROOT
BRANCH   4   8
ATOM      8  C   UNL     1       0.702   9.004  21.196  0.00  0.00    +0.000 A 
ATOM      9  C   UNL     1       0.046   8.880  22.407  0.00  0.00    +0.000 A 
ATOM     10  C   UNL     1      -0.535  10.105  22.857  0.00  0.00    +0.000 A 
ATOM     11  C   UNL     1      -0.289  11.138  21.980  0.00  0.00    +0.000 A 
ATOM     12  S   UNL     1       0.627  10.633  20.633  0.00  0.00    +0.000 S 
ENDBRANCH   4   8
BRANCH   7  13
ATOM     13  N   UNL     1       3.286   4.805  18.459  0.00  0.00    +0.000 N 
ATOM     14  H   UNL     1       3.302   4.937  17.454  0.00  0.00    +0.000 HD
BRANCH  13  15
ATOM     15  C   UNL     1       4.502   4.262  19.073  0.00  0.00    +0.000 C 
BRANCH  15  16
ATOM     16  C   UNL     1       5.591   5.317  19.375  0.00  0.00    +0.000 C 
BRANCH  16  17
ATOM     17  N   UNL     1       6.910   4.937  18.813  0.00  0.00    +0.000 NA
ATOM     18  C   UNL     1       7.917   6.025  18.869  0.00  0.00    +0.000 C 
ATOM     19  C   UNL     1       7.630   7.166  17.884  0.00  0.00    +0.000 C 
ATOM     20  O   UNL     1       7.602   6.673  16.539  0.00  0.00    +0.000 OA
ATOM     21  C   UNL     1       6.624   5.636  16.389  0.00  0.00    +0.000 C 
ATOM     22  C   UNL     1       6.824   4.494  17.404  0.00  0.00    +0.000 C 
ENDBRANCH  16  17
ENDBRANCH  15  16
ENDBRANCH  13  15
ENDBRANCH   7  13
TORSDOF 5
ENDMDL
MODEL 3
REMARK VINA RESULT:      -6.7      4.170      6.300
REMARK  Name = 
REMARK  6 active torsions:
REMARK  status: ('A' for Active; 'I' for Inactive)
REMARK    1  A    between atoms: C_1  and  C_2
REMARK    2  A    between atoms: C_4  and  C_5
REMARK    3  A    between atoms: C_12  and  N_13
REMARK    4  A    between atoms: N_13  and  C_14
REMARK    5  A    between atoms: C_14  and  C_15
REMARK    6  A    between atoms: C_15  and  N_16
REMARK                            x       y       z     vdW  Elec       q    Type
REMARK                         _______ _______ _______ _____ _____    ______ ____
ROOT
ATOM      1  C   UNL     1       2.179   3.817  21.163  0.00  0.00    +0.000 C 
ATOM      2  C   UNL     1       2.297   5.028  20.284  0.00  0.00    +0.000 A 
ATOM      3  C   UNL     1       1.754   6.245  20.729  0.00  0.00    +0.000 A 
ATOM      4  C   UNL     1       1.864   7.382  19.943  0.00  0.00    +0.000 A 
ATOM      5  N   UNL     1       2.512   7.330  18.767  0.00  0.00    +0.000 NA
ATOM      6  N   UNL     1       3.067   6.137  18.339  0.00  0.00    +0.000 NA
ATOM      7  C   UNL     1       2.970   4.998  19.063  0.00  0.00    +0.000 A 
ENDROOT
BRANCH   4   8
ATOM      8  C   UNL     1       1.327   8.696  20.313  0.00  0.00    +0.000 A 
ATOM      9  C   UNL     1       0.904   9.721  19.487  0.00  0.00    +0.000 A 
ATOM     10  C   UNL     1       0.434  10.861  20.208  0.00  0.00    +0.000 A 
ATOM     11  C   UNL     1       0.495  10.664  21.569  0.00  0.00    +0.000 A 
ATOM     12  S   UNL     1       1.115   9.127  21.969  0.00  0.00    +0.000 S 
ENDBRANCH   4   8
BRANCH   7  13
ATOM     13  N   UNL     1       3.585   3.810  18.627  0.00  0.00    +0.000 N 
ATOM     14  H   UNL     1       3.227   3.497  17.732  0.00  0.00    +0.000 HD
BRANCH  13  15
ATOM     15  C   UNL     1       5.037   3.735  18.821  0.00  0.00    +0.000 C 
BRANCH  15  16
ATOM     16  C   UNL     1       5.714   5.096  19.107  0.00  0.00    +0.000 C 
BRANCH  16  17
ATOM     17  N   UNL     1       7.156   5.087  18.763  0.00  0.00    +0.000 NA
ATOM     18  C   UNL     1       7.767   6.439  18.722  0.00  0.00    +0.000 C 
ATOM     19  C   UNL     1       7.305   7.275  17.521  0.00  0.00    +0.000 C 
ATOM     20  O   UNL     1       7.636   6.614  16.293  0.00  0.00    +0.000 OA
ATOM     21  C   UNL     1       7.052   5.306  16.235  0.00  0.00    +0.000 C 
ATOM     22  C   UNL     1       7.427   4.446  17.457  0.00  0.00    +0.000 C 
ENDBRANCH  16  17
ENDBRANCH  15  16
ENDBRANCH  13  15
ENDBRANCH   7  13
TORSDOF 5
ENDMDL
MODEL 4
REMARK VINA RESULT:      -6.5      5.790      8.306
REMARK  Name = 
REMARK  6 active torsions:
REMARK  status: ('A' for Active; 'I' for Inactive)
REMARK    1  A    between atoms: C_1  and  C_2
REMARK    2  A    between atoms: C_4  and  C_5
REMARK    3  A    between atoms: C_12  and  N_13
REMARK    4  A    between atoms: N_13  and  C_14
REMARK    5  A    between atoms: C_14  and  C_15
REMARK    6  A    between atoms: C_15  and  N_16
REMARK                            x       y       z     vdW  Elec       q    Type
REMARK                         _______ _______ _______ _____ _____    ______ ____
ROOT
ATOM      1  C   UNL     1       4.728   6.952  16.234  0.00  0.00    +0.000 C 
ATOM      2  C   UNL     1       3.948   6.867  17.513  0.00  0.00    +0.000 A 
ATOM      3  C   UNL     1       3.041   7.893  17.825  0.00  0.00    +0.000 A 
ATOM      4  C   UNL     1       2.296   7.830  18.992  0.00  0.00    +0.000 A 
ATOM      5  N   UNL     1       2.420   6.775  19.815  0.00  0.00    +0.000 NA
ATOM      6  N   UNL     1       3.295   5.753  19.498  0.00  0.00    +0.000 NA
ATOM      7  C   UNL     1       4.056   5.779  18.379  0.00  0.00    +0.000 A 
ENDROOT
BRANCH   4   8
ATOM      8  C   UNL     1       1.330   8.850  19.411  0.00  0.00    +0.000 A 
ATOM      9  C   UNL     1       0.832   9.104  20.676  0.00  0.00    +0.000 A 
ATOM     10  C   UNL     1      -0.097  10.189  20.705  0.00  0.00    +0.000 A 
ATOM     11  C   UNL     1      -0.266  10.747  19.457  0.00  0.00    +0.000 A 
ATOM     12  S   UNL     1       0.678   9.969  18.270  0.00  0.00    +0.000 S 
ENDBRANCH   4   8
BRANCH   7  13
ATOM     13  N   UNL     1       4.904   4.703  18.056  0.00  0.00    +0.000 N 
ATOM     14  H   UNL     1       5.496   4.433  18.832  0.00  0.00    +0.000 HD
BRANCH  13  15
ATOM     15  C   UNL     1       4.290   3.618  17.284  0.00  0.00    +0.000 C 
BRANCH  15  16
ATOM     16  C   UNL     1       2.752   3.526  17.422  0.00  0.00    +0.000 C 
BRANCH  16  17
ATOM     17  N   UNL     1       2.319   2.243  18.027  0.00  0.00    +0.000 NA
ATOM     18  C   UNL     1       0.974   2.302  18.649  0.00  0.00    +0.000 C 
ATOM     19  C   UNL     1       0.943   3.125  19.944  0.00  0.00    +0.000 C 
ATOM     20  O   UNL     1       1.842   2.571  20.913  0.00  0.00    +0.000 OA
ATOM     21  C   UNL     1       3.181   2.511  20.400  0.00  0.00    +0.000 C 
ATOM     22  C   UNL     1       3.258   1.754  19.061  0.00  0.00    +0.000 C 
ENDBRANCH  16  17
ENDBRANCH  15  16
ENDBRANCH  13  15
ENDBRANCH   7  13
TORSDOF 5
ENDMDL
MODEL 5
REMARK VINA RESULT:      -6.4      5.391      7.504
REMARK  Name = 
REMARK  6 active torsions:
REMARK  status: ('A' for Active; 'I' for Inactive)
REMARK    1  A    between atoms: C_1  and  C_2
REMARK    2  A    between atoms: C_4  and  C_5
REMARK    3  A    between atoms: C_12  and  N_13
REMARK    4  A    between atoms: N_13  and  C_14
REMARK    5  A    between atoms: C_14  and  C_15
REMARK    6  A    between atoms: C_15  and  N_16
REMARK                            x       y       z     vdW  Elec       q    Type
REMARK                         _______ _______ _______ _____ _____    ______ ____
ROOT
ATOM      1  C   UNL     1       2.187   5.678  20.712  0.00  0.00    +0.000 C 
ATOM      2  C   UNL     1       1.825   7.043  20.202  0.00  0.00    +0.000 A 
ATOM      3  C   UNL     1       1.170   7.938  21.063  0.00  0.00    +0.000 A 
ATOM      4  C   UNL     1       0.840   9.210  20.621  0.00  0.00    +0.000 A 
ATOM      5  N   UNL     1       1.169   9.599  19.378  0.00  0.00    +0.000 NA
ATOM      6  N   UNL     1       1.836   8.726  18.537  0.00  0.00    +0.000 NA
ATOM      7  C   UNL     1       2.163   7.469  18.917  0.00  0.00    +0.000 A 
ENDROOT
BRANCH   4   8
ATOM      8  C   UNL     1       0.151  10.215  21.438  0.00  0.00    +0.000 A 
ATOM      9  C   UNL     1      -0.644  10.026  22.553  0.00  0.00    +0.000 A 
ATOM     10  C   UNL     1      -1.147  11.248  23.095  0.00  0.00    +0.000 A 
ATOM     11  C   UNL     1      -0.703  12.341  22.384  0.00  0.00    +0.000 A 
ATOM     12  S   UNL     1       0.302  11.895  21.080  0.00  0.00    +0.000 S 
ENDBRANCH   4   8
BRANCH   7  13
ATOM     13  N   UNL     1       2.883   6.619  18.059  0.00  0.00    +0.000 N 
ATOM     14  H   UNL     1       2.302   6.231  17.325  0.00  0.00    +0.000 HD
BRANCH  13  15
ATOM     15  C   UNL     1       4.216   7.087  17.668  0.00  0.00    +0.000 C 
BRANCH  15  16
ATOM     16  C   UNL     1       4.884   6.254  16.550  0.00  0.00    +0.000 C 
BRANCH  16  17
ATOM     17  N   UNL     1       5.125   4.851  16.963  0.00  0.00    +0.000 NA
ATOM     18  C   UNL     1       5.990   4.723  18.162  0.00  0.00    +0.000 C 
ATOM     19  C   UNL     1       7.458   5.079  17.889  0.00  0.00    +0.000 C 
ATOM     20  O   UNL     1       8.000   4.227  16.873  0.00  0.00    +0.000 OA
ATOM     21  C   UNL     1       7.239   4.318  15.661  0.00  0.00    +0.000 C 
ATOM     22  C   UNL     1       5.741   4.037  15.891  0.00  0.00    +0.000 C 
ENDBRANCH  16  17
ENDBRANCH  15  16
ENDBRANCH  13  15
ENDBRANCH   7  13
TORSDOF 5
ENDMDL
MODEL 6
REMARK VINA RESULT:      -6.4      5.450      7.460
REMARK  Name = 
REMARK  6 active torsions:
REMARK  status: ('A' for Active; 'I' for Inactive)
REMARK    1  A    between atoms: C_1  and  C_2
REMARK    2  A    between atoms: C_4  and  C_5
REMARK    3  A    between atoms: C_12  and  N_13
REMARK    4  A    between atoms: N_13  and  C_14
REMARK    5  A    between atoms: C_14  and  C_15
REMARK    6  A    between atoms: C_15  and  N_16
REMARK                            x       y       z     vdW  Elec       q    Type
REMARK                         _______ _______ _______ _____ _____    ______ ____
ROOT
ATOM      1  C   UNL     1       2.502   8.266  17.526  0.00  0.00    +0.000 C 
ATOM      2  C   UNL     1       1.995   8.141  18.932  0.00  0.00    +0.000 A 
ATOM      3  C   UNL     1       1.344   9.239  19.520  0.00  0.00    +0.000 A 
ATOM      4  C   UNL     1       0.852   9.144  20.812  0.00  0.00    +0.000 A 
ATOM      5  N   UNL     1       0.971   7.994  21.496  0.00  0.00    +0.000 NA
ATOM      6  N   UNL     1       1.590   6.905  20.910  0.00  0.00    +0.000 NA
ATOM      7  C   UNL     1       2.102   6.955  19.659  0.00  0.00    +0.000 A 
ENDROOT
BRANCH   4   8
ATOM      8  C   UNL     1       0.165  10.232  21.516  0.00  0.00    +0.000 A 
ATOM      9  C   UNL     1      -0.630  10.166  22.646  0.00  0.00    +0.000 A 
ATOM     10  C   UNL     1      -1.129  11.441  23.053  0.00  0.00    +0.000 A 
ATOM     11  C   UNL     1      -0.684  12.450  22.228  0.00  0.00    +0.000 A 
ATOM     12  S   UNL     1       0.319  11.864  20.980  0.00  0.00    +0.000 S 
ENDBRANCH   4   8
BRANCH   7  13
ATOM     13  N   UNL     1       2.684   5.818  19.070  0.00  0.00    +0.000 N 
ATOM     14  H   UNL     1       2.471   5.745  18.082  0.00  0.00    +0.000 HD
BRANCH  13  15
ATOM     15  C   UNL     1       4.064   5.527  19.472  0.00  0.00    +0.000 C 
BRANCH  15  16
ATOM     16  C   UNL     1       4.916   4.839  18.381  0.00  0.00    +0.000 C 
BRANCH  16  17
ATOM     17  N   UNL     1       4.888   5.580  17.097  0.00  0.00    +0.000 NA
ATOM     18  C   UNL     1       5.365   4.785  15.939  0.00  0.00    +0.000 C 
ATOM     19  C   UNL     1       6.879   4.532  15.962  0.00  0.00    +0.000 C 
ATOM     20  O   UNL     1       7.595   5.773  15.957  0.00  0.00    +0.000 OA
ATOM     21  C   UNL     1       7.217   6.592  17.071  0.00  0.00    +0.000 C 
ATOM     22  C   UNL     1       5.695   6.821  17.137  0.00  0.00    +0.000 C 
ENDBRANCH  16  17
ENDBRANCH  15  16
ENDBRANCH  13  15
ENDBRANCH   7  13
TORSDOF 5
ENDMDL
MODEL 7
REMARK VINA RESULT:      -6.4      5.109      7.258
REMARK  Name = 
REMARK  6 active torsions:
REMARK  status: ('A' for Active; 'I' for Inactive)
REMARK    1  A    between atoms: C_1  and  C_2
REMARK    2  A    between atoms: C_4  and  C_5
REMARK    3  A    between atoms: C_12  and  N_13
REMARK    4  A    between atoms: N_13  and  C_14
REMARK    5  A    between atoms: C_14  and  C_15
REMARK    6  A    between atoms: C_15  and  N_16
REMARK                            x       y       z     vdW  Elec       q    Type
REMARK                         _______ _______ _______ _____ _____    ______ ____
ROOT
ATOM      1  C   UNL     1       1.866   4.612  21.057  0.00  0.00    +0.000 C 
ATOM      2  C   UNL     1       1.807   6.018  20.536  0.00  0.00    +0.000 A 
ATOM      3  C   UNL     1       1.092   6.984  21.264  0.00  0.00    +0.000 A 
ATOM      4  C   UNL     1       1.037   8.293  20.813  0.00  0.00    +0.000 A 
ATOM      5  N   UNL     1       1.688   8.649  19.692  0.00  0.00    +0.000 NA
ATOM      6  N   UNL     1       2.411   7.704  18.987  0.00  0.00    +0.000 NA
ATOM      7  C   UNL     1       2.480   6.411  19.378  0.00  0.00    +0.000 A 
ENDROOT
BRANCH   4   8
ATOM      8  C   UNL     1       0.313   9.371  21.494  0.00  0.00    +0.000 A 
ATOM      9  C   UNL     1      -0.355   9.335  22.705  0.00  0.00    +0.000 A 
ATOM     10  C   UNL     1      -0.942  10.589  23.057  0.00  0.00    +0.000 A 
ATOM     11  C   UNL     1      -0.688  11.555  22.109  0.00  0.00    +0.000 A 
ATOM     12  S   UNL     1       0.243  10.954  20.813  0.00  0.00    +0.000 S 
ENDBRANCH   4   8
BRANCH   7  13
ATOM     13  N   UNL     1       3.262   5.482  18.669  0.00  0.00    +0.000 N 
ATOM     14  H   UNL     1       3.142   5.563  17.666  0.00  0.00    +0.000 HD
BRANCH  13  15
ATOM     15  C   UNL     1       4.632   5.297  19.158  0.00  0.00    +0.000 C 
BRANCH  15  16
ATOM     16  C   UNL     1       5.528   4.434  18.239  0.00  0.00    +0.000 C 
BRANCH  16  17
ATOM     17  N   UNL     1       6.610   5.225  17.606  0.00  0.00    +0.000 NA
ATOM     18  C   UNL     1       6.150   6.516  17.038  0.00  0.00    +0.000 C 
ATOM     19  C   UNL     1       5.296   6.350  15.775  0.00  0.00    +0.000 C 
ATOM     20  O   UNL     1       6.035   5.668  14.754  0.00  0.00    +0.000 OA
ATOM     21  C   UNL     1       6.488   4.388  15.212  0.00  0.00    +0.000 C 
ATOM     22  C   UNL     1       7.296   4.489  16.521  0.00  0.00    +0.000 C 
ENDBRANCH  16  17
ENDBRANCH  15  16
ENDBRANCH  13  15
ENDBRANCH   7  13
TORSDOF 5
ENDMDL
MODEL 8
REMARK VINA RESULT:      -6.4      6.389      8.959
REMARK  Name = 
REMARK  6 active torsions:
REMARK  status: ('A' for Active; 'I' for Inactive)
REMARK    1  A    between atoms: C_1  and  C_2
REMARK    2  A    between atoms: C_4  and  C_5
REMARK    3  A    between atoms: C_12  and  N_13
REMARK    4  A    between atoms: N_13  and  C_14
REMARK    5  A    between atoms: C_14  and  C_15
REMARK    6  A    between atoms: C_15  and  N_16
REMARK                            x       y       z     vdW  Elec       q    Type
REMARK                         _______ _______ _______ _____ _____    ______ ____
ROOT
ATOM      1  C   UNL     1       3.415   6.965  17.665  0.00  0.00    +0.000 C 
ATOM      2  C   UNL     1       2.534   7.680  18.647  0.00  0.00    +0.000 A 
ATOM      3  C   UNL     1       1.867   8.847  18.237  0.00  0.00    +0.000 A 
ATOM      4  C   UNL     1       1.035   9.516  19.120  0.00  0.00    +0.000 A 
ATOM      5  N   UNL     1       0.842   9.037  20.361  0.00  0.00    +0.000 NA
ATOM      6  N   UNL     1       1.479   7.876  20.757  0.00  0.00    +0.000 NA
ATOM      7  C   UNL     1       2.314   7.197  19.937  0.00  0.00    +0.000 A 
ENDROOT
BRANCH   4   8
ATOM      8  C   UNL     1       0.301  10.744  18.794  0.00  0.00    +0.000 A 
ATOM      9  C   UNL     1       0.745  12.053  18.830  0.00  0.00    +0.000 A 
ATOM     10  C   UNL     1      -0.255  12.994  18.437  0.00  0.00    +0.000 A 
ATOM     11  C   UNL     1      -1.434  12.370  18.093  0.00  0.00    +0.000 A 
ATOM     12  S   UNL     1      -1.333  10.675  18.247  0.00  0.00    +0.000 S 
ENDBRANCH   4   8
BRANCH   7  13
ATOM     13  N   UNL     1       2.912   5.992  20.350  0.00  0.00    +0.000 N 
ATOM     14  H   UNL     1       3.624   6.137  21.055  0.00  0.00    +0.000 HD
BRANCH  13  15
ATOM     15  C   UNL     1       1.997   4.865  20.557  0.00  0.00    +0.000 C 
BRANCH  15  16
ATOM     16  C   UNL     1       2.689   3.485  20.631  0.00  0.00    +0.000 C 
BRANCH  16  17
ATOM     17  N   UNL     1       2.035   2.482  19.756  0.00  0.00    +0.000 NA
ATOM     18  C   UNL     1       2.971   1.798  18.830  0.00  0.00    +0.000 C 
ATOM     19  C   UNL     1       3.479   2.706  17.703  0.00  0.00    +0.000 C 
ATOM     20  O   UNL     1       2.384   3.199  16.922  0.00  0.00    +0.000 OA
ATOM     21  C   UNL     1       1.444   3.909  17.740  0.00  0.00    +0.000 C 
ATOM     22  C   UNL     1       0.952   3.064  18.931  0.00  0.00    +0.000 C 
ENDBRANCH  16  17
ENDBRANCH  15  16
ENDBRANCH  13  15
ENDBRANCH   7  13
TORSDOF 5
ENDMDL
MODEL 9
REMARK VINA RESULT:      -6.4      1.075      1.243
REMARK  Name = 
REMARK  6 active torsions:
REMARK  status: ('A' for Active; 'I' for Inactive)
REMARK    1  A    between atoms: C_1  and  C_2
REMARK    2  A    between atoms: C_4  and  C_5
REMARK    3  A    between atoms: C_12  and  N_13
REMARK    4  A    between atoms: N_13  and  C_14
REMARK    5  A    between atoms: C_14  and  C_15
REMARK    6  A    between atoms: C_15  and  N_16
REMARK                            x       y       z     vdW  Elec       q    Type
REMARK                         _______ _______ _______ _____ _____    ______ ____
ROOT
ATOM      1  C   UNL     1       8.106   5.785  19.356  0.00  0.00    +0.000 C 
ATOM      2  C   UNL     1       6.838   6.029  18.591  0.00  0.00    +0.000 A 
ATOM      3  C   UNL     1       5.701   5.264  18.897  0.00  0.00    +0.000 A 
ATOM      4  C   UNL     1       4.513   5.482  18.216  0.00  0.00    +0.000 A 
ATOM      5  N   UNL     1       4.439   6.443  17.280  0.00  0.00    +0.000 NA
ATOM      6  N   UNL     1       5.552   7.213  16.994  0.00  0.00    +0.000 NA
ATOM      7  C   UNL     1       6.737   7.025  17.619  0.00  0.00    +0.000 A 
ENDROOT
BRANCH   4   8
ATOM      8  C   UNL     1       3.275   4.735  18.456  0.00  0.00    +0.000 A 
ATOM      9  C   UNL     1       2.660   3.796  17.647  0.00  0.00    +0.000 A 
ATOM     10  C   UNL     1       1.459   3.269  18.215  0.00  0.00    +0.000 A 
ATOM     11  C   UNL     1       1.202   3.810  19.455  0.00  0.00    +0.000 A 
ATOM     12  S   UNL     1       2.391   4.940  19.923  0.00  0.00    +0.000 S 
ENDBRANCH   4   8
BRANCH   7  13
ATOM     13  N   UNL     1       7.839   7.854  17.343  0.00  0.00    +0.000 N 
ATOM     14  H   UNL     1       8.155   7.768  16.385  0.00  0.00    +0.000 HD
BRANCH  13  15
ATOM     15  C   UNL     1       7.772   9.210  17.897  0.00  0.00    +0.000 C 
BRANCH  15  16
ATOM     16  C   UNL     1       9.129   9.951  17.941  0.00  0.00    +0.000 C 
BRANCH  16  17
ATOM     17  N   UNL     1       9.055  11.211  18.718  0.00  0.00    +0.000 NA
ATOM     18  C   UNL     1       9.235  12.431  17.893  0.00  0.00    +0.000 C 
ATOM     19  C   UNL     1      10.674  12.618  17.395  0.00  0.00    +0.000 C 
ATOM     20  O   UNL     1      11.580  12.708  18.501  0.00  0.00    +0.000 OA
ATOM     21  C   UNL     1      11.496  11.545  19.335  0.00  0.00    +0.000 C 
ATOM     22  C   UNL     1      10.055  11.270  19.808  0.00  0.00    +0.000 C 
ENDBRANCH  16  17
ENDBRANCH  15  16
ENDBRANCH  13  15
ENDBRANCH   7  13
TORSDOF 5
ENDMDL
