MODEL 1
REMARK VINA RESULT:      -5.9      0.000      0.000
REMARK  Name = 
REMARK  4 active torsions:
REMARK  status: ('A' for Active; 'I' for Inactive)
REMARK    1  A    between atoms: C_1  and  C_2
REMARK    2  A    between atoms: C_4  and  C_5
REMARK    3  A    between atoms: C_5  and  C_6
REMARK    4  A    between atoms: C_12  and  C_13
REMARK                            x       y       z     vdW  Elec       q    Type
REMARK                         _______ _______ _______ _____ _____    ______ ____
ROOT
ATOM      1  C   UNL     1       6.159   3.813  15.220  0.00  0.00    +0.000 C 
ATOM      2  C   UNL     1       5.578   4.343  16.482  0.00  0.00    +0.000 A 
ATOM      3  N   UNL     1       4.207   4.534  16.545  0.00  0.00    +0.000 NA
ATOM      4  C   UNL     1       3.861   5.045  17.709  0.00  0.00    +0.000 A 
ATOM      5  S   UNL     1       5.159   5.233  18.825  0.00  0.00    +0.000 S 
ATOM      6  C   UNL     1       6.268   4.693  17.631  0.00  0.00    +0.000 A 
ATOM      7  C   UNL     1       7.733   4.654  17.894  0.00  0.00    +0.000 C 
ENDROOT
BRANCH   4   8
ATOM      8  C   UNL     1       2.451   5.383  18.098  0.00  0.00    +0.000 C 
BRANCH   8   9
ATOM      9  C   UNL     1       1.721   4.270  18.786  0.00  0.00    +0.000 A 
ATOM     10  C   UNL     1       1.264   4.183  20.087  0.00  0.00    +0.000 A 
ATOM     11  N   UNL     1       0.577   3.003  20.156  0.00  0.00    +0.000 N 
ATOM     12  C   UNL     1       0.627   2.421  18.924  0.00  0.00    +0.000 A 
ATOM     13  N   UNL     1       1.325   3.151  18.078  0.00  0.00    +0.000 NA
ATOM     14  H   UNL     1       0.095   2.636  20.966  0.00  0.00    +0.000 HD
ENDBRANCH   8   9
ENDBRANCH   4   8
TORSDOF 2
ENDMDL
MODEL 2
REMARK VINA RESULT:      -5.8      1.853      5.261
REMARK  Name = 
REMARK  4 active torsions:
REMARK  status: ('A' for Active; 'I' for Inactive)
REMARK    1  A    between atoms: C_1  and  C_2
REMARK    2  A    between atoms: C_4  and  C_5
REMARK    3  A    between atoms: C_5  and  C_6
REMARK    4  A    between atoms: C_12  and  C_13
REMARK                            x       y       z     vdW  Elec       q    Type
REMARK                         _______ _______ _______ _____ _____    ______ ____
ROOT
ATOM      1  C   UNL     1       2.146   2.349  17.954  0.00  0.00    +0.000 C 
ATOM      2  C   UNL     1       2.547   3.755  18.228  0.00  0.00    +0.000 A 
ATOM      3  N   UNL     1       3.463   4.355  17.380  0.00  0.00    +0.000 NA
ATOM      4  C   UNL     1       3.742   5.578  17.784  0.00  0.00    +0.000 A 
ATOM      5  S   UNL     1       2.840   6.103  19.154  0.00  0.00    +0.000 S 
ATOM      6  C   UNL     1       2.111   4.554  19.273  0.00  0.00    +0.000 A 
ATOM      7  C   UNL     1       1.170   4.223  20.378  0.00  0.00    +0.000 C 
ENDROOT
BRANCH   4   8
ATOM      8  C   UNL     1       4.706   6.497  17.092  0.00  0.00    +0.000 C 
BRANCH   8   9
ATOM      9  C   UNL     1       5.884   5.803  16.482  0.00  0.00    +0.000 A 
ATOM     10  C   UNL     1       6.965   5.193  17.090  0.00  0.00    +0.000 A 
ATOM     11  N   UNL     1       7.686   4.627  16.076  0.00  0.00    +0.000 N 
ATOM     12  C   UNL     1       7.037   4.894  14.907  0.00  0.00    +0.000 A 
ATOM     13  N   UNL     1       5.956   5.617  15.114  0.00  0.00    +0.000 NA
ATOM     14  H   UNL     1       8.533   4.084  16.173  0.00  0.00    +0.000 HD
ENDBRANCH   8   9
ENDBRANCH   4   8
TORSDOF 2
ENDMDL
MODEL 3
REMARK VINA RESULT:      -5.7      2.030      2.724
REMARK  Name = 
REMARK  4 active torsions:
REMARK  status: ('A' for Active; 'I' for Inactive)
REMARK    1  A    between atoms: C_1  and  C_2
REMARK    2  A    between atoms: C_4  and  C_5
REMARK    3  A    between atoms: C_5  and  C_6
REMARK    4  A    between atoms: C_12  and  C_13
REMARK                            x       y       z     vdW  Elec       q    Type
REMARK                         _______ _______ _______ _____ _____    ______ ____
ROOT
ATOM      1  C   UNL     1       7.312   6.027  18.627  0.00  0.00    +0.000 C 
ATOM      2  C   UNL     1       6.105   5.220  18.306  0.00  0.00    +0.000 A 
ATOM      3  N   UNL     1       5.761   4.182  19.158  0.00  0.00    +0.000 NA
ATOM      4  C   UNL     1       4.699   3.544  18.710  0.00  0.00    +0.000 A 
ATOM      5  S   UNL     1       4.000   4.222  17.290  0.00  0.00    +0.000 S 
ATOM      6  C   UNL     1       5.267   5.378  17.214  0.00  0.00    +0.000 A 
ATOM      7  C   UNL     1       5.359   6.355  16.094  0.00  0.00    +0.000 C 
ENDROOT
BRANCH   4   8
ATOM      8  C   UNL     1       4.074   2.362  19.393  0.00  0.00    +0.000 C 
BRANCH   8   9
ATOM      9  C   UNL     1       2.767   2.661  20.062  0.00  0.00    +0.000 A 
ATOM     10  C   UNL     1       1.526   2.907  19.508  0.00  0.00    +0.000 A 
ATOM     11  N   UNL     1       0.666   3.012  20.565  0.00  0.00    +0.000 N 
ATOM     12  C   UNL     1       1.388   2.825  21.706  0.00  0.00    +0.000 A 
ATOM     13  N   UNL     1       2.663   2.628  21.439  0.00  0.00    +0.000 NA
ATOM     14  H   UNL     1      -0.331   3.174  20.514  0.00  0.00    +0.000 HD
ENDBRANCH   8   9
ENDBRANCH   4   8
TORSDOF 2
ENDMDL
MODEL 4
REMARK VINA RESULT:      -5.7      1.847      2.360
REMARK  Name = 
REMARK  4 active torsions:
REMARK  status: ('A' for Active; 'I' for Inactive)
REMARK    1  A    between atoms: C_1  and  C_2
REMARK    2  A    between atoms: C_4  and  C_5
REMARK    3  A    between atoms: C_5  and  C_6
REMARK    4  A    between atoms: C_12  and  C_13
REMARK                            x       y       z     vdW  Elec       q    Type
REMARK                         _______ _______ _______ _____ _____    ______ ____
ROOT
ATOM      1  C   UNL     1       7.516   6.258  18.118  0.00  0.00    +0.000 C 
ATOM      2  C   UNL     1       6.237   5.502  18.053  0.00  0.00    +0.000 A 
ATOM      3  N   UNL     1       5.981   4.556  19.031  0.00  0.00    +0.000 NA
ATOM      4  C   UNL     1       4.833   3.950  18.805  0.00  0.00    +0.000 A 
ATOM      5  S   UNL     1       3.955   4.557  17.454  0.00  0.00    +0.000 S 
ATOM      6  C   UNL     1       5.249   5.626  17.090  0.00  0.00    +0.000 A 
ATOM      7  C   UNL     1       5.212   6.507  15.890  0.00  0.00    +0.000 C 
ENDROOT
BRANCH   4   8
ATOM      8  C   UNL     1       4.266   2.863  19.672  0.00  0.00    +0.000 C 
BRANCH   8   9
ATOM      9  C   UNL     1       2.771   2.866  19.758  0.00  0.00    +0.000 A 
ATOM     10  C   UNL     1       1.933   3.587  20.587  0.00  0.00    +0.000 A 
ATOM     11  N   UNL     1       0.664   3.291  20.175  0.00  0.00    +0.000 N 
ATOM     12  C   UNL     1       0.761   2.425  19.126  0.00  0.00    +0.000 A 
ATOM     13  N   UNL     1       2.017   2.134  18.860  0.00  0.00    +0.000 NA
ATOM     14  H   UNL     1      -0.194   3.665  20.558  0.00  0.00    +0.000 HD
ENDBRANCH   8   9
ENDBRANCH   4   8
TORSDOF 2
ENDMDL
MODEL 5
REMARK VINA RESULT:      -5.6      1.904      5.448
REMARK  Name = 
REMARK  4 active torsions:
REMARK  status: ('A' for Active; 'I' for Inactive)
REMARK    1  A    between atoms: C_1  and  C_2
REMARK    2  A    between atoms: C_4  and  C_5
REMARK    3  A    between atoms: C_5  and  C_6
REMARK    4  A    between atoms: C_12  and  C_13
REMARK                            x       y       z     vdW  Elec       q    Type
REMARK                         _______ _______ _______ _____ _____    ______ ____
ROOT
ATOM      1  C   UNL     1       2.082   3.546  21.523  0.00  0.00    +0.000 C 
ATOM      2  C   UNL     1       2.489   3.864  20.129  0.00  0.00    +0.000 A 
ATOM      3  N   UNL     1       3.457   4.836  19.931  0.00  0.00    +0.000 NA
ATOM      4  C   UNL     1       3.671   5.027  18.645  0.00  0.00    +0.000 A 
ATOM      5  S   UNL     1       2.784   3.977  17.607  0.00  0.00    +0.000 S 
ATOM      6  C   UNL     1       1.987   3.299  18.968  0.00  0.00    +0.000 A 
ATOM      7  C   UNL     1       0.925   2.268  18.809  0.00  0.00    +0.000 C 
ENDROOT
BRANCH   4   8
ATOM      8  C   UNL     1       4.652   6.019  18.090  0.00  0.00    +0.000 C 
BRANCH   8   9
ATOM      9  C   UNL     1       5.852   5.397  17.444  0.00  0.00    +0.000 A 
ATOM     10  C   UNL     1       6.977   4.840  18.020  0.00  0.00    +0.000 A 
ATOM     11  N   UNL     1       7.704   4.327  16.983  0.00  0.00    +0.000 N 
ATOM     12  C   UNL     1       7.016   4.574  15.832  0.00  0.00    +0.000 A 
ATOM     13  N   UNL     1       5.902   5.234  16.073  0.00  0.00    +0.000 NA
ATOM     14  H   UNL     1       8.582   3.830  17.054  0.00  0.00    +0.000 HD
ENDBRANCH   8   9
ENDBRANCH   4   8
TORSDOF 2
ENDMDL
MODEL 6
REMARK VINA RESULT:      -5.5      2.577      5.335
REMARK  Name = 
REMARK  4 active torsions:
REMARK  status: ('A' for Active; 'I' for Inactive)
REMARK    1  A    between atoms: C_1  and  C_2
REMARK    2  A    between atoms: C_4  and  C_5
REMARK    3  A    between atoms: C_5  and  C_6
REMARK    4  A    between atoms: C_12  and  C_13
REMARK                            x       y       z     vdW  Elec       q    Type
REMARK                         _______ _______ _______ _____ _____    ______ ____
ROOT
ATOM      1  C   UNL     1       2.341   8.681  17.817  0.00  0.00    +0.000 C 
ATOM      2  C   UNL     1       2.644   7.345  18.393  0.00  0.00    +0.000 A 
ATOM      3  N   UNL     1       3.323   6.428  17.606  0.00  0.00    +0.000 NA
ATOM      4  C   UNL     1       3.474   5.286  18.245  0.00  0.00    +0.000 A 
ATOM      5  S   UNL     1       2.891   5.288  19.866  0.00  0.00    +0.000 S 
ATOM      6  C   UNL     1       2.304   6.888  19.656  0.00  0.00    +0.000 A 
ATOM      7  C   UNL     1       1.549   7.585  20.734  0.00  0.00    +0.000 C 
ENDROOT
BRANCH   4   8
ATOM      8  C   UNL     1       4.158   4.079  17.671  0.00  0.00    +0.000 C 
BRANCH   8   9
ATOM      9  C   UNL     1       5.618   4.274  17.398  0.00  0.00    +0.000 A 
ATOM     10  C   UNL     1       6.285   4.393  16.194  0.00  0.00    +0.000 A 
ATOM     11  N   UNL     1       7.585   4.662  16.520  0.00  0.00    +0.000 N 
ATOM     12  C   UNL     1       7.671   4.706  17.879  0.00  0.00    +0.000 A 
ATOM     13  N   UNL     1       6.506   4.459  18.441  0.00  0.00    +0.000 NA
ATOM     14  H   UNL     1       8.344   4.825  15.872  0.00  0.00    +0.000 HD
ENDBRANCH   8   9
ENDBRANCH   4   8
TORSDOF 2
ENDMDL
MODEL 7
REMARK VINA RESULT:      -5.5      1.943      2.543
REMARK  Name = 
REMARK  4 active torsions:
REMARK  status: ('A' for Active; 'I' for Inactive)
REMARK    1  A    between atoms: C_1  and  C_2
REMARK    2  A    between atoms: C_4  and  C_5
REMARK    3  A    between atoms: C_5  and  C_6
REMARK    4  A    between atoms: C_12  and  C_13
REMARK                            x       y       z     vdW  Elec       q    Type
REMARK                         _______ _______ _______ _____ _____    ______ ____
ROOT
ATOM      1  C   UNL     1       7.718   5.575  19.638  0.00  0.00    +0.000 C 
ATOM      2  C   UNL     1       6.493   5.272  18.850  0.00  0.00    +0.000 A 
ATOM      3  N   UNL     1       5.758   4.146  19.184  0.00  0.00    +0.000 NA
ATOM      4  C   UNL     1       4.735   3.999  18.367  0.00  0.00    +0.000 A 
ATOM      5  S   UNL     1       4.549   5.263  17.213  0.00  0.00    +0.000 S 
ATOM      6  C   UNL     1       5.995   5.996  17.779  0.00  0.00    +0.000 A 
ATOM      7  C   UNL     1       6.546   7.221  17.137  0.00  0.00    +0.000 C 
ENDROOT
BRANCH   4   8
ATOM      8  C   UNL     1       3.745   2.873  18.449  0.00  0.00    +0.000 C 
BRANCH   8   9
ATOM      9  C   UNL     1       2.494   3.210  19.201  0.00  0.00    +0.000 A 
ATOM     10  C   UNL     1       1.314   2.501  19.319  0.00  0.00    +0.000 A 
ATOM     11  N   UNL     1       0.549   3.206  20.204  0.00  0.00    +0.000 N 
ATOM     12  C   UNL     1       1.268   4.296  20.597  0.00  0.00    +0.000 A 
ATOM     13  N   UNL     1       2.439   4.338  19.998  0.00  0.00    +0.000 NA
ATOM     14  H   UNL     1      -0.375   2.956  20.531  0.00  0.00    +0.000 HD
ENDBRANCH   8   9
ENDBRANCH   4   8
TORSDOF 2
ENDMDL
MODEL 8
REMARK VINA RESULT:      -5.5      2.101      5.566
REMARK  Name = 
REMARK  4 active torsions:
REMARK  status: ('A' for Active; 'I' for Inactive)
REMARK    1  A    between atoms: C_1  and  C_2
REMARK    2  A    between atoms: C_4  and  C_5
REMARK    3  A    between atoms: C_5  and  C_6
REMARK    4  A    between atoms: C_12  and  C_13
REMARK                            x       y       z     vdW  Elec       q    Type
REMARK                         _______ _______ _______ _____ _____    ______ ____
ROOT
ATOM      1  C   UNL     1       1.593   5.027  20.641  0.00  0.00    +0.000 C 
ATOM      2  C   UNL     1       2.545   4.363  19.712  0.00  0.00    +0.000 A 
ATOM      3  N   UNL     1       3.818   4.897  19.582  0.00  0.00    +0.000 NA
ATOM      4  C   UNL     1       4.518   4.221  18.693  0.00  0.00    +0.000 A 
ATOM      5  S   UNL     1       3.712   2.847  18.039  0.00  0.00    +0.000 S 
ATOM      6  C   UNL     1       2.298   3.250  18.925  0.00  0.00    +0.000 A 
ATOM      7  C   UNL     1       1.045   2.458  18.788  0.00  0.00    +0.000 C 
ENDROOT
BRANCH   4   8
ATOM      8  C   UNL     1       5.932   4.545  18.308  0.00  0.00    +0.000 C 
BRANCH   8   9
ATOM      9  C   UNL     1       6.114   4.863  16.856  0.00  0.00    +0.000 A 
ATOM     10  C   UNL     1       5.338   5.638  16.016  0.00  0.00    +0.000 A 
ATOM     11  N   UNL     1       6.013   5.682  14.828  0.00  0.00    +0.000 N 
ATOM     12  C   UNL     1       7.157   4.956  14.975  0.00  0.00    +0.000 A 
ATOM     13  N   UNL     1       7.241   4.433  16.181  0.00  0.00    +0.000 NA
ATOM     14  H   UNL     1       5.731   6.182  13.996  0.00  0.00    +0.000 HD
ENDBRANCH   8   9
ENDBRANCH   4   8
TORSDOF 2
ENDMDL
MODEL 9
REMARK VINA RESULT:      -5.5      1.888      5.304
REMARK  Name = 
REMARK  4 active torsions:
REMARK  status: ('A' for Active; 'I' for Inactive)
REMARK    1  A    between atoms: C_1  and  C_2
REMARK    2  A    between atoms: C_4  and  C_5
REMARK    3  A    between atoms: C_5  and  C_6
REMARK    4  A    between atoms: C_12  and  C_13
REMARK                            x       y       z     vdW  Elec       q    Type
REMARK                         _______ _______ _______ _____ _____    ______ ____
ROOT
ATOM      1  C   UNL     1       0.589   2.539  18.833  0.00  0.00    +0.000 C 
ATOM      2  C   UNL     1       2.031   2.899  18.797  0.00  0.00    +0.000 A 
ATOM      3  N   UNL     1       2.607   3.187  17.570  0.00  0.00    +0.000 NA
ATOM      4  C   UNL     1       3.893   3.443  17.707  0.00  0.00    +0.000 A 
ATOM      5  S   UNL     1       4.454   3.445  19.335  0.00  0.00    +0.000 S 
ATOM      6  C   UNL     1       2.896   2.967  19.877  0.00  0.00    +0.000 A 
ATOM      7  C   UNL     1       2.628   2.687  21.314  0.00  0.00    +0.000 C 
ENDROOT
BRANCH   4   8
ATOM      8  C   UNL     1       4.813   3.782  16.571  0.00  0.00    +0.000 C 
BRANCH   8   9
ATOM      9  C   UNL     1       5.790   4.874  16.878  0.00  0.00    +0.000 A 
ATOM     10  C   UNL     1       7.166   4.825  16.987  0.00  0.00    +0.000 A 
ATOM     11  N   UNL     1       7.566   6.119  17.173  0.00  0.00    +0.000 N 
ATOM     12  C   UNL     1       6.451   6.902  17.166  0.00  0.00    +0.000 A 
ATOM     13  N   UNL     1       5.360   6.181  17.007  0.00  0.00    +0.000 NA
ATOM     14  H   UNL     1       8.519   6.444  17.273  0.00  0.00    +0.000 HD
ENDBRANCH   8   9
ENDBRANCH   4   8
TORSDOF 2
ENDMDL
