MODEL 1
REMARK VINA RESULT:      -7.6      0.000      0.000
REMARK  Name = 
REMARK  12 active torsions:
REMARK  status: ('A' for Active; 'I' for Inactive)
REMARK    1  A    between atoms: C_1  and  C_2
REMARK    2  A    between atoms: C_2  and  C_3
REMARK    3  A    between atoms: C_3  and  N_4
REMARK    4  A    between atoms: C_5  and  C_6
REMARK    5  A    between atoms: C_6  and  O_7
REMARK    6  A    between atoms: C_6  and  C_8
REMARK    7  A    between atoms: C_10  and  O_11
REMARK    8  A    between atoms: O_11  and  C_12
REMARK    9  A    between atoms: C_13  and  O_14
REMARK   10  A    between atoms: O_14  and  C_15
REMARK   11  A    between atoms: C_16  and  O_17
REMARK   12  A    between atoms: O_17  and  C_18
REMARK                            x       y       z     vdW  Elec       q    Type
REMARK                         _______ _______ _______ _____ _____    ______ ____
ROOT
ATOM      1  C   UNL     1       3.550   4.697  17.826  0.00  0.00    +0.000 C 
ENDROOT
BRANCH   1   3
ATOM      2  N   UNL     1       2.487   5.994  19.775  0.00  0.00    +0.000 N 
ATOM      3  C   UNL     1       2.963   5.923  18.479  0.00  0.00    +0.000 A 
ATOM      4  N   UNL     1       2.751   7.065  17.844  0.00  0.00    +0.000 NA
ATOM      5  C   UNL     1       2.111   7.882  18.735  0.00  0.00    +0.000 A 
ATOM      6  C   UNL     1       1.644   9.196  18.563  0.00  0.00    +0.000 A 
ATOM      7  C   UNL     1       0.979   9.821  19.624  0.00  0.00    +0.000 A 
ATOM      8  C   UNL     1       0.788   9.156  20.834  0.00  0.00    +0.000 A 
ATOM      9  C   UNL     1       1.255   7.851  21.026  0.00  0.00    +0.000 A 
ATOM     10  C   UNL     1       1.917   7.239  19.951  0.00  0.00    +0.000 A 
BRANCH   2  11
ATOM     11  C   UNL     1       2.456   4.930  20.764  0.00  0.00    +0.000 C 
BRANCH  11  13
ATOM     12  C   UNL     1       1.385   2.741  21.548  0.00  0.00    +0.000 C 
ATOM     13  C   UNL     1       1.306   3.933  20.602  0.00  0.00    +0.000 C 
ENDBRANCH  11  13
ENDBRANCH   2  11
ENDBRANCH   1   3
BRANCH   1  14
ATOM     14  C   UNL     1       4.679   4.927  16.830  0.00  0.00    +0.000 A 
ATOM     15  C   UNL     1       5.689   5.864  17.068  0.00  0.00    +0.000 A 
ATOM     16  C   UNL     1       6.822   5.939  16.247  0.00  0.00    +0.000 A 
ATOM     17  C   UNL     1       6.948   5.078  15.136  0.00  0.00    +0.000 A 
ATOM     18  C   UNL     1       5.919   4.160  14.850  0.00  0.00    +0.000 A 
ATOM     19  C   UNL     1       4.802   4.098  15.698  0.00  0.00    +0.000 A 
BRANCH  16  20
ATOM     20  O   UNL     1       7.850   6.826  16.477  0.00  0.00    +0.000 OA
ATOM     21  C   UNL     1       7.666   7.728  17.564  0.00  0.00    +0.000 C 
ENDBRANCH  16  20
BRANCH  17  22
ATOM     22  O   UNL     1       8.077   5.259  14.365  0.00  0.00    +0.000 OA
ATOM     23  C   UNL     1       7.869   5.633  13.008  0.00  0.00    +0.000 C 
ENDBRANCH  17  22
BRANCH  18  24
ATOM     24  O   UNL     1       6.063   3.363  13.744  0.00  0.00    +0.000 OA
ATOM     25  C   UNL     1       5.154   3.517  12.663  0.00  0.00    +0.000 C 
ENDBRANCH  18  24
ENDBRANCH   1  14
BRANCH   1  26
ATOM     26  O   UNL     1       2.455   4.048  17.172  0.00  0.00    +0.000 OA
ATOM     27  H   UNL     1       2.220   4.645  16.434  0.00  0.00    +0.000 HD
ENDBRANCH   1  26
TORSDOF 8
ENDMDL
MODEL 2
REMARK VINA RESULT:      -7.3      0.267      2.520
REMARK  Name = 
REMARK  12 active torsions:
REMARK  status: ('A' for Active; 'I' for Inactive)
REMARK    1  A    between atoms: C_1  and  C_2
REMARK    2  A    between atoms: C_2  and  C_3
REMARK    3  A    between atoms: C_3  and  N_4
REMARK    4  A    between atoms: C_5  and  C_6
REMARK    5  A    between atoms: C_6  and  O_7
REMARK    6  A    between atoms: C_6  and  C_8
REMARK    7  A    between atoms: C_10  and  O_11
REMARK    8  A    between atoms: O_11  and  C_12
REMARK    9  A    between atoms: C_13  and  O_14
REMARK   10  A    between atoms: O_14  and  C_15
REMARK   11  A    between atoms: C_16  and  O_17
REMARK   12  A    between atoms: O_17  and  C_18
REMARK                            x       y       z     vdW  Elec       q    Type
REMARK                         _______ _______ _______ _____ _____    ______ ____
ROOT
ATOM      1  C   UNL     1       3.587   4.494  17.855  0.00  0.00    +0.000 C 
ENDROOT
BRANCH   1   3
ATOM      2  N   UNL     1       2.544   5.976  19.679  0.00  0.00    +0.000 N 
ATOM      3  C   UNL     1       3.038   5.788  18.402  0.00  0.00    +0.000 A 
ATOM      4  N   UNL     1       2.880   6.885  17.677  0.00  0.00    +0.000 NA
ATOM      5  C   UNL     1       2.258   7.792  18.491  0.00  0.00    +0.000 A 
ATOM      6  C   UNL     1       1.844   9.105  18.211  0.00  0.00    +0.000 A 
ATOM      7  C   UNL     1       1.187   9.834  19.208  0.00  0.00    +0.000 A 
ATOM      8  C   UNL     1       0.952   9.272  20.461  0.00  0.00    +0.000 A 
ATOM      9  C   UNL     1       1.365   7.969  20.761  0.00  0.00    +0.000 A 
ATOM     10  C   UNL     1       2.019   7.252  19.749  0.00  0.00    +0.000 A 
BRANCH   2  11
ATOM     11  C   UNL     1       2.456   4.994  20.746  0.00  0.00    +0.000 C 
BRANCH  11  13
ATOM     12  C   UNL     1       1.458   2.740  21.434  0.00  0.00    +0.000 C 
ATOM     13  C   UNL     1       1.279   4.023  20.633  0.00  0.00    +0.000 C 
ENDBRANCH  11  13
ENDBRANCH   2  11
ENDBRANCH   1   3
BRANCH   1  14
ATOM     14  C   UNL     1       4.847   4.592  17.005  0.00  0.00    +0.000 A 
ATOM     15  C   UNL     1       5.013   3.826  15.848  0.00  0.00    +0.000 A 
ATOM     16  C   UNL     1       6.081   4.053  14.970  0.00  0.00    +0.000 A 
ATOM     17  C   UNL     1       7.033   5.056  15.259  0.00  0.00    +0.000 A 
ATOM     18  C   UNL     1       6.911   5.806  16.444  0.00  0.00    +0.000 A 
ATOM     19  C   UNL     1       5.823   5.564  17.298  0.00  0.00    +0.000 A 
BRANCH  16  20
ATOM     20  O   UNL     1       6.251   3.341  13.804  0.00  0.00    +0.000 OA
ATOM     21  C   UNL     1       5.215   3.470  12.835  0.00  0.00    +0.000 C 
ENDBRANCH  16  20
BRANCH  17  22
ATOM     22  O   UNL     1       8.069   5.173  14.356  0.00  0.00    +0.000 OA
ATOM     23  C   UNL     1       7.757   5.769  13.103  0.00  0.00    +0.000 C 
ENDBRANCH  17  22
BRANCH  18  24
ATOM     24  O   UNL     1       7.872   6.747  16.707  0.00  0.00    +0.000 OA
ATOM     25  C   UNL     1       7.536   7.865  17.515  0.00  0.00    +0.000 C 
ENDBRANCH  18  24
ENDBRANCH   1  14
BRANCH   1  26
ATOM     26  O   UNL     1       2.527   3.922  17.083  0.00  0.00    +0.000 OA
ATOM     27  H   UNL     1       2.150   4.675  16.586  0.00  0.00    +0.000 HD
ENDBRANCH   1  26
TORSDOF 8
ENDMDL
MODEL 3
REMARK VINA RESULT:      -7.2      2.455      4.985
REMARK  Name = 
REMARK  12 active torsions:
REMARK  status: ('A' for Active; 'I' for Inactive)
REMARK    1  A    between atoms: C_1  and  C_2
REMARK    2  A    between atoms: C_2  and  C_3
REMARK    3  A    between atoms: C_3  and  N_4
REMARK    4  A    between atoms: C_5  and  C_6
REMARK    5  A    between atoms: C_6  and  O_7
REMARK    6  A    between atoms: C_6  and  C_8
REMARK    7  A    between atoms: C_10  and  O_11
REMARK    8  A    between atoms: O_11  and  C_12
REMARK    9  A    between atoms: C_13  and  O_14
REMARK   10  A    between atoms: O_14  and  C_15
REMARK   11  A    between atoms: C_16  and  O_17
REMARK   12  A    between atoms: O_17  and  C_18
REMARK                            x       y       z     vdW  Elec       q    Type
REMARK                         _______ _______ _______ _____ _____    ______ ____
ROOT
ATOM      1  C   UNL     1       1.710   8.791  17.774  0.00  0.00    +0.000 C 
ENDROOT
BRANCH   1   3
ATOM      2  N   UNL     1       0.014   9.983  19.294  0.00  0.00    +0.000 N 
ATOM      3  C   UNL     1       1.063   9.105  19.099  0.00  0.00    +0.000 A 
ATOM      4  N   UNL     1       1.496   8.635  20.259  0.00  0.00    +0.000 NA
ATOM      5  C   UNL     1       0.727   9.231  21.221  0.00  0.00    +0.000 A 
ATOM      6  C   UNL     1       0.784   9.095  22.618  0.00  0.00    +0.000 A 
ATOM      7  C   UNL     1      -0.094   9.847  23.407  0.00  0.00    +0.000 A 
ATOM      8  C   UNL     1      -1.016  10.710  22.818  0.00  0.00    +0.000 A 
ATOM      9  C   UNL     1      -1.093  10.851  21.428  0.00  0.00    +0.000 A 
ATOM     10  C   UNL     1      -0.203  10.093  20.653  0.00  0.00    +0.000 A 
BRANCH   2  11
ATOM     11  C   UNL     1      -0.680  10.767  18.287  0.00  0.00    +0.000 C 
BRANCH  11  13
ATOM     12  C   UNL     1      -3.094  10.126  17.725  0.00  0.00    +0.000 C 
ATOM     13  C   UNL     1      -1.619   9.967  17.381  0.00  0.00    +0.000 C 
ENDBRANCH  11  13
ENDBRANCH   2  11
ENDBRANCH   1   3
BRANCH   1  14
ATOM     14  C   UNL     1       2.704   7.636  17.755  0.00  0.00    +0.000 A 
ATOM     15  C   UNL     1       2.321   6.332  18.083  0.00  0.00    +0.000 A 
ATOM     16  C   UNL     1       3.184   5.247  17.883  0.00  0.00    +0.000 A 
ATOM     17  C   UNL     1       4.481   5.461  17.366  0.00  0.00    +0.000 A 
ATOM     18  C   UNL     1       4.903   6.772  17.074  0.00  0.00    +0.000 A 
ATOM     19  C   UNL     1       4.011   7.838  17.273  0.00  0.00    +0.000 A 
BRANCH  16  20
ATOM     20  O   UNL     1       2.824   3.948  18.162  0.00  0.00    +0.000 OA
ATOM     21  C   UNL     1       1.596   3.776  18.863  0.00  0.00    +0.000 C 
ENDBRANCH  16  20
BRANCH  17  22
ATOM     22  O   UNL     1       5.269   4.335  17.246  0.00  0.00    +0.000 OA
ATOM     23  C   UNL     1       5.503   3.859  15.926  0.00  0.00    +0.000 C 
ENDBRANCH  17  22
BRANCH  18  24
ATOM     24  O   UNL     1       6.180   6.942  16.605  0.00  0.00    +0.000 OA
ATOM     25  C   UNL     1       7.218   7.236  17.528  0.00  0.00    +0.000 C 
ENDBRANCH  18  24
ENDBRANCH   1  14
BRANCH   1  26
ATOM     26  O   UNL     1       2.364   9.996  17.370  0.00  0.00    +0.000 OA
ATOM     27  H   UNL     1       2.796   9.771  16.521  0.00  0.00    +0.000 HD
ENDBRANCH   1  26
TORSDOF 8
ENDMDL
MODEL 4
REMARK VINA RESULT:      -7.0      3.134      5.023
REMARK  Name = 
REMARK  12 active torsions:
REMARK  status: ('A' for Active; 'I' for Inactive)
REMARK    1  A    between atoms: C_1  and  C_2
REMARK    2  A    between atoms: C_2  and  C_3
REMARK    3  A    between atoms: C_3  and  N_4
REMARK    4  A    between atoms: C_5  and  C_6
REMARK    5  A    between atoms: C_6  and  O_7
REMARK    6  A    between atoms: C_6  and  C_8
REMARK    7  A    between atoms: C_10  and  O_11
REMARK    8  A    between atoms: O_11  and  C_12
REMARK    9  A    between atoms: C_13  and  O_14
REMARK   10  A    between atoms: O_14  and  C_15
REMARK   11  A    between atoms: C_16  and  O_17
REMARK   12  A    between atoms: O_17  and  C_18
REMARK                            x       y       z     vdW  Elec       q    Type
REMARK                         _______ _______ _______ _____ _____    ______ ____
ROOT
ATOM      1  C   UNL     1       2.166   7.941  17.952  0.00  0.00    +0.000 C 
ENDROOT
BRANCH   1   3
ATOM      2  N   UNL     1       0.543   9.522  19.168  0.00  0.00    +0.000 N 
ATOM      3  C   UNL     1       1.448   8.477  19.165  0.00  0.00    +0.000 A 
ATOM      4  N   UNL     1       1.677   8.060  20.400  0.00  0.00    +0.000 NA
ATOM      5  C   UNL     1       0.924   8.857  21.218  0.00  0.00    +0.000 A 
ATOM      6  C   UNL     1       0.816   8.849  22.618  0.00  0.00    +0.000 A 
ATOM      7  C   UNL     1      -0.003   9.799  23.239  0.00  0.00    +0.000 A 
ATOM      8  C   UNL     1      -0.705  10.735  22.482  0.00  0.00    +0.000 A 
ATOM      9  C   UNL     1      -0.617  10.752  21.085  0.00  0.00    +0.000 A 
ATOM     10  C   UNL     1       0.210   9.794  20.480  0.00  0.00    +0.000 A 
BRANCH   2  11
ATOM     11  C   UNL     1       0.093  10.305  18.030  0.00  0.00    +0.000 C 
BRANCH  11  13
ATOM     12  C   UNL     1      -2.275  11.199  17.649  0.00  0.00    +0.000 C 
ATOM     13  C   UNL     1      -1.333  10.004  17.564  0.00  0.00    +0.000 C 
ENDBRANCH  11  13
ENDBRANCH   2  11
ENDBRANCH   1   3
BRANCH   1  14
ATOM     14  C   UNL     1       2.786   6.556  18.082  0.00  0.00    +0.000 A 
ATOM     15  C   UNL     1       4.085   6.376  18.568  0.00  0.00    +0.000 A 
ATOM     16  C   UNL     1       4.582   5.100  18.863  0.00  0.00    +0.000 A 
ATOM     17  C   UNL     1       3.777   3.960  18.647  0.00  0.00    +0.000 A 
ATOM     18  C   UNL     1       2.483   4.116  18.113  0.00  0.00    +0.000 A 
ATOM     19  C   UNL     1       2.008   5.408  17.838  0.00  0.00    +0.000 A 
BRANCH  16  20
ATOM     20  O   UNL     1       5.842   4.893  19.377  0.00  0.00    +0.000 OA
ATOM     21  C   UNL     1       6.897   5.623  18.759  0.00  0.00    +0.000 C 
ENDBRANCH  16  20
BRANCH  17  22
ATOM     22  O   UNL     1       4.372   2.747  18.927  0.00  0.00    +0.000 OA
ATOM     23  C   UNL     1       4.200   2.244  20.247  0.00  0.00    +0.000 C 
ENDBRANCH  17  22
BRANCH  18  24
ATOM     24  O   UNL     1       1.745   2.984  17.885  0.00  0.00    +0.000 OA
ATOM     25  C   UNL     1       0.787   2.582  18.854  0.00  0.00    +0.000 C 
ENDBRANCH  18  24
ENDBRANCH   1  14
BRANCH   1  26
ATOM     26  O   UNL     1       3.184   8.900  17.652  0.00  0.00    +0.000 OA
ATOM     27  H   UNL     1       2.804   9.447  16.936  0.00  0.00    +0.000 HD
ENDBRANCH   1  26
TORSDOF 8
ENDMDL
MODEL 5
REMARK VINA RESULT:      -7.0      4.460      8.816
REMARK  Name = 
REMARK  12 active torsions:
REMARK  status: ('A' for Active; 'I' for Inactive)
REMARK    1  A    between atoms: C_1  and  C_2
REMARK    2  A    between atoms: C_2  and  C_3
REMARK    3  A    between atoms: C_3  and  N_4
REMARK    4  A    between atoms: C_5  and  C_6
REMARK    5  A    between atoms: C_6  and  O_7
REMARK    6  A    between atoms: C_6  and  C_8
REMARK    7  A    between atoms: C_10  and  O_11
REMARK    8  A    between atoms: O_11  and  C_12
REMARK    9  A    between atoms: C_13  and  O_14
REMARK   10  A    between atoms: O_14  and  C_15
REMARK   11  A    between atoms: C_16  and  O_17
REMARK   12  A    between atoms: O_17  and  C_18
REMARK                            x       y       z     vdW  Elec       q    Type
REMARK                         _______ _______ _______ _____ _____    ______ ____
ROOT
ATOM      1  C   UNL     1       1.262  10.428  18.922  0.00  0.00    +0.000 C 
ENDROOT
BRANCH   1   3
ATOM      2  N   UNL     1       1.544   8.217  20.204  0.00  0.00    +0.000 N 
ATOM      3  C   UNL     1       1.572   8.957  19.037  0.00  0.00    +0.000 A 
ATOM      4  N   UNL     1       2.003   8.215  18.029  0.00  0.00    +0.000 NA
ATOM      5  C   UNL     1       2.275   6.981  18.554  0.00  0.00    +0.000 A 
ATOM      6  C   UNL     1       2.775   5.832  17.918  0.00  0.00    +0.000 A 
ATOM      7  C   UNL     1       3.009   4.684  18.683  0.00  0.00    +0.000 A 
ATOM      8  C   UNL     1       2.745   4.676  20.051  0.00  0.00    +0.000 A 
ATOM      9  C   UNL     1       2.238   5.808  20.700  0.00  0.00    +0.000 A 
ATOM     10  C   UNL     1       2.013   6.951  19.918  0.00  0.00    +0.000 A 
BRANCH   2  11
ATOM     11  C   UNL     1       1.211   8.686  21.539  0.00  0.00    +0.000 C 
BRANCH  11  13
ATOM     12  C   UNL     1      -0.657   9.931  22.770  0.00  0.00    +0.000 C 
ATOM     13  C   UNL     1      -0.289   8.792  21.828  0.00  0.00    +0.000 C 
ENDBRANCH  11  13
ENDBRANCH   2  11
ENDBRANCH   1   3
BRANCH   1  14
ATOM     14  C   UNL     1      -0.173  10.799  18.570  0.00  0.00    +0.000 A 
ATOM     15  C   UNL     1      -0.870  10.147  17.549  0.00  0.00    +0.000 A 
ATOM     16  C   UNL     1      -2.242  10.356  17.355  0.00  0.00    +0.000 A 
ATOM     17  C   UNL     1      -2.943  11.262  18.181  0.00  0.00    +0.000 A 
ATOM     18  C   UNL     1      -2.249  11.965  19.184  0.00  0.00    +0.000 A 
ATOM     19  C   UNL     1      -0.878  11.724  19.363  0.00  0.00    +0.000 A 
BRANCH  16  20
ATOM     20  O   UNL     1      -2.965   9.702  16.382  0.00  0.00    +0.000 OA
ATOM     21  C   UNL     1      -2.896  10.258  15.072  0.00  0.00    +0.000 C 
ENDBRANCH  16  20
BRANCH  17  22
ATOM     22  O   UNL     1      -4.279  11.431  17.883  0.00  0.00    +0.000 OA
ATOM     23  C   UNL     1      -5.205  10.674  18.653  0.00  0.00    +0.000 C 
ENDBRANCH  17  22
BRANCH  18  24
ATOM     24  O   UNL     1      -2.957  12.860  19.944  0.00  0.00    +0.000 OA
ATOM     25  C   UNL     1      -2.968  12.704  21.356  0.00  0.00    +0.000 C 
ENDBRANCH  18  24
ENDBRANCH   1  14
BRANCH   1  26
ATOM     26  O   UNL     1       2.149  10.931  17.919  0.00  0.00    +0.000 OA
ATOM     27  H   UNL     1       2.436  10.138  17.423  0.00  0.00    +0.000 HD
ENDBRANCH   1  26
TORSDOF 8
ENDMDL
MODEL 6
REMARK VINA RESULT:      -7.0      3.241      7.423
REMARK  Name = 
REMARK  12 active torsions:
REMARK  status: ('A' for Active; 'I' for Inactive)
REMARK    1  A    between atoms: C_1  and  C_2
REMARK    2  A    between atoms: C_2  and  C_3
REMARK    3  A    between atoms: C_3  and  N_4
REMARK    4  A    between atoms: C_5  and  C_6
REMARK    5  A    between atoms: C_6  and  O_7
REMARK    6  A    between atoms: C_6  and  C_8
REMARK    7  A    between atoms: C_10  and  O_11
REMARK    8  A    between atoms: O_11  and  C_12
REMARK    9  A    between atoms: C_13  and  O_14
REMARK   10  A    between atoms: O_14  and  C_15
REMARK   11  A    between atoms: C_16  and  O_17
REMARK   12  A    between atoms: O_17  and  C_18
REMARK                            x       y       z     vdW  Elec       q    Type
REMARK                         _______ _______ _______ _____ _____    ______ ____
ROOT
ATOM      1  C   UNL     1       2.155   6.171  19.821  0.00  0.00    +0.000 C 
ENDROOT
BRANCH   1   3
ATOM      2  N   UNL     1       3.145   4.925  17.801  0.00  0.00    +0.000 N 
ATOM      3  C   UNL     1       3.238   5.855  18.820  0.00  0.00    +0.000 A 
ATOM      4  N   UNL     1       4.453   6.378  18.862  0.00  0.00    +0.000 NA
ATOM      5  C   UNL     1       5.165   5.764  17.867  0.00  0.00    +0.000 A 
ATOM      6  C   UNL     1       6.509   5.938  17.495  0.00  0.00    +0.000 A 
ATOM      7  C   UNL     1       7.028   5.159  16.455  0.00  0.00    +0.000 A 
ATOM      8  C   UNL     1       6.227   4.231  15.794  0.00  0.00    +0.000 A 
ATOM      9  C   UNL     1       4.884   4.051  16.145  0.00  0.00    +0.000 A 
ATOM     10  C   UNL     1       4.381   4.838  17.191  0.00  0.00    +0.000 A 
BRANCH   2  11
ATOM     11  C   UNL     1       2.010   4.078  17.479  0.00  0.00    +0.000 C 
BRANCH  11  13
ATOM     12  C   UNL     1       0.677   2.566  19.057  0.00  0.00    +0.000 C 
ATOM     13  C   UNL     1       1.954   2.756  18.248  0.00  0.00    +0.000 C 
ENDBRANCH  11  13
ENDBRANCH   2  11
ENDBRANCH   1   3
BRANCH   1  14
ATOM     14  C   UNL     1       1.853   7.645  20.058  0.00  0.00    +0.000 A 
ATOM     15  C   UNL     1       1.785   8.560  19.004  0.00  0.00    +0.000 A 
ATOM     16  C   UNL     1       1.323   9.868  19.202  0.00  0.00    +0.000 A 
ATOM     17  C   UNL     1       0.941  10.295  20.493  0.00  0.00    +0.000 A 
ATOM     18  C   UNL     1       1.047   9.404  21.578  0.00  0.00    +0.000 A 
ATOM     19  C   UNL     1       1.501   8.095  21.346  0.00  0.00    +0.000 A 
BRANCH  16  20
ATOM     20  O   UNL     1       1.210  10.781  18.178  0.00  0.00    +0.000 OA
ATOM     21  C   UNL     1       2.362  11.580  17.922  0.00  0.00    +0.000 C 
ENDBRANCH  16  20
BRANCH  17  22
ATOM     22  O   UNL     1       0.542  11.612  20.593  0.00  0.00    +0.000 OA
ATOM     23  C   UNL     1      -0.847  11.870  20.432  0.00  0.00    +0.000 C 
ENDBRANCH  17  22
BRANCH  18  24
ATOM     24  O   UNL     1       0.698   9.864  22.820  0.00  0.00    +0.000 OA
ATOM     25  C   UNL     1      -0.634   9.672  23.275  0.00  0.00    +0.000 C 
ENDBRANCH  18  24
ENDBRANCH   1  14
BRANCH   1  26
ATOM     26  O   UNL     1       2.572   5.561  21.045  0.00  0.00    +0.000 OA
ATOM     27  H   UNL     1       2.474   6.265  21.718  0.00  0.00    +0.000 HD
ENDBRANCH   1  26
TORSDOF 8
ENDMDL
MODEL 7
REMARK VINA RESULT:      -7.0      3.002      5.659
REMARK  Name = 
REMARK  12 active torsions:
REMARK  status: ('A' for Active; 'I' for Inactive)
REMARK    1  A    between atoms: C_1  and  C_2
REMARK    2  A    between atoms: C_2  and  C_3
REMARK    3  A    between atoms: C_3  and  N_4
REMARK    4  A    between atoms: C_5  and  C_6
REMARK    5  A    between atoms: C_6  and  O_7
REMARK    6  A    between atoms: C_6  and  C_8
REMARK    7  A    between atoms: C_10  and  O_11
REMARK    8  A    between atoms: O_11  and  C_12
REMARK    9  A    between atoms: C_13  and  O_14
REMARK   10  A    between atoms: O_14  and  C_15
REMARK   11  A    between atoms: C_16  and  O_17
REMARK   12  A    between atoms: O_17  and  C_18
REMARK                            x       y       z     vdW  Elec       q    Type
REMARK                         _______ _______ _______ _____ _____    ______ ____
ROOT
ATOM      1  C   UNL     1       1.378   9.170  18.043  0.00  0.00    +0.000 C 
ENDROOT
BRANCH   1   3
ATOM      2  N   UNL     1      -0.555  10.599  18.955  0.00  0.00    +0.000 N 
ATOM      3  C   UNL     1       0.555   9.796  19.140  0.00  0.00    +0.000 A 
ATOM      4  N   UNL     1       0.862   9.721  20.425  0.00  0.00    +0.000 NA
ATOM      5  C   UNL     1      -0.051  10.500  21.082  0.00  0.00    +0.000 A 
ATOM      6  C   UNL     1      -0.162  10.780  22.454  0.00  0.00    +0.000 A 
ATOM      7  C   UNL     1      -1.170  11.648  22.887  0.00  0.00    +0.000 A 
ATOM      8  C   UNL     1      -2.055  12.221  21.976  0.00  0.00    +0.000 A 
ATOM      9  C   UNL     1      -1.964  11.947  20.606  0.00  0.00    +0.000 A 
ATOM     10  C   UNL     1      -0.946  11.078  20.189  0.00  0.00    +0.000 A 
BRANCH   2  11
ATOM     11  C   UNL     1      -1.158  10.996  17.694  0.00  0.00    +0.000 C 
BRANCH  11  13
ATOM     12  C   UNL     1      -3.431   9.823  17.594  0.00  0.00    +0.000 C 
ATOM     13  C   UNL     1      -2.021   9.924  17.025  0.00  0.00    +0.000 C 
ENDBRANCH  11  13
ENDBRANCH   2  11
ENDBRANCH   1   3
BRANCH   1  14
ATOM     14  C   UNL     1       2.289   8.018  18.445  0.00  0.00    +0.000 A 
ATOM     15  C   UNL     1       1.960   7.152  19.492  0.00  0.00    +0.000 A 
ATOM     16  C   UNL     1       2.700   5.988  19.735  0.00  0.00    +0.000 A 
ATOM     17  C   UNL     1       3.821   5.682  18.933  0.00  0.00    +0.000 A 
ATOM     18  C   UNL     1       4.198   6.565  17.904  0.00  0.00    +0.000 A 
ATOM     19  C   UNL     1       3.430   7.718  17.676  0.00  0.00    +0.000 A 
BRANCH  16  20
ATOM     20  O   UNL     1       2.379   5.097  20.735  0.00  0.00    +0.000 OA
ATOM     21  C   UNL     1       1.207   4.316  20.524  0.00  0.00    +0.000 C 
ENDBRANCH  16  20
BRANCH  17  22
ATOM     22  O   UNL     1       4.509   4.537  19.279  0.00  0.00    +0.000 OA
ATOM     23  C   UNL     1       4.259   3.381  18.489  0.00  0.00    +0.000 C 
ENDBRANCH  17  22
BRANCH  18  24
ATOM     24  O   UNL     1       5.311   6.251  17.168  0.00  0.00    +0.000 OA
ATOM     25  C   UNL     1       5.201   6.176  15.754  0.00  0.00    +0.000 C 
ENDBRANCH  18  24
ENDBRANCH   1  14
BRANCH   1  26
ATOM     26  O   UNL     1       2.160  10.234  17.494  0.00  0.00    +0.000 OA
ATOM     27  H   UNL     1       3.002  10.204  17.991  0.00  0.00    +0.000 HD
ENDBRANCH   1  26
TORSDOF 8
ENDMDL
MODEL 8
REMARK VINA RESULT:      -7.0      4.533      8.525
REMARK  Name = 
REMARK  12 active torsions:
REMARK  status: ('A' for Active; 'I' for Inactive)
REMARK    1  A    between atoms: C_1  and  C_2
REMARK    2  A    between atoms: C_2  and  C_3
REMARK    3  A    between atoms: C_3  and  N_4
REMARK    4  A    between atoms: C_5  and  C_6
REMARK    5  A    between atoms: C_6  and  O_7
REMARK    6  A    between atoms: C_6  and  C_8
REMARK    7  A    between atoms: C_10  and  O_11
REMARK    8  A    between atoms: O_11  and  C_12
REMARK    9  A    between atoms: C_13  and  O_14
REMARK   10  A    between atoms: O_14  and  C_15
REMARK   11  A    between atoms: C_16  and  O_17
REMARK   12  A    between atoms: O_17  and  C_18
REMARK                            x       y       z     vdW  Elec       q    Type
REMARK                         _______ _______ _______ _____ _____    ______ ____
ROOT
ATOM      1  C   UNL     1       1.150  10.475  18.942  0.00  0.00    +0.000 C 
ENDROOT
BRANCH   1   3
ATOM      2  N   UNL     1       1.408   8.091  19.870  0.00  0.00    +0.000 N 
ATOM      3  C   UNL     1       1.663   9.057  18.915  0.00  0.00    +0.000 A 
ATOM      4  N   UNL     1       2.506   8.597  18.004  0.00  0.00    +0.000 NA
ATOM      5  C   UNL     1       2.816   7.319  18.383  0.00  0.00    +0.000 A 
ATOM      6  C   UNL     1       3.681   6.394  17.775  0.00  0.00    +0.000 A 
ATOM      7  C   UNL     1       3.866   5.145  18.379  0.00  0.00    +0.000 A 
ATOM      8  C   UNL     1       3.200   4.819  19.559  0.00  0.00    +0.000 A 
ATOM      9  C   UNL     1       2.328   5.726  20.173  0.00  0.00    +0.000 A 
ATOM     10  C   UNL     1       2.157   6.974  19.556  0.00  0.00    +0.000 A 
BRANCH   2  11
ATOM     11  C   UNL     1       0.604   8.228  21.072  0.00  0.00    +0.000 C 
BRANCH  11  13
ATOM     12  C   UNL     1       0.234   9.539  23.240  0.00  0.00    +0.000 C 
ATOM     13  C   UNL     1       1.221   9.106  22.163  0.00  0.00    +0.000 C 
ENDBRANCH  11  13
ENDBRANCH   2  11
ENDBRANCH   1   3
BRANCH   1  14
ATOM     14  C   UNL     1      -0.346  10.664  18.731  0.00  0.00    +0.000 A 
ATOM     15  C   UNL     1      -1.093  11.547  19.516  0.00  0.00    +0.000 A 
ATOM     16  C   UNL     1      -2.421  11.860  19.199  0.00  0.00    +0.000 A 
ATOM     17  C   UNL     1      -3.043  11.258  18.082  0.00  0.00    +0.000 A 
ATOM     18  C   UNL     1      -2.323  10.329  17.306  0.00  0.00    +0.000 A 
ATOM     19  C   UNL     1      -0.990  10.045  17.641  0.00  0.00    +0.000 A 
BRANCH  16  20
ATOM     20  O   UNL     1      -3.171  12.753  19.931  0.00  0.00    +0.000 OA
ATOM     21  C   UNL     1      -2.445  13.787  20.588  0.00  0.00    +0.000 C 
ENDBRANCH  16  20
BRANCH  17  22
ATOM     22  O   UNL     1      -4.364  11.597  17.879  0.00  0.00    +0.000 OA
ATOM     23  C   UNL     1      -5.338  10.690  18.382  0.00  0.00    +0.000 C 
ENDBRANCH  17  22
BRANCH  18  24
ATOM     24  O   UNL     1      -2.970   9.741  16.251  0.00  0.00    +0.000 OA
ATOM     25  C   UNL     1      -2.917  10.368  14.977  0.00  0.00    +0.000 C 
ENDBRANCH  18  24
ENDBRANCH   1  14
BRANCH   1  26
ATOM     26  O   UNL     1       1.873  11.165  17.919  0.00  0.00    +0.000 OA
ATOM     27  H   UNL     1       1.277  11.891  17.643  0.00  0.00    +0.000 HD
ENDBRANCH   1  26
TORSDOF 8
ENDMDL
MODEL 9
REMARK VINA RESULT:      -7.0      2.984      5.402
REMARK  Name = 
REMARK  12 active torsions:
REMARK  status: ('A' for Active; 'I' for Inactive)
REMARK    1  A    between atoms: C_1  and  C_2
REMARK    2  A    between atoms: C_2  and  C_3
REMARK    3  A    between atoms: C_3  and  N_4
REMARK    4  A    between atoms: C_5  and  C_6
REMARK    5  A    between atoms: C_6  and  O_7
REMARK    6  A    between atoms: C_6  and  C_8
REMARK    7  A    between atoms: C_10  and  O_11
REMARK    8  A    between atoms: O_11  and  C_12
REMARK    9  A    between atoms: C_13  and  O_14
REMARK   10  A    between atoms: O_14  and  C_15
REMARK   11  A    between atoms: C_16  and  O_17
REMARK   12  A    between atoms: O_17  and  C_18
REMARK                            x       y       z     vdW  Elec       q    Type
REMARK                         _______ _______ _______ _____ _____    ______ ____
ROOT
ATOM      1  C   UNL     1       2.043   8.031  18.030  0.00  0.00    +0.000 C 
ENDROOT
BRANCH   1   3
ATOM      2  N   UNL     1       0.408   9.634  19.199  0.00  0.00    +0.000 N 
ATOM      3  C   UNL     1       1.312   8.589  19.225  0.00  0.00    +0.000 A 
ATOM      4  N   UNL     1       1.528   8.193  20.470  0.00  0.00    +0.000 NA
ATOM      5  C   UNL     1       0.766   9.006  21.264  0.00  0.00    +0.000 A 
ATOM      6  C   UNL     1       0.642   9.023  22.664  0.00  0.00    +0.000 A 
ATOM      7  C   UNL     1      -0.182   9.985  23.258  0.00  0.00    +0.000 A 
ATOM      8  C   UNL     1      -0.876  10.907  22.476  0.00  0.00    +0.000 A 
ATOM      9  C   UNL     1      -0.771  10.899  21.080  0.00  0.00    +0.000 A 
ATOM     10  C   UNL     1       0.062   9.930  20.502  0.00  0.00    +0.000 A 
BRANCH   2  11
ATOM     11  C   UNL     1      -0.028  10.397  18.042  0.00  0.00    +0.000 C 
BRANCH  11  13
ATOM     12  C   UNL     1      -2.404  11.247  17.613  0.00  0.00    +0.000 C 
ATOM     13  C   UNL     1      -1.440  10.070  17.549  0.00  0.00    +0.000 C 
ENDBRANCH  11  13
ENDBRANCH   2  11
ENDBRANCH   1   3
BRANCH   1  14
ATOM     14  C   UNL     1       2.569   6.607  18.154  0.00  0.00    +0.000 A 
ATOM     15  C   UNL     1       1.720   5.500  18.063  0.00  0.00    +0.000 A 
ATOM     16  C   UNL     1       2.228   4.196  17.988  0.00  0.00    +0.000 A 
ATOM     17  C   UNL     1       3.622   3.976  18.032  0.00  0.00    +0.000 A 
ATOM     18  C   UNL     1       4.493   5.074  18.173  0.00  0.00    +0.000 A 
ATOM     19  C   UNL     1       3.955   6.370  18.232  0.00  0.00    +0.000 A 
BRANCH  16  20
ATOM     20  O   UNL     1       1.419   3.089  17.860  0.00  0.00    +0.000 OA
ATOM     21  C   UNL     1       0.631   2.755  18.998  0.00  0.00    +0.000 C 
ENDBRANCH  16  20
BRANCH  17  22
ATOM     22  O   UNL     1       4.020   2.656  17.995  0.00  0.00    +0.000 OA
ATOM     23  C   UNL     1       4.187   2.007  19.250  0.00  0.00    +0.000 C 
ENDBRANCH  17  22
BRANCH  18  24
ATOM     24  O   UNL     1       5.837   4.819  18.245  0.00  0.00    +0.000 OA
ATOM     25  C   UNL     1       6.583   5.363  19.325  0.00  0.00    +0.000 C 
ENDBRANCH  18  24
ENDBRANCH   1  14
BRANCH   1  26
ATOM     26  O   UNL     1       3.131   8.927  17.791  0.00  0.00    +0.000 OA
ATOM     27  H   UNL     1       2.723   9.816  17.788  0.00  0.00    +0.000 HD
ENDBRANCH   1  26
TORSDOF 8
ENDMDL
