MODEL 1
REMARK VINA RESULT:      -8.0      0.000      0.000
REMARK  Name = 
REMARK  10 active torsions:
REMARK  status: ('A' for Active; 'I' for Inactive)
REMARK    1  A    between atoms: C_1  and  O_2
REMARK    2  A    between atoms: O_2  and  C_3
REMARK    3  A    between atoms: C_6  and  C_7
REMARK    4  A    between atoms: N_9  and  C_10
REMARK    5  A    between atoms: C_14  and  O_15
REMARK    6  A    between atoms: O_15  and  C_16
REMARK    7  A    between atoms: C_16  and  C_17
REMARK    8  A    between atoms: C_17  and  C_18
REMARK    9  A    between atoms: C_18  and  N_19
REMARK   10  A    between atoms: N_22  and  C_23
REMARK                            x       y       z     vdW  Elec       q    Type
REMARK                         _______ _______ _______ _____ _____    ______ ____
ROOT
ATOM      1  C   UNL     1       3.853   4.528  17.194  0.00  0.00    +0.000 C 
ATOM      2  C   UNL     1       3.452   3.123  17.794  0.00  0.00    +0.000 C 
ATOM      3  N   UNL     1       2.552   3.099  18.931  0.00  0.00    +0.000 NA
ATOM      4  C   UNL     1       1.246   3.645  18.540  0.00  0.00    +0.000 C 
ATOM      5  C   UNL     1       3.268   3.833  19.986  0.00  0.00    +0.000 C 
ATOM      6  C   UNL     1       3.322   5.300  19.635  0.00  0.00    +0.000 A 
ATOM      7  C   UNL     1       2.572   6.099  20.553  0.00  0.00    +0.000 A 
ATOM      8  C   UNL     1       1.865   7.224  20.156  0.00  0.00    +0.000 A 
ATOM      9  C   UNL     1       2.198   7.713  18.900  0.00  0.00    +0.000 A 
ATOM     10  C   UNL     1       3.109   6.984  18.000  0.00  0.00    +0.000 A 
ATOM     11  C   UNL     1       3.648   5.693  18.303  0.00  0.00    +0.000 A 
ENDROOT
BRANCH   1  15
ATOM     12  C   UNL     1       7.209   5.013  14.563  0.00  0.00    +0.000 A 
ATOM     13  C   UNL     1       7.370   4.833  15.943  0.00  0.00    +0.000 A 
ATOM     14  C   UNL     1       6.339   4.311  16.752  0.00  0.00    +0.000 A 
ATOM     15  C   UNL     1       5.045   3.995  16.248  0.00  0.00    +0.000 A 
ATOM     16  C   UNL     1       4.961   4.013  14.826  0.00  0.00    +0.000 A 
ATOM     17  C   UNL     1       6.025   4.547  14.002  0.00  0.00    +0.000 A 
BRANCH  12  19
ATOM     18  C   UNL     1       8.425   5.686  12.562  0.00  0.00    +0.000 C 
ATOM     19  O   UNL     1       8.241   5.690  13.972  0.00  0.00    +0.000 OA
ENDBRANCH  12  19
ENDBRANCH   1  15
BRANCH   8  20
ATOM     20  O   UNL     1       0.965   7.604  21.107  0.00  0.00    +0.000 OA
BRANCH  20  21
ATOM     21  C   UNL     1       0.560   8.911  21.556  0.00  0.00    +0.000 C 
BRANCH  21  22
ATOM     22  C   UNL     1      -0.687   9.538  20.898  0.00  0.00    +0.000 C 
BRANCH  22  23
ATOM     23  C   UNL     1      -0.625  11.090  20.662  0.00  0.00    +0.000 C 
BRANCH  23  24
ATOM     24  N   UNL     1      -0.138  11.531  19.345  0.00  0.00    +0.000 NA
ATOM     25  C   UNL     1      -0.804  12.747  18.843  0.00  0.00    +0.000 C 
ATOM     26  C   UNL     1      -0.322  14.082  19.482  0.00  0.00    +0.000 C 
ATOM     27  N   UNL     1       1.114  14.232  19.202  0.00  0.00    +0.000 N 
ATOM     28  C   UNL     1       1.937  13.116  19.708  0.00  0.00    +0.000 C 
ATOM     29  C   UNL     1       1.343  11.734  19.276  0.00  0.00    +0.000 C 
BRANCH  27  30
ATOM     30  C   UNL     1       1.614  15.356  18.571  0.00  0.00    +0.000 A 
ATOM     31  C   UNL     1       0.846  16.544  18.486  0.00  0.00    +0.000 A 
ATOM     32  C   UNL     1       1.344  17.652  17.803  0.00  0.00    +0.000 A 
ATOM     33  N   UNL     1       2.545  17.681  17.200  0.00  0.00    +0.000 NA
ATOM     34  C   UNL     1       3.287  16.555  17.308  0.00  0.00    +0.000 A 
ATOM     35  C   UNL     1       2.855  15.408  17.967  0.00  0.00    +0.000 A 
ENDBRANCH  27  30
ENDBRANCH  23  24
ENDBRANCH  22  23
ENDBRANCH  21  22
ENDBRANCH  20  21
ENDBRANCH   8  20
TORSDOF 8
ENDMDL
MODEL 2
REMARK VINA RESULT:      -7.9      0.782      1.384
REMARK  Name = 
REMARK  10 active torsions:
REMARK  status: ('A' for Active; 'I' for Inactive)
REMARK    1  A    between atoms: C_1  and  O_2
REMARK    2  A    between atoms: O_2  and  C_3
REMARK    3  A    between atoms: C_6  and  C_7
REMARK    4  A    between atoms: N_9  and  C_10
REMARK    5  A    between atoms: C_14  and  O_15
REMARK    6  A    between atoms: O_15  and  C_16
REMARK    7  A    between atoms: C_16  and  C_17
REMARK    8  A    between atoms: C_17  and  C_18
REMARK    9  A    between atoms: C_18  and  N_19
REMARK   10  A    between atoms: N_22  and  C_23
REMARK                            x       y       z     vdW  Elec       q    Type
REMARK                         _______ _______ _______ _____ _____    ______ ____
ROOT
ATOM      1  C   UNL     1       4.037   4.456  17.245  0.00  0.00    +0.000 C 
ATOM      2  C   UNL     1       3.499   3.035  17.675  0.00  0.00    +0.000 C 
ATOM      3  N   UNL     1       2.480   2.976  18.706  0.00  0.00    +0.000 NA
ATOM      4  C   UNL     1       1.255   3.631  18.229  0.00  0.00    +0.000 C 
ATOM      5  C   UNL     1       3.114   3.577  19.889  0.00  0.00    +0.000 C 
ATOM      6  C   UNL     1       3.284   5.061  19.674  0.00  0.00    +0.000 A 
ATOM      7  C   UNL     1       2.481   5.828  20.574  0.00  0.00    +0.000 A 
ATOM      8  C   UNL     1       1.883   7.024  20.204  0.00  0.00    +0.000 A 
ATOM      9  C   UNL     1       2.377   7.590  19.037  0.00  0.00    +0.000 A 
ATOM     10  C   UNL     1       3.341   6.881  18.178  0.00  0.00    +0.000 A 
ATOM     11  C   UNL     1       3.774   5.539  18.422  0.00  0.00    +0.000 A 
ENDROOT
BRANCH   1  15
ATOM     12  C   UNL     1       7.331   4.917  14.532  0.00  0.00    +0.000 A 
ATOM     13  C   UNL     1       7.500   4.988  15.921  0.00  0.00    +0.000 A 
ATOM     14  C   UNL     1       6.535   4.482  16.816  0.00  0.00    +0.000 A 
ATOM     15  C   UNL     1       5.295   3.927  16.386  0.00  0.00    +0.000 A 
ATOM     16  C   UNL     1       5.223   3.701  14.981  0.00  0.00    +0.000 A 
ATOM     17  C   UNL     1       6.220   4.221  14.068  0.00  0.00    +0.000 A 
BRANCH  12  19
ATOM     18  C   UNL     1       8.158   5.816  12.424  0.00  0.00    +0.000 C 
ATOM     19  O   UNL     1       8.276   5.611  13.826  0.00  0.00    +0.000 OA
ENDBRANCH  12  19
ENDBRANCH   1  15
BRANCH   8  20
ATOM     20  O   UNL     1       0.906   7.381  21.085  0.00  0.00    +0.000 OA
BRANCH  20  21
ATOM     21  C   UNL     1       0.568   8.661  21.652  0.00  0.00    +0.000 C 
BRANCH  21  22
ATOM     22  C   UNL     1       0.543   9.878  20.704  0.00  0.00    +0.000 C 
BRANCH  22  23
ATOM     23  C   UNL     1      -0.247  11.132  21.226  0.00  0.00    +0.000 C 
BRANCH  23  24
ATOM     24  N   UNL     1       0.553  12.332  21.519  0.00  0.00    +0.000 NA
ATOM     25  C   UNL     1       1.639  12.572  20.550  0.00  0.00    +0.000 C 
ATOM     26  C   UNL     1       1.195  13.186  19.190  0.00  0.00    +0.000 C 
ATOM     27  N   UNL     1       0.563  14.486  19.458  0.00  0.00    +0.000 N 
ATOM     28  C   UNL     1      -0.597  14.407  20.367  0.00  0.00    +0.000 C 
ATOM     29  C   UNL     1      -0.251  13.587  21.655  0.00  0.00    +0.000 C 
BRANCH  27  30
ATOM     30  C   UNL     1       1.010  15.645  18.850  0.00  0.00    +0.000 A 
ATOM     31  C   UNL     1       2.269  15.687  18.200  0.00  0.00    +0.000 A 
ATOM     32  C   UNL     1       2.726  16.876  17.637  0.00  0.00    +0.000 A 
ATOM     33  N   UNL     1       2.035  18.029  17.660  0.00  0.00    +0.000 NA
ATOM     34  C   UNL     1       0.822  17.978  18.257  0.00  0.00    +0.000 A 
ATOM     35  C   UNL     1       0.301  16.831  18.847  0.00  0.00    +0.000 A 
ENDBRANCH  27  30
ENDBRANCH  23  24
ENDBRANCH  22  23
ENDBRANCH  21  22
ENDBRANCH  20  21
ENDBRANCH   8  20
TORSDOF 8
ENDMDL
MODEL 3
REMARK VINA RESULT:      -7.7      2.716      3.772
REMARK  Name = 
REMARK  10 active torsions:
REMARK  status: ('A' for Active; 'I' for Inactive)
REMARK    1  A    between atoms: C_1  and  O_2
REMARK    2  A    between atoms: O_2  and  C_3
REMARK    3  A    between atoms: C_6  and  C_7
REMARK    4  A    between atoms: N_9  and  C_10
REMARK    5  A    between atoms: C_14  and  O_15
REMARK    6  A    between atoms: O_15  and  C_16
REMARK    7  A    between atoms: C_16  and  C_17
REMARK    8  A    between atoms: C_17  and  C_18
REMARK    9  A    between atoms: C_18  and  N_19
REMARK   10  A    between atoms: N_22  and  C_23
REMARK                            x       y       z     vdW  Elec       q    Type
REMARK                         _______ _______ _______ _____ _____    ______ ____
ROOT
ATOM      1  C   UNL     1       3.893   4.522  17.340  0.00  0.00    +0.000 C 
ATOM      2  C   UNL     1       3.411   3.115  17.870  0.00  0.00    +0.000 C 
ATOM      3  N   UNL     1       2.435   3.089  18.943  0.00  0.00    +0.000 NA
ATOM      4  C   UNL     1       1.175   3.685  18.481  0.00  0.00    +0.000 C 
ATOM      5  C   UNL     1       3.099   3.772  20.064  0.00  0.00    +0.000 C 
ATOM      6  C   UNL     1       3.219   5.245  19.759  0.00  0.00    +0.000 A 
ATOM      7  C   UNL     1       2.431   6.042  20.647  0.00  0.00    +0.000 A 
ATOM      8  C   UNL     1       1.786   7.199  20.235  0.00  0.00    +0.000 A 
ATOM      9  C   UNL     1       2.218   7.711  19.019  0.00  0.00    +0.000 A 
ATOM     10  C   UNL     1       3.167   6.978  18.162  0.00  0.00    +0.000 A 
ATOM     11  C   UNL     1       3.646   5.664  18.464  0.00  0.00    +0.000 A 
ENDROOT
BRANCH   1  15
ATOM     12  C   UNL     1       7.228   4.960  14.674  0.00  0.00    +0.000 A 
ATOM     13  C   UNL     1       7.388   4.951  16.066  0.00  0.00    +0.000 A 
ATOM     14  C   UNL     1       6.393   4.446  16.928  0.00  0.00    +0.000 A 
ATOM     15  C   UNL     1       5.131   3.977  16.461  0.00  0.00    +0.000 A 
ATOM     16  C   UNL     1       5.059   3.829  15.046  0.00  0.00    +0.000 A 
ATOM     17  C   UNL     1       6.088   4.346  14.168  0.00  0.00    +0.000 A 
BRANCH  12  19
ATOM     18  C   UNL     1       8.268   5.676  12.590  0.00  0.00    +0.000 C 
ATOM     19  O   UNL     1       8.211   5.643  14.011  0.00  0.00    +0.000 OA
ENDBRANCH  12  19
ENDBRANCH   1  15
BRANCH   8  20
ATOM     20  O   UNL     1       0.835   7.581  21.134  0.00  0.00    +0.000 OA
BRANCH  20  21
ATOM     21  C   UNL     1       0.545   8.868  21.713  0.00  0.00    +0.000 C 
BRANCH  21  22
ATOM     22  C   UNL     1      -0.252   9.874  20.856  0.00  0.00    +0.000 C 
BRANCH  22  23
ATOM     23  C   UNL     1       0.300  11.345  20.843  0.00  0.00    +0.000 C 
BRANCH  23  24
ATOM     24  N   UNL     1       0.060  12.143  22.056  0.00  0.00    +0.000 NA
ATOM     25  C   UNL     1       0.043  13.598  21.815  0.00  0.00    +0.000 C 
ATOM     26  C   UNL     1      -1.265  14.152  21.178  0.00  0.00    +0.000 C 
ATOM     27  N   UNL     1      -2.381  13.854  22.088  0.00  0.00    +0.000 N 
ATOM     28  C   UNL     1      -2.543  12.416  22.378  0.00  0.00    +0.000 C 
ATOM     29  C   UNL     1      -1.182  11.767  22.802  0.00  0.00    +0.000 C 
BRANCH  27  30
ATOM     30  C   UNL     1      -3.213  14.851  22.562  0.00  0.00    +0.000 A 
ATOM     31  C   UNL     1      -3.342  16.081  21.869  0.00  0.00    +0.000 A 
ATOM     32  C   UNL     1      -4.146  17.094  22.386  0.00  0.00    +0.000 A 
ATOM     33  N   UNL     1      -4.838  16.988  23.534  0.00  0.00    +0.000 NA
ATOM     34  C   UNL     1      -4.734  15.803  24.178  0.00  0.00    +0.000 A 
ATOM     35  C   UNL     1      -3.947  14.748  23.728  0.00  0.00    +0.000 A 
ENDBRANCH  27  30
ENDBRANCH  23  24
ENDBRANCH  22  23
ENDBRANCH  21  22
ENDBRANCH  20  21
ENDBRANCH   8  20
TORSDOF 8
ENDMDL
MODEL 4
REMARK VINA RESULT:      -7.6      0.896      1.123
REMARK  Name = 
REMARK  10 active torsions:
REMARK  status: ('A' for Active; 'I' for Inactive)
REMARK    1  A    between atoms: C_1  and  O_2
REMARK    2  A    between atoms: O_2  and  C_3
REMARK    3  A    between atoms: C_6  and  C_7
REMARK    4  A    between atoms: N_9  and  C_10
REMARK    5  A    between atoms: C_14  and  O_15
REMARK    6  A    between atoms: O_15  and  C_16
REMARK    7  A    between atoms: C_16  and  C_17
REMARK    8  A    between atoms: C_17  and  C_18
REMARK    9  A    between atoms: C_18  and  N_19
REMARK   10  A    between atoms: N_22  and  C_23
REMARK                            x       y       z     vdW  Elec       q    Type
REMARK                         _______ _______ _______ _____ _____    ______ ____
ROOT
ATOM      1  C   UNL     1       3.936   4.358  17.282  0.00  0.00    +0.000 C 
ATOM      2  C   UNL     1       3.481   2.919  17.748  0.00  0.00    +0.000 C 
ATOM      3  N   UNL     1       2.527   2.825  18.836  0.00  0.00    +0.000 NA
ATOM      4  C   UNL     1       1.251   3.428  18.430  0.00  0.00    +0.000 C 
ATOM      5  C   UNL     1       3.204   3.457  19.978  0.00  0.00    +0.000 C 
ATOM      6  C   UNL     1       3.301   4.945  19.749  0.00  0.00    +0.000 A 
ATOM      7  C   UNL     1       2.523   5.685  20.693  0.00  0.00    +0.000 A 
ATOM      8  C   UNL     1       1.856   6.854  20.355  0.00  0.00    +0.000 A 
ATOM      9  C   UNL     1       2.258   7.433  19.159  0.00  0.00    +0.000 A 
ATOM     10  C   UNL     1       3.198   6.758  18.247  0.00  0.00    +0.000 A 
ATOM     11  C   UNL     1       3.698   5.436  18.470  0.00  0.00    +0.000 A 
ENDROOT
BRANCH   1  15
ATOM     12  C   UNL     1       7.264   4.983  14.646  0.00  0.00    +0.000 A 
ATOM     13  C   UNL     1       7.431   4.849  16.031  0.00  0.00    +0.000 A 
ATOM     14  C   UNL     1       6.432   4.285  16.851  0.00  0.00    +0.000 A 
ATOM     15  C   UNL     1       5.162   3.876  16.353  0.00  0.00    +0.000 A 
ATOM     16  C   UNL     1       5.082   3.852  14.931  0.00  0.00    +0.000 A 
ATOM     17  C   UNL     1       6.114   4.430  14.095  0.00  0.00    +0.000 A 
BRANCH  12  19
ATOM     18  C   UNL     1       8.351   5.799  12.625  0.00  0.00    +0.000 C 
ATOM     19  O   UNL     1       8.255   5.707  14.040  0.00  0.00    +0.000 OA
ENDBRANCH  12  19
ENDBRANCH   1  15
BRANCH   8  20
ATOM     20  O   UNL     1       0.919   7.176  21.290  0.00  0.00    +0.000 OA
BRANCH  20  21
ATOM     21  C   UNL     1       0.002   8.285  21.366  0.00  0.00    +0.000 C 
BRANCH  21  22
ATOM     22  C   UNL     1       0.409   9.597  20.664  0.00  0.00    +0.000 C 
BRANCH  22  23
ATOM     23  C   UNL     1      -0.485  10.848  20.986  0.00  0.00    +0.000 C 
BRANCH  23  24
ATOM     24  N   UNL     1      -0.577  11.874  19.935  0.00  0.00    +0.000 NA
ATOM     25  C   UNL     1      -0.530  13.255  20.449  0.00  0.00    +0.000 C 
ATOM     26  C   UNL     1       0.884  13.771  20.845  0.00  0.00    +0.000 C 
ATOM     27  N   UNL     1       1.739  13.728  19.649  0.00  0.00    +0.000 N 
ATOM     28  C   UNL     1       1.853  12.385  19.049  0.00  0.00    +0.000 C 
ATOM     29  C   UNL     1       0.444  11.732  18.850  0.00  0.00    +0.000 C 
BRANCH  27  30
ATOM     30  C   UNL     1       2.403  14.853  19.195  0.00  0.00    +0.000 A 
ATOM     31  C   UNL     1       3.078  14.845  17.948  0.00  0.00    +0.000 A 
ATOM     32  C   UNL     1       3.783  15.969  17.528  0.00  0.00    +0.000 A 
ATOM     33  N   UNL     1       3.873  17.106  18.240  0.00  0.00    +0.000 NA
ATOM     34  C   UNL     1       3.206  17.119  19.416  0.00  0.00    +0.000 A 
ATOM     35  C   UNL     1       2.485  16.034  19.906  0.00  0.00    +0.000 A 
ENDBRANCH  27  30
ENDBRANCH  23  24
ENDBRANCH  22  23
ENDBRANCH  21  22
ENDBRANCH  20  21
ENDBRANCH   8  20
TORSDOF 8
ENDMDL
MODEL 5
REMARK VINA RESULT:      -7.6      3.462     11.425
REMARK  Name = 
REMARK  10 active torsions:
REMARK  status: ('A' for Active; 'I' for Inactive)
REMARK    1  A    between atoms: C_1  and  O_2
REMARK    2  A    between atoms: O_2  and  C_3
REMARK    3  A    between atoms: C_6  and  C_7
REMARK    4  A    between atoms: N_9  and  C_10
REMARK    5  A    between atoms: C_14  and  O_15
REMARK    6  A    between atoms: O_15  and  C_16
REMARK    7  A    between atoms: C_16  and  C_17
REMARK    8  A    between atoms: C_17  and  C_18
REMARK    9  A    between atoms: C_18  and  N_19
REMARK   10  A    between atoms: N_22  and  C_23
REMARK                            x       y       z     vdW  Elec       q    Type
REMARK                         _______ _______ _______ _____ _____    ______ ____
ROOT
ATOM      1  C   UNL     1      -2.051  12.396  21.444  0.00  0.00    +0.000 C 
ATOM      2  C   UNL     1      -1.855  12.705  19.908  0.00  0.00    +0.000 C 
ATOM      3  N   UNL     1      -0.994  11.826  19.140  0.00  0.00    +0.000 NA
ATOM      4  C   UNL     1      -1.570  10.475  19.106  0.00  0.00    +0.000 C 
ATOM      5  C   UNL     1       0.325  11.949  19.779  0.00  0.00    +0.000 C 
ATOM      6  C   UNL     1       0.295  11.285  21.134  0.00  0.00    +0.000 A 
ATOM      7  C   UNL     1       1.147  10.138  21.188  0.00  0.00    +0.000 A 
ATOM      8  C   UNL     1       0.824   9.004  21.918  0.00  0.00    +0.000 A 
ATOM      9  C   UNL     1      -0.194   9.175  22.847  0.00  0.00    +0.000 A 
ATOM     10  C   UNL     1      -0.976  10.421  22.921  0.00  0.00    +0.000 A 
ATOM     11  C   UNL     1      -0.815  11.506  22.002  0.00  0.00    +0.000 A 
ENDROOT
BRANCH   1  15
ATOM     12  C   UNL     1      -5.125  14.788  23.245  0.00  0.00    +0.000 A 
ATOM     13  C   UNL     1      -3.930  14.492  23.914  0.00  0.00    +0.000 A 
ATOM     14  C   UNL     1      -2.784  14.041  23.227  0.00  0.00    +0.000 A 
ATOM     15  C   UNL     1      -2.771  13.787  21.825  0.00  0.00    +0.000 A 
ATOM     16  C   UNL     1      -3.929  14.262  21.144  0.00  0.00    +0.000 A 
ATOM     17  C   UNL     1      -5.100  14.728  21.856  0.00  0.00    +0.000 A 
BRANCH  12  19
ATOM     18  C   UNL     1      -7.418  14.361  23.947  0.00  0.00    +0.000 C 
ATOM     19  O   UNL     1      -6.177  15.040  24.083  0.00  0.00    +0.000 OA
ENDBRANCH  12  19
ENDBRANCH   1  15
BRANCH   8  20
ATOM     20  O   UNL     1       1.588   7.940  21.543  0.00  0.00    +0.000 OA
BRANCH  20  21
ATOM     21  C   UNL     1       1.352   6.903  20.570  0.00  0.00    +0.000 C 
BRANCH  21  22
ATOM     22  C   UNL     1       1.758   5.464  20.949  0.00  0.00    +0.000 C 
BRANCH  22  23
ATOM     23  C   UNL     1       0.962   4.319  20.225  0.00  0.00    +0.000 C 
BRANCH  23  24
ATOM     24  N   UNL     1       1.716   3.513  19.252  0.00  0.00    +0.000 NA
ATOM     25  C   UNL     1       1.804   4.129  17.915  0.00  0.00    +0.000 C 
ATOM     26  C   UNL     1       2.841   5.283  17.780  0.00  0.00    +0.000 C 
ATOM     27  N   UNL     1       4.172   4.742  18.094  0.00  0.00    +0.000 N 
ATOM     28  C   UNL     1       4.269   4.145  19.440  0.00  0.00    +0.000 C 
ATOM     29  C   UNL     1       3.095   3.143  19.700  0.00  0.00    +0.000 C 
BRANCH  27  30
ATOM     30  C   UNL     1       5.225   4.853  17.204  0.00  0.00    +0.000 A 
ATOM     31  C   UNL     1       6.278   5.774  17.435  0.00  0.00    +0.000 A 
ATOM     32  C   UNL     1       7.305   5.909  16.504  0.00  0.00    +0.000 A 
ATOM     33  N   UNL     1       7.379   5.202  15.363  0.00  0.00    +0.000 NA
ATOM     34  C   UNL     1       6.387   4.305  15.160  0.00  0.00    +0.000 A 
ATOM     35  C   UNL     1       5.325   4.118  16.039  0.00  0.00    +0.000 A 
ENDBRANCH  27  30
ENDBRANCH  23  24
ENDBRANCH  22  23
ENDBRANCH  21  22
ENDBRANCH  20  21
ENDBRANCH   8  20
TORSDOF 8
ENDMDL
MODEL 6
REMARK VINA RESULT:      -7.6      5.465      7.580
REMARK  Name = 
REMARK  10 active torsions:
REMARK  status: ('A' for Active; 'I' for Inactive)
REMARK    1  A    between atoms: C_1  and  O_2
REMARK    2  A    between atoms: O_2  and  C_3
REMARK    3  A    between atoms: C_6  and  C_7
REMARK    4  A    between atoms: N_9  and  C_10
REMARK    5  A    between atoms: C_14  and  O_15
REMARK    6  A    between atoms: O_15  and  C_16
REMARK    7  A    between atoms: C_16  and  C_17
REMARK    8  A    between atoms: C_17  and  C_18
REMARK    9  A    between atoms: C_18  and  N_19
REMARK   10  A    between atoms: N_22  and  C_23
REMARK                            x       y       z     vdW  Elec       q    Type
REMARK                         _______ _______ _______ _____ _____    ______ ____
ROOT
ATOM      1  C   UNL     1       5.105   4.168  17.050  0.00  0.00    +0.000 C 
ATOM      2  C   UNL     1       4.875   4.472  15.517  0.00  0.00    +0.000 C 
ATOM      3  N   UNL     1       5.623   5.561  14.919  0.00  0.00    +0.000 NA
ATOM      4  C   UNL     1       7.058   5.253  14.953  0.00  0.00    +0.000 C 
ATOM      5  C   UNL     1       5.201   6.755  15.667  0.00  0.00    +0.000 C 
ATOM      6  C   UNL     1       5.759   6.698  17.068  0.00  0.00    +0.000 A 
ATOM      7  C   UNL     1       6.712   7.737  17.308  0.00  0.00    +0.000 A 
ATOM      8  C   UNL     1       7.832   7.550  18.105  0.00  0.00    +0.000 A 
ATOM      9  C   UNL     1       7.796   6.422  18.913  0.00  0.00    +0.000 A 
ATOM     10  C   UNL     1       6.722   5.419  18.797  0.00  0.00    +0.000 A 
ATOM     11  C   UNL     1       5.696   5.477  17.802  0.00  0.00    +0.000 A 
ENDROOT
BRANCH   1  15
ATOM     12  C   UNL     1       1.943   2.296  19.267  0.00  0.00    +0.000 A 
ATOM     13  C   UNL     1       1.725   3.441  18.489  0.00  0.00    +0.000 A 
ATOM     14  C   UNL     1       2.629   3.843  17.485  0.00  0.00    +0.000 A 
ATOM     15  C   UNL     1       3.856   3.164  17.231  0.00  0.00    +0.000 A 
ATOM     16  C   UNL     1       3.970   1.912  17.902  0.00  0.00    +0.000 A 
ATOM     17  C   UNL     1       3.035   1.505  18.930  0.00  0.00    +0.000 A 
BRANCH  12  19
ATOM     18  C   UNL     1       1.259   2.824  21.545  0.00  0.00    +0.000 C 
ATOM     19  O   UNL     1       1.060   2.159  20.304  0.00  0.00    +0.000 OA
ENDBRANCH  12  19
ENDBRANCH   1  15
BRANCH   8  20
ATOM     20  O   UNL     1       8.752   8.535  17.903  0.00  0.00    +0.000 OA
BRANCH  20  21
ATOM     21  C   UNL     1       8.636   9.969  17.986  0.00  0.00    +0.000 C 
BRANCH  21  22
ATOM     22  C   UNL     1       9.706  10.725  18.800  0.00  0.00    +0.000 C 
BRANCH  22  23
ATOM     23  C   UNL     1       9.699  12.289  18.648  0.00  0.00    +0.000 C 
BRANCH  23  24
ATOM     24  N   UNL     1      10.241  13.058  19.779  0.00  0.00    +0.000 NA
ATOM     25  C   UNL     1       9.564  14.350  19.997  0.00  0.00    +0.000 C 
ATOM     26  C   UNL     1       8.179  14.265  20.704  0.00  0.00    +0.000 C 
ATOM     27  N   UNL     1       8.376  13.654  22.027  0.00  0.00    +0.000 N 
ATOM     28  C   UNL     1       8.988  12.313  21.976  0.00  0.00    +0.000 C 
ATOM     29  C   UNL     1      10.268  12.308  21.074  0.00  0.00    +0.000 C 
BRANCH  27  30
ATOM     30  C   UNL     1       7.960  14.287  23.184  0.00  0.00    +0.000 A 
ATOM     31  C   UNL     1       7.120  15.427  23.127  0.00  0.00    +0.000 A 
ATOM     32  C   UNL     1       6.751  16.083  24.300  0.00  0.00    +0.000 A 
ATOM     33  N   UNL     1       7.143  15.699  25.527  0.00  0.00    +0.000 NA
ATOM     34  C   UNL     1       7.923  14.595  25.578  0.00  0.00    +0.000 A 
ATOM     35  C   UNL     1       8.338  13.891  24.452  0.00  0.00    +0.000 A 
ENDBRANCH  27  30
ENDBRANCH  23  24
ENDBRANCH  22  23
ENDBRANCH  21  22
ENDBRANCH  20  21
ENDBRANCH   8  20
TORSDOF 8
ENDMDL
MODEL 7
REMARK VINA RESULT:      -7.5      2.906      3.927
REMARK  Name = 
REMARK  10 active torsions:
REMARK  status: ('A' for Active; 'I' for Inactive)
REMARK    1  A    between atoms: C_1  and  O_2
REMARK    2  A    between atoms: O_2  and  C_3
REMARK    3  A    between atoms: C_6  and  C_7
REMARK    4  A    between atoms: N_9  and  C_10
REMARK    5  A    between atoms: C_14  and  O_15
REMARK    6  A    between atoms: O_15  and  C_16
REMARK    7  A    between atoms: C_16  and  C_17
REMARK    8  A    between atoms: C_17  and  C_18
REMARK    9  A    between atoms: C_18  and  N_19
REMARK   10  A    between atoms: N_22  and  C_23
REMARK                            x       y       z     vdW  Elec       q    Type
REMARK                         _______ _______ _______ _____ _____    ______ ____
ROOT
ATOM      1  C   UNL     1       4.003   4.503  17.171  0.00  0.00    +0.000 C 
ATOM      2  C   UNL     1       3.536   3.098  17.721  0.00  0.00    +0.000 C 
ATOM      3  N   UNL     1       2.577   3.077  18.808  0.00  0.00    +0.000 NA
ATOM      4  C   UNL     1       1.307   3.663  18.359  0.00  0.00    +0.000 C 
ATOM      5  C   UNL     1       3.253   3.773  19.913  0.00  0.00    +0.000 C 
ATOM      6  C   UNL     1       3.361   5.244  19.594  0.00  0.00    +0.000 A 
ATOM      7  C   UNL     1       2.583   6.045  20.486  0.00  0.00    +0.000 A 
ATOM      8  C   UNL     1       1.926   7.195  20.074  0.00  0.00    +0.000 A 
ATOM      9  C   UNL     1       2.338   7.698  18.847  0.00  0.00    +0.000 A 
ATOM     10  C   UNL     1       3.278   6.963  17.983  0.00  0.00    +0.000 A 
ATOM     11  C   UNL     1       3.767   5.653  18.289  0.00  0.00    +0.000 A 
ENDROOT
BRANCH   1  15
ATOM     12  C   UNL     1       7.287   4.932  14.441  0.00  0.00    +0.000 A 
ATOM     13  C   UNL     1       7.472   4.944  15.830  0.00  0.00    +0.000 A 
ATOM     14  C   UNL     1       6.496   4.444  16.716  0.00  0.00    +0.000 A 
ATOM     15  C   UNL     1       5.231   3.957  16.279  0.00  0.00    +0.000 A 
ATOM     16  C   UNL     1       5.136   3.787  14.867  0.00  0.00    +0.000 A 
ATOM     17  C   UNL     1       6.145   4.300  13.964  0.00  0.00    +0.000 A 
BRANCH  12  19
ATOM     18  C   UNL     1       8.179   5.792  12.343  0.00  0.00    +0.000 C 
ATOM     19  O   UNL     1       8.253   5.614  13.752  0.00  0.00    +0.000 OA
ENDBRANCH  12  19
ENDBRANCH   1  15
BRANCH   8  20
ATOM     20  O   UNL     1       0.986   7.580  20.983  0.00  0.00    +0.000 OA
BRANCH  20  21
ATOM     21  C   UNL     1       0.829   8.811  21.716  0.00  0.00    +0.000 C 
BRANCH  21  22
ATOM     22  C   UNL     1      -0.097   9.888  21.112  0.00  0.00    +0.000 C 
BRANCH  22  23
ATOM     23  C   UNL     1       0.396  11.372  21.264  0.00  0.00    +0.000 C 
BRANCH  23  24
ATOM     24  N   UNL     1      -0.541  12.418  20.825  0.00  0.00    +0.000 NA
ATOM     25  C   UNL     1      -1.934  12.183  21.249  0.00  0.00    +0.000 C 
ATOM     26  C   UNL     1      -2.243  12.515  22.738  0.00  0.00    +0.000 C 
ATOM     27  N   UNL     1      -1.962  13.942  22.957  0.00  0.00    +0.000 N 
ATOM     28  C   UNL     1      -0.574  14.330  22.641  0.00  0.00    +0.000 C 
ATOM     29  C   UNL     1      -0.146  13.804  21.230  0.00  0.00    +0.000 C 
BRANCH  27  30
ATOM     30  C   UNL     1      -2.922  14.797  23.467  0.00  0.00    +0.000 A 
ATOM     31  C   UNL     1      -4.096  15.095  22.730  0.00  0.00    +0.000 A 
ATOM     32  C   UNL     1      -5.029  15.997  23.236  0.00  0.00    +0.000 A 
ATOM     33  N   UNL     1      -4.897  16.627  24.415  0.00  0.00    +0.000 NA
ATOM     34  C   UNL     1      -3.788  16.320  25.128  0.00  0.00    +0.000 A 
ATOM     35  C   UNL     1      -2.810  15.435  24.687  0.00  0.00    +0.000 A 
ENDBRANCH  27  30
ENDBRANCH  23  24
ENDBRANCH  22  23
ENDBRANCH  21  22
ENDBRANCH  20  21
ENDBRANCH   8  20
TORSDOF 8
ENDMDL
MODEL 8
REMARK VINA RESULT:      -7.5      1.330      1.633
REMARK  Name = 
REMARK  10 active torsions:
REMARK  status: ('A' for Active; 'I' for Inactive)
REMARK    1  A    between atoms: C_1  and  O_2
REMARK    2  A    between atoms: O_2  and  C_3
REMARK    3  A    between atoms: C_6  and  C_7
REMARK    4  A    between atoms: N_9  and  C_10
REMARK    5  A    between atoms: C_14  and  O_15
REMARK    6  A    between atoms: O_15  and  C_16
REMARK    7  A    between atoms: C_16  and  C_17
REMARK    8  A    between atoms: C_17  and  C_18
REMARK    9  A    between atoms: C_18  and  N_19
REMARK   10  A    between atoms: N_22  and  C_23
REMARK                            x       y       z     vdW  Elec       q    Type
REMARK                         _______ _______ _______ _____ _____    ______ ____
ROOT
ATOM      1  C   UNL     1       3.886   4.935  17.453  0.00  0.00    +0.000 C 
ATOM      2  C   UNL     1       3.444   3.639  18.240  0.00  0.00    +0.000 C 
ATOM      3  N   UNL     1       2.442   3.782  19.279  0.00  0.00    +0.000 NA
ATOM      4  C   UNL     1       1.173   4.222  18.686  0.00  0.00    +0.000 C 
ATOM      5  C   UNL     1       3.050   4.698  20.256  0.00  0.00    +0.000 C 
ATOM      6  C   UNL     1       3.122   6.087  19.672  0.00  0.00    +0.000 A 
ATOM      7  C   UNL     1       2.282   7.008  20.371  0.00  0.00    +0.000 A 
ATOM      8  C   UNL     1       1.604   8.034  19.730  0.00  0.00    +0.000 A 
ATOM      9  C   UNL     1       2.048   8.316  18.445  0.00  0.00    +0.000 A 
ATOM     10  C   UNL     1       3.046   7.472  17.766  0.00  0.00    +0.000 A 
ATOM     11  C   UNL     1       3.567   6.263  18.327  0.00  0.00    +0.000 A 
ENDROOT
BRANCH   1  15
ATOM     12  C   UNL     1       7.169   4.929  14.689  0.00  0.00    +0.000 A 
ATOM     13  C   UNL     1       7.330   5.301  16.030  0.00  0.00    +0.000 A 
ATOM     14  C   UNL     1       6.382   4.962  17.017  0.00  0.00    +0.000 A 
ATOM     15  C   UNL     1       5.166   4.283  16.720  0.00  0.00    +0.000 A 
ATOM     16  C   UNL     1       5.107   3.760  15.396  0.00  0.00    +0.000 A 
ATOM     17  C   UNL     1       6.087   4.110  14.389  0.00  0.00    +0.000 A 
BRANCH  12  19
ATOM     18  C   UNL     1       7.916   5.478  12.436  0.00  0.00    +0.000 C 
ATOM     19  O   UNL     1       8.090   5.492  13.847  0.00  0.00    +0.000 OA
ENDBRANCH  12  19
ENDBRANCH   1  15
BRANCH   8  20
ATOM     20  O   UNL     1       0.616   8.543  20.519  0.00  0.00    +0.000 OA
BRANCH  20  21
ATOM     21  C   UNL     1       0.319   9.899  20.904  0.00  0.00    +0.000 C 
BRANCH  21  22
ATOM     22  C   UNL     1      -0.774  10.644  20.109  0.00  0.00    +0.000 C 
BRANCH  22  23
ATOM     23  C   UNL     1      -1.265  12.000  20.732  0.00  0.00    +0.000 C 
BRANCH  23  24
ATOM     24  N   UNL     1      -0.967  13.218  19.961  0.00  0.00    +0.000 NA
ATOM     25  C   UNL     1      -0.244  14.246  20.733  0.00  0.00    +0.000 C 
ATOM     26  C   UNL     1       1.278  13.984  20.928  0.00  0.00    +0.000 C 
ATOM     27  N   UNL     1       1.907  13.921  19.600  0.00  0.00    +0.000 N 
ATOM     28  C   UNL     1       1.335  12.883  18.721  0.00  0.00    +0.000 C 
ATOM     29  C   UNL     1      -0.227  12.970  18.684  0.00  0.00    +0.000 C 
BRANCH  27  30
ATOM     30  C   UNL     1       2.970  14.739  19.265  0.00  0.00    +0.000 A 
ATOM     31  C   UNL     1       3.904  14.348  18.272  0.00  0.00    +0.000 A 
ATOM     32  C   UNL     1       4.997  15.160  17.982  0.00  0.00    +0.000 A 
ATOM     33  N   UNL     1       5.241  16.333  18.592  0.00  0.00    +0.000 NA
ATOM     34  C   UNL     1       4.333  16.715  19.519  0.00  0.00    +0.000 A 
ATOM     35  C   UNL     1       3.221  15.956  19.868  0.00  0.00    +0.000 A 
ENDBRANCH  27  30
ENDBRANCH  23  24
ENDBRANCH  22  23
ENDBRANCH  21  22
ENDBRANCH  20  21
ENDBRANCH   8  20
TORSDOF 8
ENDMDL
MODEL 9
REMARK VINA RESULT:      -7.5      3.224     11.082
REMARK  Name = 
REMARK  10 active torsions:
REMARK  status: ('A' for Active; 'I' for Inactive)
REMARK    1  A    between atoms: C_1  and  O_2
REMARK    2  A    between atoms: O_2  and  C_3
REMARK    3  A    between atoms: C_6  and  C_7
REMARK    4  A    between atoms: N_9  and  C_10
REMARK    5  A    between atoms: C_14  and  O_15
REMARK    6  A    between atoms: O_15  and  C_16
REMARK    7  A    between atoms: C_16  and  C_17
REMARK    8  A    between atoms: C_17  and  C_18
REMARK    9  A    between atoms: C_18  and  N_19
REMARK   10  A    between atoms: N_22  and  C_23
REMARK                            x       y       z     vdW  Elec       q    Type
REMARK                         _______ _______ _______ _____ _____    ______ ____
ROOT
ATOM      1  C   UNL     1      -1.281  11.840  21.073  0.00  0.00    +0.000 C 
ATOM      2  C   UNL     1      -1.143  12.226  19.548  0.00  0.00    +0.000 C 
ATOM      3  N   UNL     1      -0.484  11.284  18.664  0.00  0.00    +0.000 NA
ATOM      4  C   UNL     1      -1.266  10.043  18.591  0.00  0.00    +0.000 C 
ATOM      5  C   UNL     1       0.877  11.158  19.205  0.00  0.00    +0.000 C 
ATOM      6  C   UNL     1       0.834  10.409  20.514  0.00  0.00    +0.000 A 
ATOM      7  C   UNL     1       1.497   9.145  20.432  0.00  0.00    +0.000 A 
ATOM      8  C   UNL     1       1.049   8.024  21.114  0.00  0.00    +0.000 A 
ATOM      9  C   UNL     1       0.136   8.280  22.128  0.00  0.00    +0.000 A 
ATOM     10  C   UNL     1      -0.434   9.622  22.338  0.00  0.00    +0.000 A 
ATOM     11  C   UNL     1      -0.166  10.734  21.478  0.00  0.00    +0.000 A 
ENDROOT
BRANCH   1  15
ATOM     12  C   UNL     1      -2.444  14.679  24.073  0.00  0.00    +0.000 A 
ATOM     13  C   UNL     1      -1.116  14.558  23.644  0.00  0.00    +0.000 A 
ATOM     14  C   UNL     1      -0.780  13.919  22.432  0.00  0.00    +0.000 A 
ATOM     15  C   UNL     1      -1.747  13.293  21.593  0.00  0.00    +0.000 A 
ATOM     16  C   UNL     1      -3.094  13.583  21.953  0.00  0.00    +0.000 A 
ATOM     17  C   UNL     1      -3.431  14.242  23.197  0.00  0.00    +0.000 A 
BRANCH  12  19
ATOM     18  C   UNL     1      -2.028  16.428  25.718  0.00  0.00    +0.000 C 
ATOM     19  O   UNL     1      -2.569  15.166  25.347  0.00  0.00    +0.000 OA
ENDBRANCH  12  19
ENDBRANCH   1  15
BRANCH   8  20
ATOM     20  O   UNL     1       1.610   6.886  20.616  0.00  0.00    +0.000 OA
BRANCH  20  21
ATOM     21  C   UNL     1       1.097   5.543  20.521  0.00  0.00    +0.000 C 
BRANCH  21  22
ATOM     22  C   UNL     1       2.001   4.397  21.022  0.00  0.00    +0.000 C 
BRANCH  22  23
ATOM     23  C   UNL     1       1.640   2.963  20.492  0.00  0.00    +0.000 C 
BRANCH  23  24
ATOM     24  N   UNL     1       2.642   2.314  19.631  0.00  0.00    +0.000 NA
ATOM     25  C   UNL     1       2.453   2.585  18.194  0.00  0.00    +0.000 C 
ATOM     26  C   UNL     1       2.931   3.987  17.712  0.00  0.00    +0.000 C 
ATOM     27  N   UNL     1       4.372   4.099  17.985  0.00  0.00    +0.000 N 
ATOM     28  C   UNL     1       4.722   3.919  19.408  0.00  0.00    +0.000 C 
ATOM     29  C   UNL     1       4.059   2.628  19.995  0.00  0.00    +0.000 C 
BRANCH  27  30
ATOM     30  C   UNL     1       5.276   4.403  16.984  0.00  0.00    +0.000 A 
ATOM     31  C   UNL     1       6.646   4.613  17.281  0.00  0.00    +0.000 A 
ATOM     32  C   UNL     1       7.534   4.967  16.268  0.00  0.00    +0.000 A 
ATOM     33  N   UNL     1       7.178   5.127  14.982  0.00  0.00    +0.000 NA
ATOM     34  C   UNL     1       5.875   4.899  14.699  0.00  0.00    +0.000 A 
ATOM     35  C   UNL     1       4.928   4.549  15.655  0.00  0.00    +0.000 A 
ENDBRANCH  27  30
ENDBRANCH  23  24
ENDBRANCH  22  23
ENDBRANCH  21  22
ENDBRANCH  20  21
ENDBRANCH   8  20
TORSDOF 8
ENDMDL
