MODEL 1
REMARK VINA RESULT:      -7.2      0.000      0.000
REMARK  Name = 
REMARK  7 active torsions:
REMARK  status: ('A' for Active; 'I' for Inactive)
REMARK    1  A    between atoms: N_2  and  C_4
REMARK    2  A    between atoms: C_8  and  S_9
REMARK    3  A    between atoms: S_9  and  N_12
REMARK    4  A    between atoms: N_12  and  C_13
REMARK    5  A    between atoms: C_13  and  C_14
REMARK    6  A    between atoms: C_14  and  C_15
REMARK    7  A    between atoms: C_15  and  N_16
REMARK                            x       y       z     vdW  Elec       q    Type
REMARK                         _______ _______ _______ _____ _____    ______ ____
ROOT
ATOM      1  S   UNL     1       7.233   5.271  17.443  0.00  0.00    +0.000 S 
ATOM      2  O   UNL     1       7.856   4.947  18.708  0.00  0.00    +0.000 OA
ATOM      3  O   UNL     1       7.500   4.521  16.240  0.00  0.00    +0.000 OA
ENDROOT
BRANCH   1   8
ATOM      4  C   UNL     1       3.378   4.058  17.823  0.00  0.00    +0.000 A 
ATOM      5  C   UNL     1       2.684   5.278  17.872  0.00  0.00    +0.000 A 
ATOM      6  C   UNL     1       3.389   6.480  17.828  0.00  0.00    +0.000 A 
ATOM      7  C   UNL     1       4.782   6.469  17.732  0.00  0.00    +0.000 A 
ATOM      8  C   UNL     1       5.467   5.249  17.687  0.00  0.00    +0.000 A 
ATOM      9  C   UNL     1       4.778   4.034  17.732  0.00  0.00    +0.000 A 
BRANCH   4  11
ATOM     10  O   UNL     1       3.264   1.740  17.891  0.00  0.00    +0.000 OA
ATOM     11  N   UNL     1       2.623   2.798  17.854  0.00  0.00    +0.000 N 
ATOM     12  O   UNL     1       1.385   2.873  17.831  0.00  0.00    +0.000 OA
ENDBRANCH   4  11
ENDBRANCH   1   8
BRANCH   1  13
ATOM     13  N   UNL     1       7.511   6.904  17.091  0.00  0.00    +0.000 NA
ATOM     14  H   UNL     1       6.695   7.341  16.660  0.00  0.00    +0.000 HD
BRANCH  13  15
ATOM     15  C   UNL     1       8.111   7.700  18.176  0.00  0.00    +0.000 C 
BRANCH  15  16
ATOM     16  C   UNL     1       8.059   9.184  17.825  0.00  0.00    +0.000 C 
BRANCH  16  17
ATOM     17  C   UNL     1       9.035   9.945  18.728  0.00  0.00    +0.000 C 
BRANCH  17  18
ATOM     18  N   UNL     1       9.814  10.996  18.055  0.00  0.00    +0.000 NA
ATOM     19  C   UNL     1      11.097  11.307  18.725  0.00  0.00    +0.000 C 
ATOM     20  C   UNL     1      10.922  11.957  20.106  0.00  0.00    +0.000 C 
ATOM     21  O   UNL     1      10.163  13.169  20.013  0.00  0.00    +0.000 OA
ATOM     22  C   UNL     1       8.891  12.947  19.390  0.00  0.00    +0.000 C 
ATOM     23  C   UNL     1       9.036  12.262  18.015  0.00  0.00    +0.000 C 
ENDBRANCH  17  18
ENDBRANCH  16  17
ENDBRANCH  15  16
ENDBRANCH  13  15
ENDBRANCH   1  13
TORSDOF 7
ENDMDL
MODEL 2
REMARK VINA RESULT:      -7.1      4.875      7.999
REMARK  Name = 
REMARK  7 active torsions:
REMARK  status: ('A' for Active; 'I' for Inactive)
REMARK    1  A    between atoms: N_2  and  C_4
REMARK    2  A    between atoms: C_8  and  S_9
REMARK    3  A    between atoms: S_9  and  N_12
REMARK    4  A    between atoms: N_12  and  C_13
REMARK    5  A    between atoms: C_13  and  C_14
REMARK    6  A    between atoms: C_14  and  C_15
REMARK    7  A    between atoms: C_15  and  N_16
REMARK                            x       y       z     vdW  Elec       q    Type
REMARK                         _______ _______ _______ _____ _____    ______ ____
ROOT
ATOM      1  S   UNL     1       3.226   6.567  18.152  0.00  0.00    +0.000 S 
ATOM      2  O   UNL     1       3.235   7.985  17.864  0.00  0.00    +0.000 OA
ATOM      3  O   UNL     1       2.244   5.673  17.587  0.00  0.00    +0.000 OA
ENDROOT
BRANCH   1   8
ATOM      4  C   UNL     1       6.388   5.082  16.086  0.00  0.00    +0.000 A 
ATOM      5  C   UNL     1       7.271   4.712  17.114  0.00  0.00    +0.000 A 
ATOM      6  C   UNL     1       6.924   4.949  18.444  0.00  0.00    +0.000 A 
ATOM      7  C   UNL     1       5.702   5.548  18.751  0.00  0.00    +0.000 A 
ATOM      8  C   UNL     1       4.829   5.916  17.720  0.00  0.00    +0.000 A 
ATOM      9  C   UNL     1       5.158   5.689  16.382  0.00  0.00    +0.000 A 
BRANCH   4  11
ATOM     10  O   UNL     1       6.115   3.949  14.077  0.00  0.00    +0.000 OA
ATOM     11  N   UNL     1       6.757   4.813  14.689  0.00  0.00    +0.000 N 
ATOM     12  O   UNL     1       7.698   5.463  14.210  0.00  0.00    +0.000 OA
ENDBRANCH   4  11
ENDBRANCH   1   8
BRANCH   1  13
ATOM     13  N   UNL     1       3.204   6.343  19.831  0.00  0.00    +0.000 NA
ATOM     14  H   UNL     1       3.744   7.062  20.313  0.00  0.00    +0.000 HD
BRANCH  13  15
ATOM     15  C   UNL     1       1.880   6.091  20.426  0.00  0.00    +0.000 C 
BRANCH  15  16
ATOM     16  C   UNL     1       1.803   4.656  20.938  0.00  0.00    +0.000 C 
BRANCH  16  17
ATOM     17  C   UNL     1       3.084   3.914  20.541  0.00  0.00    +0.000 C 
BRANCH  17  18
ATOM     18  N   UNL     1       2.921   2.470  20.314  0.00  0.00    +0.000 NA
ATOM     19  C   UNL     1       3.844   1.920  19.296  0.00  0.00    +0.000 C 
ATOM     20  C   UNL     1       3.566   2.440  17.877  0.00  0.00    +0.000 C 
ATOM     21  O   UNL     1       2.225   2.139  17.472  0.00  0.00    +0.000 OA
ATOM     22  C   UNL     1       1.264   2.658  18.401  0.00  0.00    +0.000 C 
ATOM     23  C   UNL     1       1.542   2.179  19.841  0.00  0.00    +0.000 C 
ENDBRANCH  17  18
ENDBRANCH  16  17
ENDBRANCH  15  16
ENDBRANCH  13  15
ENDBRANCH   1  13
TORSDOF 7
ENDMDL
MODEL 3
REMARK VINA RESULT:      -7.1      0.884      1.499
REMARK  Name = 
REMARK  7 active torsions:
REMARK  status: ('A' for Active; 'I' for Inactive)
REMARK    1  A    between atoms: N_2  and  C_4
REMARK    2  A    between atoms: C_8  and  S_9
REMARK    3  A    between atoms: S_9  and  N_12
REMARK    4  A    between atoms: N_12  and  C_13
REMARK    5  A    between atoms: C_13  and  C_14
REMARK    6  A    between atoms: C_14  and  C_15
REMARK    7  A    between atoms: C_15  and  N_16
REMARK                            x       y       z     vdW  Elec       q    Type
REMARK                         _______ _______ _______ _____ _____    ______ ____
ROOT
ATOM      1  S   UNL     1       7.051   5.881  17.050  0.00  0.00    +0.000 S 
ATOM      2  O   UNL     1       7.849   5.265  18.088  0.00  0.00    +0.000 OA
ATOM      3  O   UNL     1       7.189   5.523  15.659  0.00  0.00    +0.000 OA
ENDROOT
BRANCH   1   8
ATOM      4  C   UNL     1       3.432   4.223  17.841  0.00  0.00    +0.000 A 
ATOM      5  C   UNL     1       2.603   5.351  17.950  0.00  0.00    +0.000 A 
ATOM      6  C   UNL     1       3.149   6.628  17.821  0.00  0.00    +0.000 A 
ATOM      7  C   UNL     1       4.515   6.783  17.582  0.00  0.00    +0.000 A 
ATOM      8  C   UNL     1       5.336   5.652  17.477  0.00  0.00    +0.000 A 
ATOM      9  C   UNL     1       4.808   4.365  17.604  0.00  0.00    +0.000 A 
BRANCH   4  11
ATOM     10  O   UNL     1       1.647   2.802  18.270  0.00  0.00    +0.000 OA
ATOM     11  N   UNL     1       2.843   2.882  17.962  0.00  0.00    +0.000 N 
ATOM     12  O   UNL     1       3.585   1.910  17.756  0.00  0.00    +0.000 OA
ENDBRANCH   4  11
ENDBRANCH   1   8
BRANCH   1  13
ATOM     13  N   UNL     1       7.211   7.564  17.155  0.00  0.00    +0.000 NA
ATOM     14  H   UNL     1       6.302   8.029  17.156  0.00  0.00    +0.000 HD
BRANCH  13  15
ATOM     15  C   UNL     1       8.134   8.056  18.193  0.00  0.00    +0.000 C 
BRANCH  15  16
ATOM     16  C   UNL     1       8.340   9.560  18.038  0.00  0.00    +0.000 C 
BRANCH  16  17
ATOM     17  C   UNL     1       9.353  10.036  19.084  0.00  0.00    +0.000 C 
BRANCH  17  18
ATOM     18  N   UNL     1       9.312  11.477  19.378  0.00  0.00    +0.000 NA
ATOM     19  C   UNL     1       9.518  12.333  18.187  0.00  0.00    +0.000 C 
ATOM     20  C   UNL     1      10.934  12.226  17.598  0.00  0.00    +0.000 C 
ATOM     21  O   UNL     1      11.925  12.573  18.573  0.00  0.00    +0.000 OA
ATOM     22  C   UNL     1      11.804  11.771  19.755  0.00  0.00    +0.000 C 
ATOM     23  C   UNL     1      10.381  11.831  20.348  0.00  0.00    +0.000 C 
ENDBRANCH  17  18
ENDBRANCH  16  17
ENDBRANCH  15  16
ENDBRANCH  13  15
ENDBRANCH   1  13
TORSDOF 7
ENDMDL
MODEL 4
REMARK VINA RESULT:      -7.1      5.405      7.875
REMARK  Name = 
REMARK  7 active torsions:
REMARK  status: ('A' for Active; 'I' for Inactive)
REMARK    1  A    between atoms: N_2  and  C_4
REMARK    2  A    between atoms: C_8  and  S_9
REMARK    3  A    between atoms: S_9  and  N_12
REMARK    4  A    between atoms: N_12  and  C_13
REMARK    5  A    between atoms: C_13  and  C_14
REMARK    6  A    between atoms: C_14  and  C_15
REMARK    7  A    between atoms: C_15  and  N_16
REMARK                            x       y       z     vdW  Elec       q    Type
REMARK                         _______ _______ _______ _____ _____    ______ ____
ROOT
ATOM      1  S   UNL     1       6.754   4.856  16.261  0.00  0.00    +0.000 S 
ATOM      2  O   UNL     1       7.958   4.264  16.804  0.00  0.00    +0.000 OA
ATOM      3  O   UNL     1       6.374   6.219  16.542  0.00  0.00    +0.000 OA
ENDROOT
BRANCH   1   8
ATOM      4  C   UNL     1       6.128   3.615  12.448  0.00  0.00    +0.000 A 
ATOM      5  C   UNL     1       7.107   4.328  11.736  0.00  0.00    +0.000 A 
ATOM      6  C   UNL     1       7.941   5.221  12.409  0.00  0.00    +0.000 A 
ATOM      7  C   UNL     1       7.803   5.403  13.786  0.00  0.00    +0.000 A 
ATOM      8  C   UNL     1       6.822   4.691  14.487  0.00  0.00    +0.000 A 
ATOM      9  C   UNL     1       5.977   3.793  13.832  0.00  0.00    +0.000 A 
BRANCH   4  11
ATOM     10  O   UNL     1       4.115   3.022  11.456  0.00  0.00    +0.000 OA
ATOM     11  N   UNL     1       5.267   2.664  11.731  0.00  0.00    +0.000 N 
ATOM     12  O   UNL     1       5.747   1.555  11.453  0.00  0.00    +0.000 OA
ENDBRANCH   4  11
ENDBRANCH   1   8
BRANCH   1  13
ATOM     13  N   UNL     1       5.431   3.873  16.649  0.00  0.00    +0.000 NA
ATOM     14  H   UNL     1       5.693   3.126  17.294  0.00  0.00    +0.000 HD
BRANCH  13  15
ATOM     15  C   UNL     1       4.196   4.582  17.027  0.00  0.00    +0.000 C 
BRANCH  15  16
ATOM     16  C   UNL     1       3.001   3.638  16.929  0.00  0.00    +0.000 C 
BRANCH  16  17
ATOM     17  C   UNL     1       2.814   2.929  18.275  0.00  0.00    +0.000 C 
BRANCH  17  18
ATOM     18  N   UNL     1       3.361   3.646  19.436  0.00  0.00    +0.000 NA
ATOM     19  C   UNL     1       3.560   2.787  20.626  0.00  0.00    +0.000 C 
ATOM     20  C   UNL     1       2.246   2.271  21.233  0.00  0.00    +0.000 C 
ATOM     21  O   UNL     1       1.390   3.358  21.606  0.00  0.00    +0.000 OA
ATOM     22  C   UNL     1       1.131   4.231  20.498  0.00  0.00    +0.000 C 
ATOM     23  C   UNL     1       2.436   4.735  19.847  0.00  0.00    +0.000 C 
ENDBRANCH  17  18
ENDBRANCH  16  17
ENDBRANCH  15  16
ENDBRANCH  13  15
ENDBRANCH   1  13
TORSDOF 7
ENDMDL
MODEL 5
REMARK VINA RESULT:      -7.0      1.483      1.894
REMARK  Name = 
REMARK  7 active torsions:
REMARK  status: ('A' for Active; 'I' for Inactive)
REMARK    1  A    between atoms: N_2  and  C_4
REMARK    2  A    between atoms: C_8  and  S_9
REMARK    3  A    between atoms: S_9  and  N_12
REMARK    4  A    between atoms: N_12  and  C_13
REMARK    5  A    between atoms: C_13  and  C_14
REMARK    6  A    between atoms: C_14  and  C_15
REMARK    7  A    between atoms: C_15  and  N_16
REMARK                            x       y       z     vdW  Elec       q    Type
REMARK                         _______ _______ _______ _____ _____    ______ ____
ROOT
ATOM      1  S   UNL     1       7.007   5.898  17.120  0.00  0.00    +0.000 S 
ATOM      2  O   UNL     1       7.828   4.708  17.050  0.00  0.00    +0.000 OA
ATOM      3  O   UNL     1       6.604   6.626  15.941  0.00  0.00    +0.000 OA
ENDROOT
BRANCH   1   8
ATOM      4  C   UNL     1       4.147   3.880  19.174  0.00  0.00    +0.000 A 
ATOM      5  C   UNL     1       3.091   4.805  19.204  0.00  0.00    +0.000 A 
ATOM      6  C   UNL     1       3.256   6.066  18.630  0.00  0.00    +0.000 A 
ATOM      7  C   UNL     1       4.468   6.405  18.027  0.00  0.00    +0.000 A 
ATOM      8  C   UNL     1       5.518   5.478  18.005  0.00  0.00    +0.000 A 
ATOM      9  C   UNL     1       5.372   4.211  18.574  0.00  0.00    +0.000 A 
BRANCH   4  11
ATOM     10  O   UNL     1       4.892   2.063  20.414  0.00  0.00    +0.000 OA
ATOM     11  N   UNL     1       3.955   2.549  19.767  0.00  0.00    +0.000 N 
ATOM     12  O   UNL     1       2.866   1.989  19.574  0.00  0.00    +0.000 OA
ENDBRANCH   4  11
ENDBRANCH   1   8
BRANCH   1  13
ATOM     13  N   UNL     1       7.732   7.009  18.174  0.00  0.00    +0.000 NA
ATOM     14  H   UNL     1       8.602   6.645  18.564  0.00  0.00    +0.000 HD
BRANCH  13  15
ATOM     15  C   UNL     1       7.834   8.392  17.675  0.00  0.00    +0.000 C 
BRANCH  15  16
ATOM     16  C   UNL     1       8.646   9.239  18.650  0.00  0.00    +0.000 C 
BRANCH  16  17
ATOM     17  C   UNL     1       9.107  10.516  17.938  0.00  0.00    +0.000 C 
BRANCH  17  18
ATOM     18  N   UNL     1       9.253  11.693  18.807  0.00  0.00    +0.000 NA
ATOM     19  C   UNL     1       9.393  12.967  18.065  0.00  0.00    +0.000 C 
ATOM     20  C   UNL     1      10.704  13.066  17.269  0.00  0.00    +0.000 C 
ATOM     21  O   UNL     1      11.841  12.924  18.129  0.00  0.00    +0.000 OA
ATOM     22  C   UNL     1      11.789  11.699  18.872  0.00  0.00    +0.000 C 
ATOM     23  C   UNL     1      10.467  11.557  19.654  0.00  0.00    +0.000 C 
ENDBRANCH  17  18
ENDBRANCH  16  17
ENDBRANCH  15  16
ENDBRANCH  13  15
ENDBRANCH   1  13
TORSDOF 7
ENDMDL
MODEL 6
REMARK VINA RESULT:      -7.0      5.085      7.957
REMARK  Name = 
REMARK  7 active torsions:
REMARK  status: ('A' for Active; 'I' for Inactive)
REMARK    1  A    between atoms: N_2  and  C_4
REMARK    2  A    between atoms: C_8  and  S_9
REMARK    3  A    between atoms: S_9  and  N_12
REMARK    4  A    between atoms: N_12  and  C_13
REMARK    5  A    between atoms: C_13  and  C_14
REMARK    6  A    between atoms: C_14  and  C_15
REMARK    7  A    between atoms: C_15  and  N_16
REMARK                            x       y       z     vdW  Elec       q    Type
REMARK                         _______ _______ _______ _____ _____    ______ ____
ROOT
ATOM      1  S   UNL     1       6.973   5.063  16.195  0.00  0.00    +0.000 S 
ATOM      2  O   UNL     1       7.891   4.101  16.765  0.00  0.00    +0.000 OA
ATOM      3  O   UNL     1       7.099   6.481  16.433  0.00  0.00    +0.000 OA
ENDROOT
BRANCH   1   8
ATOM      4  C   UNL     1       6.186   3.700  12.454  0.00  0.00    +0.000 A 
ATOM      5  C   UNL     1       7.155   4.363  11.683  0.00  0.00    +0.000 A 
ATOM      6  C   UNL     1       8.031   5.261  12.293  0.00  0.00    +0.000 A 
ATOM      7  C   UNL     1       7.945   5.496  13.666  0.00  0.00    +0.000 A 
ATOM      8  C   UNL     1       6.974   4.832  14.427  0.00  0.00    +0.000 A 
ATOM      9  C   UNL     1       6.087   3.931  13.834  0.00  0.00    +0.000 A 
BRANCH   4  11
ATOM     10  O   UNL     1       4.123   3.114  11.564  0.00  0.00    +0.000 OA
ATOM     11  N   UNL     1       5.280   2.744  11.803  0.00  0.00    +0.000 N 
ATOM     12  O   UNL     1       5.728   1.618  11.541  0.00  0.00    +0.000 OA
ENDBRANCH   4  11
ENDBRANCH   1   8
BRANCH   1  13
ATOM     13  N   UNL     1       5.388   4.623  16.599  0.00  0.00    +0.000 NA
ATOM     14  H   UNL     1       5.370   3.842  17.256  0.00  0.00    +0.000 HD
BRANCH  13  15
ATOM     15  C   UNL     1       4.489   5.732  16.964  0.00  0.00    +0.000 C 
BRANCH  15  16
ATOM     16  C   UNL     1       3.708   5.377  18.225  0.00  0.00    +0.000 C 
BRANCH  16  17
ATOM     17  C   UNL     1       2.767   4.207  17.917  0.00  0.00    +0.000 C 
BRANCH  17  18
ATOM     18  N   UNL     1       2.992   2.999  18.724  0.00  0.00    +0.000 NA
ATOM     19  C   UNL     1       1.790   2.147  18.870  0.00  0.00    +0.000 C 
ATOM     20  C   UNL     1       0.672   2.806  19.693  0.00  0.00    +0.000 C 
ATOM     21  O   UNL     1       1.134   3.152  21.005  0.00  0.00    +0.000 OA
ATOM     22  C   UNL     1       2.291   3.996  20.950  0.00  0.00    +0.000 C 
ATOM     23  C   UNL     1       3.417   3.374  20.098  0.00  0.00    +0.000 C 
ENDBRANCH  17  18
ENDBRANCH  16  17
ENDBRANCH  15  16
ENDBRANCH  13  15
ENDBRANCH   1  13
TORSDOF 7
ENDMDL
MODEL 7
REMARK VINA RESULT:      -7.0      4.885      7.623
REMARK  Name = 
REMARK  7 active torsions:
REMARK  status: ('A' for Active; 'I' for Inactive)
REMARK    1  A    between atoms: N_2  and  C_4
REMARK    2  A    between atoms: C_8  and  S_9
REMARK    3  A    between atoms: S_9  and  N_12
REMARK    4  A    between atoms: N_12  and  C_13
REMARK    5  A    between atoms: C_13  and  C_14
REMARK    6  A    between atoms: C_14  and  C_15
REMARK    7  A    between atoms: C_15  and  N_16
REMARK                            x       y       z     vdW  Elec       q    Type
REMARK                         _______ _______ _______ _____ _____    ______ ____
ROOT
ATOM      1  S   UNL     1       6.528   4.495  16.369  0.00  0.00    +0.000 S 
ATOM      2  O   UNL     1       5.517   3.530  16.747  0.00  0.00    +0.000 OA
ATOM      3  O   UNL     1       7.872   4.446  16.893  0.00  0.00    +0.000 OA
ENDROOT
BRANCH   1   8
ATOM      4  C   UNL     1       6.073   3.540  12.451  0.00  0.00    +0.000 A 
ATOM      5  C   UNL     1       7.055   4.331  11.833  0.00  0.00    +0.000 A 
ATOM      6  C   UNL     1       7.838   5.191  12.604  0.00  0.00    +0.000 A 
ATOM      7  C   UNL     1       7.647   5.261  13.984  0.00  0.00    +0.000 A 
ATOM      8  C   UNL     1       6.663   4.471  14.591  0.00  0.00    +0.000 A 
ATOM      9  C   UNL     1       5.868   3.605  13.837  0.00  0.00    +0.000 A 
BRANCH   4  11
ATOM     10  O   UNL     1       4.137   3.002  11.286  0.00  0.00    +0.000 OA
ATOM     11  N   UNL     1       5.265   2.626  11.631  0.00  0.00    +0.000 N 
ATOM     12  O   UNL     1       5.761   1.526  11.343  0.00  0.00    +0.000 OA
ENDBRANCH   4  11
ENDBRANCH   1   8
BRANCH   1  13
ATOM     13  N   UNL     1       5.934   6.056  16.648  0.00  0.00    +0.000 NA
ATOM     14  H   UNL     1       6.323   6.731  15.988  0.00  0.00    +0.000 HD
BRANCH  13  15
ATOM     15  C   UNL     1       4.475   6.165  16.823  0.00  0.00    +0.000 C 
BRANCH  15  16
ATOM     16  C   UNL     1       4.151   6.578  18.256  0.00  0.00    +0.000 C 
BRANCH  16  17
ATOM     17  C   UNL     1       3.666   5.348  19.032  0.00  0.00    +0.000 C 
BRANCH  17  18
ATOM     18  N   UNL     1       2.205   5.220  19.142  0.00  0.00    +0.000 NA
ATOM     19  C   UNL     1       1.721   5.090  20.535  0.00  0.00    +0.000 C 
ATOM     20  C   UNL     1       2.151   3.777  21.209  0.00  0.00    +0.000 C 
ATOM     21  O   UNL     1       1.684   2.642  20.468  0.00  0.00    +0.000 OA
ATOM     22  C   UNL     1       2.129   2.684  19.106  0.00  0.00    +0.000 C 
ATOM     23  C   UNL     1       1.742   4.008  18.416  0.00  0.00    +0.000 C 
ENDBRANCH  17  18
ENDBRANCH  16  17
ENDBRANCH  15  16
ENDBRANCH  13  15
ENDBRANCH   1  13
TORSDOF 7
ENDMDL
MODEL 8
REMARK VINA RESULT:      -6.9      4.502      7.633
REMARK  Name = 
REMARK  7 active torsions:
REMARK  status: ('A' for Active; 'I' for Inactive)
REMARK    1  A    between atoms: N_2  and  C_4
REMARK    2  A    between atoms: C_8  and  S_9
REMARK    3  A    between atoms: S_9  and  N_12
REMARK    4  A    between atoms: N_12  and  C_13
REMARK    5  A    between atoms: C_13  and  C_14
REMARK    6  A    between atoms: C_14  and  C_15
REMARK    7  A    between atoms: C_15  and  N_16
REMARK                            x       y       z     vdW  Elec       q    Type
REMARK                         _______ _______ _______ _____ _____    ______ ____
ROOT
ATOM      1  S   UNL     1       6.278   4.859  16.139  0.00  0.00    +0.000 S 
ATOM      2  O   UNL     1       5.570   3.700  16.638  0.00  0.00    +0.000 OA
ATOM      3  O   UNL     1       7.539   5.288  16.694  0.00  0.00    +0.000 OA
ENDROOT
BRANCH   1   8
ATOM      4  C   UNL     1       6.053   3.477  12.330  0.00  0.00    +0.000 A 
ATOM      5  C   UNL     1       7.104   4.162  11.700  0.00  0.00    +0.000 A 
ATOM      6  C   UNL     1       7.866   5.080  12.423  0.00  0.00    +0.000 A 
ATOM      7  C   UNL     1       7.584   5.313  13.770  0.00  0.00    +0.000 A 
ATOM      8  C   UNL     1       6.532   4.628  14.390  0.00  0.00    +0.000 A 
ATOM      9  C   UNL     1       5.757   3.706  13.682  0.00  0.00    +0.000 A 
BRANCH   4  11
ATOM     10  O   UNL     1       5.797   1.413  11.297  0.00  0.00    +0.000 OA
ATOM     11  N   UNL     1       5.268   2.500  11.562  0.00  0.00    +0.000 N 
ATOM     12  O   UNL     1       4.123   2.830  11.218  0.00  0.00    +0.000 OA
ENDBRANCH   4  11
ENDBRANCH   1   8
BRANCH   1  13
ATOM     13  N   UNL     1       5.237   6.195  16.163  0.00  0.00    +0.000 NA
ATOM     14  H   UNL     1       4.383   6.016  15.633  0.00  0.00    +0.000 HD
BRANCH  13  15
ATOM     15  C   UNL     1       5.003   6.801  17.486  0.00  0.00    +0.000 C 
BRANCH  15  16
ATOM     16  C   UNL     1       3.623   6.406  18.004  0.00  0.00    +0.000 C 
BRANCH  16  17
ATOM     17  C   UNL     1       3.783   5.320  19.073  0.00  0.00    +0.000 C 
BRANCH  17  18
ATOM     18  N   UNL     1       2.550   4.593  19.409  0.00  0.00    +0.000 NA
ATOM     19  C   UNL     1       2.788   3.297  20.085  0.00  0.00    +0.000 C 
ATOM     20  C   UNL     1       3.467   2.255  19.182  0.00  0.00    +0.000 C 
ATOM     21  O   UNL     1       2.688   2.008  18.005  0.00  0.00    +0.000 OA
ATOM     22  C   UNL     1       2.429   3.217  17.280  0.00  0.00    +0.000 C 
ATOM     23  C   UNL     1       1.779   4.294  18.174  0.00  0.00    +0.000 C 
ENDBRANCH  17  18
ENDBRANCH  16  17
ENDBRANCH  15  16
ENDBRANCH  13  15
ENDBRANCH   1  13
TORSDOF 7
ENDMDL
MODEL 9
REMARK VINA RESULT:      -6.9      4.695      7.730
REMARK  Name = 
REMARK  7 active torsions:
REMARK  status: ('A' for Active; 'I' for Inactive)
REMARK    1  A    between atoms: N_2  and  C_4
REMARK    2  A    between atoms: C_8  and  S_9
REMARK    3  A    between atoms: S_9  and  N_12
REMARK    4  A    between atoms: N_12  and  C_13
REMARK    5  A    between atoms: C_13  and  C_14
REMARK    6  A    between atoms: C_14  and  C_15
REMARK    7  A    between atoms: C_15  and  N_16
REMARK                            x       y       z     vdW  Elec       q    Type
REMARK                         _______ _______ _______ _____ _____    ______ ____
ROOT
ATOM      1  S   UNL     1       6.210   4.654  16.266  0.00  0.00    +0.000 S 
ATOM      2  O   UNL     1       5.605   3.417  16.709  0.00  0.00    +0.000 OA
ATOM      3  O   UNL     1       7.432   5.162  16.841  0.00  0.00    +0.000 OA
ENDROOT
BRANCH   1   8
ATOM      4  C   UNL     1       6.040   3.481  12.385  0.00  0.00    +0.000 A 
ATOM      5  C   UNL     1       7.074   4.229  11.800  0.00  0.00    +0.000 A 
ATOM      6  C   UNL     1       7.807   5.126  12.577  0.00  0.00    +0.000 A 
ATOM      7  C   UNL     1       7.513   5.276  13.933  0.00  0.00    +0.000 A 
ATOM      8  C   UNL     1       6.478   4.528  14.508  0.00  0.00    +0.000 A 
ATOM      9  C   UNL     1       5.732   3.625  13.746  0.00  0.00    +0.000 A 
BRANCH   4  11
ATOM     10  O   UNL     1       5.818   1.439  11.301  0.00  0.00    +0.000 OA
ATOM     11  N   UNL     1       5.287   2.526  11.559  0.00  0.00    +0.000 N 
ATOM     12  O   UNL     1       4.164   2.874  11.163  0.00  0.00    +0.000 OA
ENDBRANCH   4  11
ENDBRANCH   1   8
BRANCH   1  13
ATOM     13  N   UNL     1       5.059   5.894  16.351  0.00  0.00    +0.000 NA
ATOM     14  H   UNL     1       4.183   5.626  15.902  0.00  0.00    +0.000 HD
BRANCH  13  15
ATOM     15  C   UNL     1       4.885   6.516  17.676  0.00  0.00    +0.000 C 
BRANCH  15  16
ATOM     16  C   UNL     1       3.405   6.555  18.043  0.00  0.00    +0.000 C 
BRANCH  16  17
ATOM     17  C   UNL     1       3.128   5.495  19.114  0.00  0.00    +0.000 C 
BRANCH  17  18
ATOM     18  N   UNL     1       3.114   4.107  18.627  0.00  0.00    +0.000 NA
ATOM     19  C   UNL     1       1.756   3.592  18.337  0.00  0.00    +0.000 C 
ATOM     20  C   UNL     1       0.883   3.436  19.592  0.00  0.00    +0.000 C 
ATOM     21  O   UNL     1       1.500   2.558  20.543  0.00  0.00    +0.000 OA
ATOM     22  C   UNL     1       2.818   3.002  20.892  0.00  0.00    +0.000 C 
ATOM     23  C   UNL     1       3.706   3.201  19.645  0.00  0.00    +0.000 C 
ENDBRANCH  17  18
ENDBRANCH  16  17
ENDBRANCH  15  16
ENDBRANCH  13  15
ENDBRANCH   1  13
TORSDOF 7
ENDMDL
