MODEL 1
REMARK VINA RESULT:      -7.6      0.000      0.000
REMARK  Name = 
REMARK  17 active torsions:
REMARK  status: ('A' for Active; 'I' for Inactive)
REMARK    1  A    between atoms: C_1  and  O_2
REMARK    2  A    between atoms: O_2  and  C_3
REMARK    3  A    between atoms: C_6  and  C_7
REMARK    4  A    between atoms: C_8  and  C_9
REMARK    5  A    between atoms: C_12  and  O_13
REMARK    6  A    between atoms: O_13  and  C_14
REMARK    7  A    between atoms: C_15  and  C_16
REMARK    8  A    between atoms: C_18  and  C_19
REMARK    9  A    between atoms: C_19  and  O_20
REMARK   10  A    between atoms: O_20  and  C_21
REMARK   11  A    between atoms: C_21  and  C_22
REMARK   12  A    between atoms: C_24  and  O_25
REMARK   13  A    between atoms: O_25  and  C_26
REMARK   14  A    between atoms: C_26  and  C_27
REMARK   15  A    between atoms: C_29  and  O_30
REMARK   16  A    between atoms: O_30  and  C_31
REMARK   17  A    between atoms: C_31  and  C_32
REMARK                            x       y       z     vdW  Elec       q    Type
REMARK                         _______ _______ _______ _____ _____    ______ ____
ROOT
ATOM      1  C   UNL     1      -0.174  10.001  18.105  0.00  0.00    +0.000 A 
ATOM      2  C   UNL     1      -1.248   9.635  17.319  0.00  0.00    +0.000 A 
ATOM      3  C   UNL     1      -2.422  10.365  17.403  0.00  0.00    +0.000 A 
ATOM      4  C   UNL     1      -2.571  11.475  18.274  0.00  0.00    +0.000 A 
ATOM      5  C   UNL     1      -1.513  11.879  19.125  0.00  0.00    +0.000 A 
ATOM      6  C   UNL     1      -0.309  11.098  18.990  0.00  0.00    +0.000 A 
ENDROOT
BRANCH   5   7
ATOM      7  C   UNL     1      -1.398  13.005  20.202  0.00  0.00    +0.000 C 
ATOM      8  O   UNL     1      -0.644  12.417  21.305  0.00  0.00    +0.000 OA
ATOM      9  C   UNL     1      -1.427  12.443  22.530  0.00  0.00    +0.000 C 
ATOM     10  C   UNL     1      -2.833  12.882  22.135  0.00  0.00    +0.000 C 
ATOM     11  C   UNL     1      -2.545  13.755  20.916  0.00  0.00    +0.000 C 
BRANCH   9  12
ATOM     12  C   UNL     1      -1.329  11.052  23.165  0.00  0.00    +0.000 C 
BRANCH  12  13
ATOM     13  O   UNL     1      -0.038  10.442  23.046  0.00  0.00    +0.000 OA
BRANCH  13  14
ATOM     14  C   UNL     1       0.016   9.236  22.429  0.00  0.00    +0.000 C 
ATOM     15  C   UNL     1       1.371   9.011  21.824  0.00  0.00    +0.000 C 
ATOM     16  O   UNL     1      -0.900   8.429  22.369  0.00  0.00    +0.000 OA
ENDBRANCH  13  14
ENDBRANCH  12  13
ENDBRANCH   9  12
BRANCH  10  17
ATOM     17  O   UNL     1      -3.606  13.539  23.160  0.00  0.00    +0.000 OA
BRANCH  17  18
ATOM     18  C   UNL     1      -4.641  12.802  23.667  0.00  0.00    +0.000 C 
ATOM     19  C   UNL     1      -5.941  13.040  22.955  0.00  0.00    +0.000 C 
ATOM     20  O   UNL     1      -4.549  11.998  24.586  0.00  0.00    +0.000 OA
ENDBRANCH  17  18
ENDBRANCH  10  17
BRANCH  11  21
ATOM     21  O   UNL     1      -2.389  15.196  21.150  0.00  0.00    +0.000 OA
BRANCH  21  22
ATOM     22  C   UNL     1      -1.261  15.913  21.038  0.00  0.00    +0.000 C 
ATOM     23  C   UNL     1      -1.259  16.694  19.740  0.00  0.00    +0.000 C 
ATOM     24  O   UNL     1      -0.335  15.910  21.826  0.00  0.00    +0.000 OA
ENDBRANCH  21  22
ENDBRANCH  11  21
ENDBRANCH   5   7
BRANCH   1  26
ATOM     25  C   UNL     1       1.912   8.401  18.042  0.00  0.00    +0.000 C 
ATOM     26  C   UNL     1       1.009   9.201  17.959  0.00  0.00    +0.000 C 
BRANCH  25  30
ATOM     27  C   UNL     1       4.872   5.444  18.691  0.00  0.00    +0.000 A 
ATOM     28  C   UNL     1       4.978   6.307  17.597  0.00  0.00    +0.000 A 
ATOM     29  C   UNL     1       3.999   7.281  17.372  0.00  0.00    +0.000 A 
ATOM     30  C   UNL     1       2.896   7.390  18.228  0.00  0.00    +0.000 A 
ATOM     31  C   UNL     1       2.773   6.499  19.295  0.00  0.00    +0.000 A 
ATOM     32  C   UNL     1       3.756   5.532  19.525  0.00  0.00    +0.000 A 
BRANCH  27  34
ATOM     33  C   UNL     1       6.927   4.634  17.866  0.00  0.00    +0.000 C 
ATOM     34  O   UNL     1       5.887   4.538  18.836  0.00  0.00    +0.000 OA
ENDBRANCH  27  34
ENDBRANCH  25  30
ENDBRANCH   1  26
BRANCH   4  35
ATOM     35  O   UNL     1      -3.864  11.893  18.177  0.00  0.00    +0.000 OA
ATOM     36  C   UNL     1      -4.614  11.592  17.030  0.00  0.00    +0.000 C 
ENDBRANCH   4  35
TORSDOF 12
ENDMDL
MODEL 2
REMARK VINA RESULT:      -7.3      0.811      1.181
REMARK  Name = 
REMARK  17 active torsions:
REMARK  status: ('A' for Active; 'I' for Inactive)
REMARK    1  A    between atoms: C_1  and  O_2
REMARK    2  A    between atoms: O_2  and  C_3
REMARK    3  A    between atoms: C_6  and  C_7
REMARK    4  A    between atoms: C_8  and  C_9
REMARK    5  A    between atoms: C_12  and  O_13
REMARK    6  A    between atoms: O_13  and  C_14
REMARK    7  A    between atoms: C_15  and  C_16
REMARK    8  A    between atoms: C_18  and  C_19
REMARK    9  A    between atoms: C_19  and  O_20
REMARK   10  A    between atoms: O_20  and  C_21
REMARK   11  A    between atoms: C_21  and  C_22
REMARK   12  A    between atoms: C_24  and  O_25
REMARK   13  A    between atoms: O_25  and  C_26
REMARK   14  A    between atoms: C_26  and  C_27
REMARK   15  A    between atoms: C_29  and  O_30
REMARK   16  A    between atoms: O_30  and  C_31
REMARK   17  A    between atoms: C_31  and  C_32
REMARK                            x       y       z     vdW  Elec       q    Type
REMARK                         _______ _______ _______ _____ _____    ______ ____
ROOT
ATOM      1  C   UNL     1      -0.118  10.077  18.225  0.00  0.00    +0.000 A 
ATOM      2  C   UNL     1      -1.163   9.709  17.401  0.00  0.00    +0.000 A 
ATOM      3  C   UNL     1      -2.341  10.434  17.446  0.00  0.00    +0.000 A 
ATOM      4  C   UNL     1      -2.525  11.542  18.312  0.00  0.00    +0.000 A 
ATOM      5  C   UNL     1      -1.499  11.948  19.201  0.00  0.00    +0.000 A 
ATOM      6  C   UNL     1      -0.288  11.171  19.107  0.00  0.00    +0.000 A 
ENDROOT
BRANCH   5   7
ATOM      7  C   UNL     1      -1.425  13.073  20.283  0.00  0.00    +0.000 C 
ATOM      8  O   UNL     1      -0.650  12.508  21.383  0.00  0.00    +0.000 OA
ATOM      9  C   UNL     1      -1.433  12.499  22.608  0.00  0.00    +0.000 C 
ATOM     10  C   UNL     1      -2.854  12.887  22.215  0.00  0.00    +0.000 C 
ATOM     11  C   UNL     1      -2.599  13.776  21.001  0.00  0.00    +0.000 C 
BRANCH   9  12
ATOM     12  C   UNL     1      -1.283  11.109  23.237  0.00  0.00    +0.000 C 
BRANCH  12  13
ATOM     13  O   UNL     1       0.007  10.516  23.049  0.00  0.00    +0.000 OA
BRANCH  13  14
ATOM     14  C   UNL     1       0.040   9.293  22.465  0.00  0.00    +0.000 C 
ATOM     15  C   UNL     1       1.391   9.029  21.866  0.00  0.00    +0.000 C 
ATOM     16  O   UNL     1      -0.888   8.500  22.427  0.00  0.00    +0.000 OA
ENDBRANCH  13  14
ENDBRANCH  12  13
ENDBRANCH   9  12
BRANCH  10  17
ATOM     17  O   UNL     1      -3.651  13.510  23.243  0.00  0.00    +0.000 OA
BRANCH  17  18
ATOM     18  C   UNL     1      -4.725  12.777  23.669  0.00  0.00    +0.000 C 
ATOM     19  C   UNL     1      -5.944  12.962  22.814  0.00  0.00    +0.000 C 
ATOM     20  O   UNL     1      -4.720  12.013  24.627  0.00  0.00    +0.000 OA
ENDBRANCH  17  18
ENDBRANCH  10  17
BRANCH  11  21
ATOM     21  O   UNL     1      -2.496  15.221  21.242  0.00  0.00    +0.000 OA
BRANCH  21  22
ATOM     22  C   UNL     1      -1.380  15.917  21.500  0.00  0.00    +0.000 C 
ATOM     23  C   UNL     1      -1.274  16.214  22.982  0.00  0.00    +0.000 C 
ATOM     24  O   UNL     1      -0.580  16.311  20.673  0.00  0.00    +0.000 OA
ENDBRANCH  21  22
ENDBRANCH  11  21
ENDBRANCH   5   7
BRANCH   1  26
ATOM     25  C   UNL     1       1.907   8.415  18.005  0.00  0.00    +0.000 C 
ATOM     26  C   UNL     1       1.072   9.281  18.119  0.00  0.00    +0.000 C 
BRANCH  25  30
ATOM     27  C   UNL     1       4.522   5.144  17.377  0.00  0.00    +0.000 A 
ATOM     28  C   UNL     1       3.266   4.930  17.947  0.00  0.00    +0.000 A 
ATOM     29  C   UNL     1       2.399   6.009  18.165  0.00  0.00    +0.000 A 
ATOM     30  C   UNL     1       2.790   7.310  17.831  0.00  0.00    +0.000 A 
ATOM     31  C   UNL     1       4.061   7.524  17.299  0.00  0.00    +0.000 A 
ATOM     32  C   UNL     1       4.922   6.447  17.073  0.00  0.00    +0.000 A 
BRANCH  27  34
ATOM     33  C   UNL     1       5.800   3.861  15.867  0.00  0.00    +0.000 C 
ATOM     34  O   UNL     1       5.289   4.026  17.187  0.00  0.00    +0.000 OA
ENDBRANCH  27  34
ENDBRANCH  25  30
ENDBRANCH   1  26
BRANCH   4  35
ATOM     35  O   UNL     1      -3.815  11.956  18.172  0.00  0.00    +0.000 OA
ATOM     36  C   UNL     1      -4.844  11.010  18.043  0.00  0.00    +0.000 C 
ENDBRANCH   4  35
TORSDOF 12
ENDMDL
MODEL 3
REMARK VINA RESULT:      -7.2      1.242      1.474
REMARK  Name = 
REMARK  17 active torsions:
REMARK  status: ('A' for Active; 'I' for Inactive)
REMARK    1  A    between atoms: C_1  and  O_2
REMARK    2  A    between atoms: O_2  and  C_3
REMARK    3  A    between atoms: C_6  and  C_7
REMARK    4  A    between atoms: C_8  and  C_9
REMARK    5  A    between atoms: C_12  and  O_13
REMARK    6  A    between atoms: O_13  and  C_14
REMARK    7  A    between atoms: C_15  and  C_16
REMARK    8  A    between atoms: C_18  and  C_19
REMARK    9  A    between atoms: C_19  and  O_20
REMARK   10  A    between atoms: O_20  and  C_21
REMARK   11  A    between atoms: C_21  and  C_22
REMARK   12  A    between atoms: C_24  and  O_25
REMARK   13  A    between atoms: O_25  and  C_26
REMARK   14  A    between atoms: C_26  and  C_27
REMARK   15  A    between atoms: C_29  and  O_30
REMARK   16  A    between atoms: O_30  and  C_31
REMARK   17  A    between atoms: C_31  and  C_32
REMARK                            x       y       z     vdW  Elec       q    Type
REMARK                         _______ _______ _______ _____ _____    ______ ____
ROOT
ATOM      1  C   UNL     1      -0.625  10.293  18.250  0.00  0.00    +0.000 A 
ATOM      2  C   UNL     1      -1.658   9.794  17.484  0.00  0.00    +0.000 A 
ATOM      3  C   UNL     1      -2.888  10.430  17.518  0.00  0.00    +0.000 A 
ATOM      4  C   UNL     1      -3.134  11.575  18.317  0.00  0.00    +0.000 A 
ATOM      5  C   UNL     1      -2.120  12.115  19.146  0.00  0.00    +0.000 A 
ATOM      6  C   UNL     1      -0.856  11.427  19.065  0.00  0.00    +0.000 A 
ENDROOT
BRANCH   5   7
ATOM      7  C   UNL     1      -2.106  13.311  20.152  0.00  0.00    +0.000 C 
ATOM      8  O   UNL     1      -1.190  12.916  21.217  0.00  0.00    +0.000 OA
ATOM      9  C   UNL     1      -1.874  12.898  22.500  0.00  0.00    +0.000 C 
ATOM     10  C   UNL     1      -3.357  13.090  22.200  0.00  0.00    +0.000 C 
ATOM     11  C   UNL     1      -3.302  13.919  20.920  0.00  0.00    +0.000 C 
BRANCH   9  12
ATOM     12  C   UNL     1      -1.510  11.581  23.194  0.00  0.00    +0.000 C 
BRANCH  12  13
ATOM     13  O   UNL     1      -1.147  10.525  22.297  0.00  0.00    +0.000 OA
BRANCH  13  14
ATOM     14  C   UNL     1      -0.224   9.636  22.739  0.00  0.00    +0.000 C 
ATOM     15  C   UNL     1       0.018   8.570  21.711  0.00  0.00    +0.000 C 
ATOM     16  O   UNL     1       0.347   9.684  23.818  0.00  0.00    +0.000 OA
ENDBRANCH  13  14
ENDBRANCH  12  13
ENDBRANCH   9  12
BRANCH  10  17
ATOM     17  O   UNL     1      -4.147  13.683  23.251  0.00  0.00    +0.000 OA
BRANCH  17  18
ATOM     18  C   UNL     1      -5.456  13.287  23.286  0.00  0.00    +0.000 C 
ATOM     19  C   UNL     1      -6.395  14.380  23.708  0.00  0.00    +0.000 C 
ATOM     20  O   UNL     1      -5.862  12.172  22.982  0.00  0.00    +0.000 OA
ENDBRANCH  17  18
ENDBRANCH  10  17
BRANCH  11  21
ATOM     21  O   UNL     1      -3.359  15.378  21.067  0.00  0.00    +0.000 OA
BRANCH  21  22
ATOM     22  C   UNL     1      -4.459  16.144  21.082  0.00  0.00    +0.000 C 
ATOM     23  C   UNL     1      -5.524  15.555  20.179  0.00  0.00    +0.000 C 
ATOM     24  O   UNL     1      -4.587  17.194  21.682  0.00  0.00    +0.000 OA
ENDBRANCH  21  22
ENDBRANCH  11  21
ENDBRANCH   5   7
BRANCH   1  26
ATOM     25  C   UNL     1       1.535   8.795  18.191  0.00  0.00    +0.000 C 
ATOM     26  C   UNL     1       0.620   9.584  18.159  0.00  0.00    +0.000 C 
BRANCH  25  30
ATOM     27  C   UNL     1       4.502   5.789  18.490  0.00  0.00    +0.000 A 
ATOM     28  C   UNL     1       4.534   6.694  17.427  0.00  0.00    +0.000 A 
ATOM     29  C   UNL     1       3.551   7.686  17.318  0.00  0.00    +0.000 A 
ATOM     30  C   UNL     1       2.520   7.768  18.260  0.00  0.00    +0.000 A 
ATOM     31  C   UNL     1       2.468   6.835  19.296  0.00  0.00    +0.000 A 
ATOM     32  C   UNL     1       3.455   5.852  19.410  0.00  0.00    +0.000 A 
BRANCH  27  34
ATOM     33  C   UNL     1       6.777   5.373  18.951  0.00  0.00    +0.000 C 
ATOM     34  O   UNL     1       5.515   4.869  18.520  0.00  0.00    +0.000 OA
ENDBRANCH  27  34
ENDBRANCH  25  30
ENDBRANCH   1  26
BRANCH   4  35
ATOM     35  O   UNL     1      -4.456  11.880  18.191  0.00  0.00    +0.000 OA
ATOM     36  C   UNL     1      -5.060  11.866  16.924  0.00  0.00    +0.000 C 
ENDBRANCH   4  35
TORSDOF 12
ENDMDL
MODEL 4
REMARK VINA RESULT:      -7.1      0.909      1.306
REMARK  Name = 
REMARK  17 active torsions:
REMARK  status: ('A' for Active; 'I' for Inactive)
REMARK    1  A    between atoms: C_1  and  O_2
REMARK    2  A    between atoms: O_2  and  C_3
REMARK    3  A    between atoms: C_6  and  C_7
REMARK    4  A    between atoms: C_8  and  C_9
REMARK    5  A    between atoms: C_12  and  O_13
REMARK    6  A    between atoms: O_13  and  C_14
REMARK    7  A    between atoms: C_15  and  C_16
REMARK    8  A    between atoms: C_18  and  C_19
REMARK    9  A    between atoms: C_19  and  O_20
REMARK   10  A    between atoms: O_20  and  C_21
REMARK   11  A    between atoms: C_21  and  C_22
REMARK   12  A    between atoms: C_24  and  O_25
REMARK   13  A    between atoms: O_25  and  C_26
REMARK   14  A    between atoms: C_26  and  C_27
REMARK   15  A    between atoms: C_29  and  O_30
REMARK   16  A    between atoms: O_30  and  C_31
REMARK   17  A    between atoms: C_31  and  C_32
REMARK                            x       y       z     vdW  Elec       q    Type
REMARK                         _______ _______ _______ _____ _____    ______ ____
ROOT
ATOM      1  C   UNL     1      -0.245  10.187  18.280  0.00  0.00    +0.000 A 
ATOM      2  C   UNL     1      -1.215   9.859  17.356  0.00  0.00    +0.000 A 
ATOM      3  C   UNL     1      -2.392  10.588  17.329  0.00  0.00    +0.000 A 
ATOM      4  C   UNL     1      -2.648  11.660  18.223  0.00  0.00    +0.000 A 
ATOM      5  C   UNL     1      -1.701  12.023  19.212  0.00  0.00    +0.000 A 
ATOM      6  C   UNL     1      -0.489  11.244  19.190  0.00  0.00    +0.000 A 
ENDROOT
BRANCH   5   7
ATOM      7  C   UNL     1      -1.719  13.101  20.343  0.00  0.00    +0.000 C 
ATOM      8  O   UNL     1      -0.915  12.545  21.427  0.00  0.00    +0.000 OA
ATOM      9  C   UNL     1      -1.706  12.425  22.641  0.00  0.00    +0.000 C 
ATOM     10  C   UNL     1      -3.148  12.727  22.248  0.00  0.00    +0.000 C 
ATOM     11  C   UNL     1      -2.948  13.685  21.077  0.00  0.00    +0.000 C 
BRANCH   9  12
ATOM     12  C   UNL     1      -1.461  11.024  23.211  0.00  0.00    +0.000 C 
BRANCH  12  13
ATOM     13  O   UNL     1      -0.119  10.550  23.046  0.00  0.00    +0.000 OA
BRANCH  13  14
ATOM     14  C   UNL     1       0.033   9.330  22.474  0.00  0.00    +0.000 C 
ATOM     15  C   UNL     1       1.448   9.136  22.010  0.00  0.00    +0.000 C 
ATOM     16  O   UNL     1      -0.845   8.489  22.351  0.00  0.00    +0.000 OA
ENDBRANCH  13  14
ENDBRANCH  12  13
ENDBRANCH   9  12
BRANCH  10  17
ATOM     17  O   UNL     1      -3.997  13.245  23.293  0.00  0.00    +0.000 OA
BRANCH  17  18
ATOM     18  C   UNL     1      -5.340  13.162  23.043  0.00  0.00    +0.000 C 
ATOM     19  C   UNL     1      -6.098  14.385  23.468  0.00  0.00    +0.000 C 
ATOM     20  O   UNL     1      -5.897  12.214  22.503  0.00  0.00    +0.000 OA
ENDBRANCH  17  18
ENDBRANCH  10  17
BRANCH  11  21
ATOM     21  O   UNL     1      -2.952  15.122  21.382  0.00  0.00    +0.000 OA
BRANCH  21  22
ATOM     22  C   UNL     1      -2.132  15.770  22.221  0.00  0.00    +0.000 C 
ATOM     23  C   UNL     1      -0.861  16.180  21.505  0.00  0.00    +0.000 C 
ATOM     24  O   UNL     1      -2.333  15.963  23.404  0.00  0.00    +0.000 OA
ENDBRANCH  21  22
ENDBRANCH  11  21
ENDBRANCH   5   7
BRANCH   1  26
ATOM     25  C   UNL     1       1.807   8.544  18.335  0.00  0.00    +0.000 C 
ATOM     26  C   UNL     1       0.949   9.390  18.244  0.00  0.00    +0.000 C 
BRANCH  25  30
ATOM     27  C   UNL     1       4.476   5.274  18.673  0.00  0.00    +0.000 A 
ATOM     28  C   UNL     1       3.483   5.464  19.636  0.00  0.00    +0.000 A 
ATOM     29  C   UNL     1       2.602   6.548  19.535  0.00  0.00    +0.000 A 
ATOM     30  C   UNL     1       2.719   7.460  18.480  0.00  0.00    +0.000 A 
ATOM     31  C   UNL     1       3.739   7.290  17.543  0.00  0.00    +0.000 A 
ATOM     32  C   UNL     1       4.612   6.203  17.640  0.00  0.00    +0.000 A 
BRANCH  27  34
ATOM     33  C   UNL     1       4.639   3.056  19.454  0.00  0.00    +0.000 C 
ATOM     34  O   UNL     1       5.276   4.178  18.849  0.00  0.00    +0.000 OA
ENDBRANCH  27  34
ENDBRANCH  25  30
ENDBRANCH   1  26
BRANCH   4  35
ATOM     35  O   UNL     1      -3.921  12.086  17.989  0.00  0.00    +0.000 OA
ATOM     36  C   UNL     1      -4.981  11.581  18.758  0.00  0.00    +0.000 C 
ENDBRANCH   4  35
TORSDOF 12
ENDMDL
MODEL 5
REMARK VINA RESULT:      -6.8      1.965      4.321
REMARK  Name = 
REMARK  17 active torsions:
REMARK  status: ('A' for Active; 'I' for Inactive)
REMARK    1  A    between atoms: C_1  and  O_2
REMARK    2  A    between atoms: O_2  and  C_3
REMARK    3  A    between atoms: C_6  and  C_7
REMARK    4  A    between atoms: C_8  and  C_9
REMARK    5  A    between atoms: C_12  and  O_13
REMARK    6  A    between atoms: O_13  and  C_14
REMARK    7  A    between atoms: C_15  and  C_16
REMARK    8  A    between atoms: C_18  and  C_19
REMARK    9  A    between atoms: C_19  and  O_20
REMARK   10  A    between atoms: O_20  and  C_21
REMARK   11  A    between atoms: C_21  and  C_22
REMARK   12  A    between atoms: C_24  and  O_25
REMARK   13  A    between atoms: O_25  and  C_26
REMARK   14  A    between atoms: C_26  and  C_27
REMARK   15  A    between atoms: C_29  and  O_30
REMARK   16  A    between atoms: O_30  and  C_31
REMARK   17  A    between atoms: C_31  and  C_32
REMARK                            x       y       z     vdW  Elec       q    Type
REMARK                         _______ _______ _______ _____ _____    ______ ____
ROOT
ATOM      1  C   UNL     1       1.865   8.325  19.300  0.00  0.00    +0.000 A 
ATOM      2  C   UNL     1       1.734   7.924  20.614  0.00  0.00    +0.000 A 
ATOM      3  C   UNL     1       0.763   8.516  21.403  0.00  0.00    +0.000 A 
ATOM      4  C   UNL     1      -0.103   9.530  20.918  0.00  0.00    +0.000 A 
ATOM      5  C   UNL     1       0.005  10.002  19.588  0.00  0.00    +0.000 A 
ATOM      6  C   UNL     1       1.019   9.346  18.803  0.00  0.00    +0.000 A 
ENDROOT
BRANCH   5   7
ATOM      7  C   UNL     1      -0.757  11.116  18.800  0.00  0.00    +0.000 C 
ATOM      8  O   UNL     1      -0.071  12.364  19.123  0.00  0.00    +0.000 OA
ATOM      9  C   UNL     1      -0.987  13.306  19.744  0.00  0.00    +0.000 C 
ATOM     10  C   UNL     1      -2.275  12.537  20.020  0.00  0.00    +0.000 C 
ATOM     11  C   UNL     1      -2.252  11.498  18.902  0.00  0.00    +0.000 C 
BRANCH   9  12
ATOM     12  C   UNL     1      -0.287  13.877  20.982  0.00  0.00    +0.000 C 
BRANCH  12  13
ATOM     13  O   UNL     1      -0.733  13.315  22.221  0.00  0.00    +0.000 OA
BRANCH  13  14
ATOM     14  C   UNL     1      -1.102  14.187  23.192  0.00  0.00    +0.000 C 
ATOM     15  C   UNL     1      -0.348  15.478  23.058  0.00  0.00    +0.000 C 
ATOM     16  O   UNL     1      -1.935  13.971  24.059  0.00  0.00    +0.000 OA
ENDBRANCH  13  14
ENDBRANCH  12  13
ENDBRANCH   9  12
BRANCH  10  17
ATOM     17  O   UNL     1      -3.485  13.320  20.070  0.00  0.00    +0.000 OA
BRANCH  17  18
ATOM     18  C   UNL     1      -4.163  13.265  21.257  0.00  0.00    +0.000 C 
ATOM     19  C   UNL     1      -4.870  14.545  21.595  0.00  0.00    +0.000 C 
ATOM     20  O   UNL     1      -4.233  12.280  21.982  0.00  0.00    +0.000 OA
ENDBRANCH  17  18
ENDBRANCH  10  17
BRANCH  11  21
ATOM     21  O   UNL     1      -2.966  11.833  17.664  0.00  0.00    +0.000 OA
BRANCH  21  22
ATOM     22  C   UNL     1      -3.929  11.114  17.070  0.00  0.00    +0.000 C 
ATOM     23  C   UNL     1      -5.130  10.983  17.984  0.00  0.00    +0.000 C 
ATOM     24  O   UNL     1      -3.851  10.587  15.977  0.00  0.00    +0.000 OA
ENDBRANCH  21  22
ENDBRANCH  11  21
ENDBRANCH   5   7
BRANCH   1  26
ATOM     25  C   UNL     1       3.561   6.943  17.841  0.00  0.00    +0.000 C 
ATOM     26  C   UNL     1       2.890   7.662  18.543  0.00  0.00    +0.000 C 
BRANCH  25  30
ATOM     27  C   UNL     1       5.630   4.232  15.332  0.00  0.00    +0.000 A 
ATOM     28  C   UNL     1       5.681   5.602  15.067  0.00  0.00    +0.000 A 
ATOM     29  C   UNL     1       4.993   6.503  15.888  0.00  0.00    +0.000 A 
ATOM     30  C   UNL     1       4.234   6.040  16.969  0.00  0.00    +0.000 A 
ATOM     31  C   UNL     1       4.152   4.668  17.205  0.00  0.00    +0.000 A 
ATOM     32  C   UNL     1       4.847   3.769  16.391  0.00  0.00    +0.000 A 
BRANCH  27  34
ATOM     33  C   UNL     1       6.345   3.842  13.119  0.00  0.00    +0.000 C 
ATOM     34  O   UNL     1       6.350   3.433  14.485  0.00  0.00    +0.000 OA
ENDBRANCH  27  34
ENDBRANCH  25  30
ENDBRANCH   1  26
BRANCH   4  35
ATOM     35  O   UNL     1      -0.858   9.954  21.971  0.00  0.00    +0.000 OA
ATOM     36  C   UNL     1      -0.407   9.749  23.284  0.00  0.00    +0.000 C 
ENDBRANCH   4  35
TORSDOF 12
ENDMDL
MODEL 6
REMARK VINA RESULT:      -6.8      1.243      1.767
REMARK  Name = 
REMARK  17 active torsions:
REMARK  status: ('A' for Active; 'I' for Inactive)
REMARK    1  A    between atoms: C_1  and  O_2
REMARK    2  A    between atoms: O_2  and  C_3
REMARK    3  A    between atoms: C_6  and  C_7
REMARK    4  A    between atoms: C_8  and  C_9
REMARK    5  A    between atoms: C_12  and  O_13
REMARK    6  A    between atoms: O_13  and  C_14
REMARK    7  A    between atoms: C_15  and  C_16
REMARK    8  A    between atoms: C_18  and  C_19
REMARK    9  A    between atoms: C_19  and  O_20
REMARK   10  A    between atoms: O_20  and  C_21
REMARK   11  A    between atoms: C_21  and  C_22
REMARK   12  A    between atoms: C_24  and  O_25
REMARK   13  A    between atoms: O_25  and  C_26
REMARK   14  A    between atoms: C_26  and  C_27
REMARK   15  A    between atoms: C_29  and  O_30
REMARK   16  A    between atoms: O_30  and  C_31
REMARK   17  A    between atoms: C_31  and  C_32
REMARK                            x       y       z     vdW  Elec       q    Type
REMARK                         _______ _______ _______ _____ _____    ______ ____
ROOT
ATOM      1  C   UNL     1      -0.452  10.291  18.284  0.00  0.00    +0.000 A 
ATOM      2  C   UNL     1      -1.436   9.749  17.483  0.00  0.00    +0.000 A 
ATOM      3  C   UNL     1      -2.660  10.390  17.397  0.00  0.00    +0.000 A 
ATOM      4  C   UNL     1      -2.951  11.583  18.107  0.00  0.00    +0.000 A 
ATOM      5  C   UNL     1      -1.990  12.169  18.967  0.00  0.00    +0.000 A 
ATOM      6  C   UNL     1      -0.728  11.474  19.012  0.00  0.00    +0.000 A 
ENDROOT
BRANCH   5   7
ATOM      7  C   UNL     1      -2.033  13.424  19.897  0.00  0.00    +0.000 C 
ATOM      8  O   UNL     1      -1.039  13.176  20.937  0.00  0.00    +0.000 OA
ATOM      9  C   UNL     1      -1.661  13.184  22.251  0.00  0.00    +0.000 C 
ATOM     10  C   UNL     1      -3.167  13.232  22.015  0.00  0.00    +0.000 C 
ATOM     11  C   UNL     1      -3.241  13.979  20.686  0.00  0.00    +0.000 C 
BRANCH   9  12
ATOM     12  C   UNL     1      -1.154  11.949  23.004  0.00  0.00    +0.000 C 
BRANCH  12  13
ATOM     13  O   UNL     1      -1.081  10.762  22.205  0.00  0.00    +0.000 OA
BRANCH  13  14
ATOM     14  C   UNL     1      -0.279   9.767  22.657  0.00  0.00    +0.000 C 
ATOM     15  C   UNL     1      -0.226   8.639  21.668  0.00  0.00    +0.000 C 
ATOM     16  O   UNL     1       0.329   9.773  23.717  0.00  0.00    +0.000 OA
ENDBRANCH  13  14
ENDBRANCH  12  13
ENDBRANCH   9  12
BRANCH  10  17
ATOM     17  O   UNL     1      -3.957  13.824  23.067  0.00  0.00    +0.000 OA
BRANCH  17  18
ATOM     18  C   UNL     1      -3.932  13.152  24.259  0.00  0.00    +0.000 C 
ATOM     19  C   UNL     1      -3.358  13.963  25.384  0.00  0.00    +0.000 C 
ATOM     20  O   UNL     1      -4.354  12.016  24.434  0.00  0.00    +0.000 OA
ENDBRANCH  17  18
ENDBRANCH  10  17
BRANCH  11  21
ATOM     21  O   UNL     1      -3.416  15.435  20.748  0.00  0.00    +0.000 OA
BRANCH  21  22
ATOM     22  C   UNL     1      -4.516  16.129  20.421  0.00  0.00    +0.000 C 
ATOM     23  C   UNL     1      -4.218  17.614  20.407  0.00  0.00    +0.000 C 
ATOM     24  O   UNL     1      -5.618  15.658  20.214  0.00  0.00    +0.000 OA
ENDBRANCH  21  22
ENDBRANCH  11  21
ENDBRANCH   5   7
BRANCH   1  26
ATOM     25  C   UNL     1       1.686   8.761  18.347  0.00  0.00    +0.000 C 
ATOM     26  C   UNL     1       0.792   9.574  18.319  0.00  0.00    +0.000 C 
BRANCH  25  30
ATOM     27  C   UNL     1       4.491   5.590  18.264  0.00  0.00    +0.000 A 
ATOM     28  C   UNL     1       3.536   5.647  19.281  0.00  0.00    +0.000 A 
ATOM     29  C   UNL     1       2.610   6.698  19.319  0.00  0.00    +0.000 A 
ATOM     30  C   UNL     1       2.645   7.708  18.351  0.00  0.00    +0.000 A 
ATOM     31  C   UNL     1       3.627   7.669  17.361  0.00  0.00    +0.000 A 
ATOM     32  C   UNL     1       4.544   6.616  17.318  0.00  0.00    +0.000 A 
BRANCH  27  34
ATOM     33  C   UNL     1       6.441   4.585  17.401  0.00  0.00    +0.000 C 
ATOM     34  O   UNL     1       5.339   4.517  18.303  0.00  0.00    +0.000 OA
ENDBRANCH  27  34
ENDBRANCH  25  30
ENDBRANCH   1  26
BRANCH   4  35
ATOM     35  O   UNL     1      -4.259  11.884  17.875  0.00  0.00    +0.000 OA
ATOM     36  C   UNL     1      -5.257  11.362  18.712  0.00  0.00    +0.000 C 
ENDBRANCH   4  35
TORSDOF 12
ENDMDL
MODEL 7
REMARK VINA RESULT:      -6.8      1.897      4.501
REMARK  Name = 
REMARK  17 active torsions:
REMARK  status: ('A' for Active; 'I' for Inactive)
REMARK    1  A    between atoms: C_1  and  O_2
REMARK    2  A    between atoms: O_2  and  C_3
REMARK    3  A    between atoms: C_6  and  C_7
REMARK    4  A    between atoms: C_8  and  C_9
REMARK    5  A    between atoms: C_12  and  O_13
REMARK    6  A    between atoms: O_13  and  C_14
REMARK    7  A    between atoms: C_15  and  C_16
REMARK    8  A    between atoms: C_18  and  C_19
REMARK    9  A    between atoms: C_19  and  O_20
REMARK   10  A    between atoms: O_20  and  C_21
REMARK   11  A    between atoms: C_21  and  C_22
REMARK   12  A    between atoms: C_24  and  O_25
REMARK   13  A    between atoms: O_25  and  C_26
REMARK   14  A    between atoms: C_26  and  C_27
REMARK   15  A    between atoms: C_29  and  O_30
REMARK   16  A    between atoms: O_30  and  C_31
REMARK   17  A    between atoms: C_31  and  C_32
REMARK                            x       y       z     vdW  Elec       q    Type
REMARK                         _______ _______ _______ _____ _____    ______ ____
ROOT
ATOM      1  C   UNL     1       1.736   8.148  19.908  0.00  0.00    +0.000 A 
ATOM      2  C   UNL     1       1.827   8.049  21.282  0.00  0.00    +0.000 A 
ATOM      3  C   UNL     1       1.179   8.987  22.067  0.00  0.00    +0.000 A 
ATOM      4  C   UNL     1       0.428  10.057  21.517  0.00  0.00    +0.000 A 
ATOM      5  C   UNL     1       0.324  10.227  20.115  0.00  0.00    +0.000 A 
ATOM      6  C   UNL     1       1.003   9.218  19.341  0.00  0.00    +0.000 A 
ENDROOT
BRANCH   5   7
ATOM      7  C   UNL     1      -0.376  11.311  19.233  0.00  0.00    +0.000 C 
ATOM      8  O   UNL     1      -0.022  12.593  19.834  0.00  0.00    +0.000 OA
ATOM      9  C   UNL     1      -1.217  13.313  20.242  0.00  0.00    +0.000 C 
ATOM     10  C   UNL     1      -2.383  12.343  20.079  0.00  0.00    +0.000 C 
ATOM     11  C   UNL     1      -1.885  11.463  18.936  0.00  0.00    +0.000 C 
BRANCH   9  12
ATOM     12  C   UNL     1      -0.981  13.822  21.668  0.00  0.00    +0.000 C 
BRANCH  12  13
ATOM     13  O   UNL     1      -0.959  15.249  21.786  0.00  0.00    +0.000 OA
BRANCH  13  14
ATOM     14  C   UNL     1      -0.156  15.773  22.745  0.00  0.00    +0.000 C 
ATOM     15  C   UNL     1       0.732  16.837  22.169  0.00  0.00    +0.000 C 
ATOM     16  O   UNL     1      -0.147  15.441  23.921  0.00  0.00    +0.000 OA
ENDBRANCH  13  14
ENDBRANCH  12  13
ENDBRANCH   9  12
BRANCH  10  17
ATOM     17  O   UNL     1      -3.676  12.936  19.844  0.00  0.00    +0.000 OA
BRANCH  17  18
ATOM     18  C   UNL     1      -4.534  12.896  20.909  0.00  0.00    +0.000 C 
ATOM     19  C   UNL     1      -5.833  13.602  20.650  0.00  0.00    +0.000 C 
ATOM     20  O   UNL     1      -4.312  12.326  21.971  0.00  0.00    +0.000 OA
ENDBRANCH  17  18
ENDBRANCH  10  17
BRANCH  11  21
ATOM     21  O   UNL     1      -2.287  11.843  17.577  0.00  0.00    +0.000 OA
BRANCH  21  22
ATOM     22  C   UNL     1      -2.924  11.076  16.680  0.00  0.00    +0.000 C 
ATOM     23  C   UNL     1      -4.422  11.277  16.784  0.00  0.00    +0.000 C 
ATOM     24  O   UNL     1      -2.399  10.285  15.920  0.00  0.00    +0.000 OA
ENDBRANCH  21  22
ENDBRANCH  11  21
ENDBRANCH   5   7
BRANCH   1  26
ATOM     25  C   UNL     1       3.102   6.486  18.396  0.00  0.00    +0.000 C 
ATOM     26  C   UNL     1       2.429   7.137  19.161  0.00  0.00    +0.000 C 
BRANCH  25  30
ATOM     27  C   UNL     1       5.682   4.515  15.678  0.00  0.00    +0.000 A 
ATOM     28  C   UNL     1       5.690   5.909  15.758  0.00  0.00    +0.000 A 
ATOM     29  C   UNL     1       4.833   6.568  16.649  0.00  0.00    +0.000 A 
ATOM     30  C   UNL     1       3.950   5.838  17.453  0.00  0.00    +0.000 A 
ATOM     31  C   UNL     1       3.916   4.448  17.340  0.00  0.00    +0.000 A 
ATOM     32  C   UNL     1       4.778   3.791  16.457  0.00  0.00    +0.000 A 
BRANCH  27  34
ATOM     33  C   UNL     1       6.065   3.783  13.470  0.00  0.00    +0.000 C 
ATOM     34  O   UNL     1       6.567   3.964  14.791  0.00  0.00    +0.000 OA
ENDBRANCH  27  34
ENDBRANCH  25  30
ENDBRANCH   1  26
BRANCH   4  35
ATOM     35  O   UNL     1       0.014  10.837  22.555  0.00  0.00    +0.000 OA
ATOM     36  C   UNL     1      -1.175  10.528  23.233  0.00  0.00    +0.000 C 
ENDBRANCH   4  35
TORSDOF 12
ENDMDL
MODEL 8
REMARK VINA RESULT:      -6.7      1.795      4.634
REMARK  Name = 
REMARK  17 active torsions:
REMARK  status: ('A' for Active; 'I' for Inactive)
REMARK    1  A    between atoms: C_1  and  O_2
REMARK    2  A    between atoms: O_2  and  C_3
REMARK    3  A    between atoms: C_6  and  C_7
REMARK    4  A    between atoms: C_8  and  C_9
REMARK    5  A    between atoms: C_12  and  O_13
REMARK    6  A    between atoms: O_13  and  C_14
REMARK    7  A    between atoms: C_15  and  C_16
REMARK    8  A    between atoms: C_18  and  C_19
REMARK    9  A    between atoms: C_19  and  O_20
REMARK   10  A    between atoms: O_20  and  C_21
REMARK   11  A    between atoms: C_21  and  C_22
REMARK   12  A    between atoms: C_24  and  O_25
REMARK   13  A    between atoms: O_25  and  C_26
REMARK   14  A    between atoms: C_26  and  C_27
REMARK   15  A    between atoms: C_29  and  O_30
REMARK   16  A    between atoms: O_30  and  C_31
REMARK   17  A    between atoms: C_31  and  C_32
REMARK                            x       y       z     vdW  Elec       q    Type
REMARK                         _______ _______ _______ _____ _____    ______ ____
ROOT
ATOM      1  C   UNL     1       1.568   8.277  20.090  0.00  0.00    +0.000 A 
ATOM      2  C   UNL     1       1.771   8.328  21.454  0.00  0.00    +0.000 A 
ATOM      3  C   UNL     1       1.143   9.319  22.190  0.00  0.00    +0.000 A 
ATOM      4  C   UNL     1       0.302  10.295  21.597  0.00  0.00    +0.000 A 
ATOM      5  C   UNL     1       0.081  10.310  20.198  0.00  0.00    +0.000 A 
ATOM      6  C   UNL     1       0.743   9.252  19.479  0.00  0.00    +0.000 A 
ENDROOT
BRANCH   5   7
ATOM      7  C   UNL     1      -0.736  11.267  19.271  0.00  0.00    +0.000 C 
ATOM      8  O   UNL     1      -0.001  12.528  19.263  0.00  0.00    +0.000 OA
ATOM      9  C   UNL     1      -0.836  13.610  19.759  0.00  0.00    +0.000 C 
ATOM     10  C   UNL     1      -2.103  12.961  20.306  0.00  0.00    +0.000 C 
ATOM     11  C   UNL     1      -2.207  11.716  19.431  0.00  0.00    +0.000 C 
BRANCH   9  12
ATOM     12  C   UNL     1      -0.007  14.397  20.780  0.00  0.00    +0.000 C 
BRANCH  12  13
ATOM     13  O   UNL     1       0.074  15.802  20.513  0.00  0.00    +0.000 OA
BRANCH  13  14
ATOM     14  C   UNL     1       0.586  16.168  19.312  0.00  0.00    +0.000 C 
ATOM     15  C   UNL     1      -0.383  17.039  18.566  0.00  0.00    +0.000 C 
ATOM     16  O   UNL     1       1.684  15.849  18.883  0.00  0.00    +0.000 OA
ENDBRANCH  13  14
ENDBRANCH  12  13
ENDBRANCH   9  12
BRANCH  10  17
ATOM     17  O   UNL     1      -3.289  13.782  20.304  0.00  0.00    +0.000 OA
BRANCH  17  18
ATOM     18  C   UNL     1      -3.854  13.986  21.534  0.00  0.00    +0.000 C 
ATOM     19  C   UNL     1      -4.782  12.883  21.950  0.00  0.00    +0.000 C 
ATOM     20  O   UNL     1      -3.626  14.945  22.262  0.00  0.00    +0.000 OA
ENDBRANCH  17  18
ENDBRANCH  10  17
BRANCH  11  21
ATOM     21  O   UNL     1      -3.034  11.817  18.222  0.00  0.00    +0.000 OA
BRANCH  21  22
ATOM     22  C   UNL     1      -2.971  11.033  17.135  0.00  0.00    +0.000 C 
ATOM     23  C   UNL     1      -3.391   9.619  17.480  0.00  0.00    +0.000 C 
ATOM     24  O   UNL     1      -2.585  11.374  16.034  0.00  0.00    +0.000 OA
ENDBRANCH  21  22
ENDBRANCH  11  21
ENDBRANCH   5   7
BRANCH   1  26
ATOM     25  C   UNL     1       2.915   6.523  18.669  0.00  0.00    +0.000 C 
ATOM     26  C   UNL     1       2.247   7.220  19.396  0.00  0.00    +0.000 C 
BRANCH  25  30
ATOM     27  C   UNL     1       5.494   4.385  16.078  0.00  0.00    +0.000 A 
ATOM     28  C   UNL     1       5.493   5.781  16.062  0.00  0.00    +0.000 A 
ATOM     29  C   UNL     1       4.637   6.494  16.910  0.00  0.00    +0.000 A 
ATOM     30  C   UNL     1       3.763   5.817  17.768  0.00  0.00    +0.000 A 
ATOM     31  C   UNL     1       3.738   4.422  17.751  0.00  0.00    +0.000 A 
ATOM     32  C   UNL     1       4.600   3.711  16.911  0.00  0.00    +0.000 A 
BRANCH  27  34
ATOM     33  C   UNL     1       6.176   4.063  13.844  0.00  0.00    +0.000 C 
ATOM     34  O   UNL     1       6.378   3.780  15.227  0.00  0.00    +0.000 OA
ENDBRANCH  27  34
ENDBRANCH  25  30
ENDBRANCH   1  26
BRANCH   4  35
ATOM     35  O   UNL     1      -0.065  11.164  22.581  0.00  0.00    +0.000 OA
ATOM     36  C   UNL     1      -1.335  11.061  23.169  0.00  0.00    +0.000 C 
ENDBRANCH   4  35
TORSDOF 12
ENDMDL
MODEL 9
REMARK VINA RESULT:      -6.7      1.086      1.204
REMARK  Name = 
REMARK  17 active torsions:
REMARK  status: ('A' for Active; 'I' for Inactive)
REMARK    1  A    between atoms: C_1  and  O_2
REMARK    2  A    between atoms: O_2  and  C_3
REMARK    3  A    between atoms: C_6  and  C_7
REMARK    4  A    between atoms: C_8  and  C_9
REMARK    5  A    between atoms: C_12  and  O_13
REMARK    6  A    between atoms: O_13  and  C_14
REMARK    7  A    between atoms: C_15  and  C_16
REMARK    8  A    between atoms: C_18  and  C_19
REMARK    9  A    between atoms: C_19  and  O_20
REMARK   10  A    between atoms: O_20  and  C_21
REMARK   11  A    between atoms: C_21  and  C_22
REMARK   12  A    between atoms: C_24  and  O_25
REMARK   13  A    between atoms: O_25  and  C_26
REMARK   14  A    between atoms: C_26  and  C_27
REMARK   15  A    between atoms: C_29  and  O_30
REMARK   16  A    between atoms: O_30  and  C_31
REMARK   17  A    between atoms: C_31  and  C_32
REMARK                            x       y       z     vdW  Elec       q    Type
REMARK                         _______ _______ _______ _____ _____    ______ ____
ROOT
ATOM      1  C   UNL     1      -0.489  10.229  18.073  0.00  0.00    +0.000 A 
ATOM      2  C   UNL     1      -1.548   9.833  17.281  0.00  0.00    +0.000 A 
ATOM      3  C   UNL     1      -2.732  10.550  17.335  0.00  0.00    +0.000 A 
ATOM      4  C   UNL     1      -2.906  11.676  18.179  0.00  0.00    +0.000 A 
ATOM      5  C   UNL     1      -1.865  12.111  19.035  0.00  0.00    +0.000 A 
ATOM      6  C   UNL     1      -0.650  11.342  18.933  0.00  0.00    +0.000 A 
ENDROOT
BRANCH   5   7
ATOM      7  C   UNL     1      -1.777  13.261  20.089  0.00  0.00    +0.000 C 
ATOM      8  O   UNL     1      -0.845  12.789  21.108  0.00  0.00    +0.000 OA
ATOM      9  C   UNL     1      -1.492  12.740  22.409  0.00  0.00    +0.000 C 
ATOM     10  C   UNL     1      -2.975  12.996  22.164  0.00  0.00    +0.000 C 
ATOM     11  C   UNL     1      -2.927  13.877  20.919  0.00  0.00    +0.000 C 
BRANCH   9  12
ATOM     12  C   UNL     1      -1.156  11.382  23.037  0.00  0.00    +0.000 C 
BRANCH  12  13
ATOM     13  O   UNL     1      -1.033  10.313  22.091  0.00  0.00    +0.000 OA
BRANCH  13  14
ATOM     14  C   UNL     1       0.153   9.657  22.060  0.00  0.00    +0.000 C 
ATOM     15  C   UNL     1      -0.010   8.299  21.441  0.00  0.00    +0.000 C 
ATOM     16  O   UNL     1       1.218  10.096  22.468  0.00  0.00    +0.000 OA
ENDBRANCH  13  14
ENDBRANCH  12  13
ENDBRANCH   9  12
BRANCH  10  17
ATOM     17  O   UNL     1      -3.711  13.571  23.263  0.00  0.00    +0.000 OA
BRANCH  17  18
ATOM     18  C   UNL     1      -5.068  13.403  23.202  0.00  0.00    +0.000 C 
ATOM     19  C   UNL     1      -5.835  14.624  23.620  0.00  0.00    +0.000 C 
ATOM     20  O   UNL     1      -5.635  12.386  22.822  0.00  0.00    +0.000 OA
ENDBRANCH  17  18
ENDBRANCH  10  17
BRANCH  11  21
ATOM     21  O   UNL     1      -2.926  15.330  21.129  0.00  0.00    +0.000 OA
BRANCH  21  22
ATOM     22  C   UNL     1      -1.937  16.186  20.835  0.00  0.00    +0.000 C 
ATOM     23  C   UNL     1      -1.043  16.392  22.041  0.00  0.00    +0.000 C 
ATOM     24  O   UNL     1      -1.790  16.768  19.777  0.00  0.00    +0.000 OA
ENDBRANCH  21  22
ENDBRANCH  11  21
ENDBRANCH   5   7
BRANCH   1  26
ATOM     25  C   UNL     1       1.560   8.586  17.948  0.00  0.00    +0.000 C 
ATOM     26  C   UNL     1       0.705   9.441  17.959  0.00  0.00    +0.000 C 
BRANCH  25  30
ATOM     27  C   UNL     1       4.255   5.323  18.076  0.00  0.00    +0.000 A 
ATOM     28  C   UNL     1       4.657   6.535  17.511  0.00  0.00    +0.000 A 
ATOM     29  C   UNL     1       3.768   7.616  17.458  0.00  0.00    +0.000 A 
ATOM     30  C   UNL     1       2.465   7.487  17.953  0.00  0.00    +0.000 A 
ATOM     31  C   UNL     1       2.055   6.261  18.479  0.00  0.00    +0.000 A 
ATOM     32  C   UNL     1       2.946   5.186  18.540  0.00  0.00    +0.000 A 
BRANCH  27  34
ATOM     33  C   UNL     1       5.060   3.387  19.153  0.00  0.00    +0.000 C 
ATOM     34  O   UNL     1       5.200   4.333  18.097  0.00  0.00    +0.000 OA
ENDBRANCH  27  34
ENDBRANCH  25  30
ENDBRANCH   1  26
BRANCH   4  35
ATOM     35  O   UNL     1      -4.203  12.075  18.058  0.00  0.00    +0.000 OA
ATOM     36  C   UNL     1      -5.159  11.647  18.993  0.00  0.00    +0.000 C 
ENDBRANCH   4  35
TORSDOF 12
ENDMDL
