MODEL 1
REMARK VINA RESULT:      -7.5      0.000      0.000
REMARK  Name = 
REMARK  6 active torsions:
REMARK  status: ('A' for Active; 'I' for Inactive)
REMARK    1  A    between atoms: C_1  and  C_2
REMARK    2  A    between atoms: N_16  and  C_17
REMARK    3  A    between atoms: C_17  and  C_18
REMARK    4  A    between atoms: C_18  and  O_19
REMARK    5  A    between atoms: C_18  and  C_20
REMARK    6  A    between atoms: C_20  and  N_21
REMARK                            x       y       z     vdW  Elec       q    Type
REMARK                         _______ _______ _______ _____ _____    ______ ____
ROOT
ATOM      1  C   UNL     1       1.817   2.710  21.384  0.00  0.00    +0.000 C 
ATOM      2  C   UNL     1       2.670   2.952  20.166  0.00  0.00    +0.000 A 
ATOM      3  C   UNL     1       3.364   1.858  19.637  0.00  0.00    +0.000 A 
ATOM      4  C   UNL     1       4.182   2.022  18.529  0.00  0.00    +0.000 A 
ATOM      5  C   UNL     1       4.309   3.275  17.918  0.00  0.00    +0.000 A 
ATOM      6  C   UNL     1       3.621   4.410  18.380  0.00  0.00    +0.000 A 
ATOM      7  C   UNL     1       2.810   4.223  19.536  0.00  0.00    +0.000 A 
ATOM      8  C   UNL     1       2.097   5.405  20.085  0.00  0.00    +0.000 A 
ATOM      9  O   UNL     1       1.390   5.340  21.088  0.00  0.00    +0.000 OA
ATOM     10  C   UNL     1       2.230   6.707  19.413  0.00  0.00    +0.000 A 
ATOM     11  C   UNL     1       1.541   7.808  19.961  0.00  0.00    +0.000 A 
ATOM     12  C   UNL     1       1.617   9.054  19.356  0.00  0.00    +0.000 A 
ATOM     13  C   UNL     1       2.364   9.192  18.198  0.00  0.00    +0.000 A 
ATOM     14  C   UNL     1       3.033   8.086  17.653  0.00  0.00    +0.000 A 
ATOM     15  C   UNL     1       3.006   6.815  18.250  0.00  0.00    +0.000 A 
ATOM     16  N   UNL     1       3.698   5.681  17.743  0.00  0.00    +0.000 N 
ENDROOT
BRANCH  16  17
ATOM     17  C   UNL     1       4.483   5.857  16.470  0.00  0.00    +0.000 C 
BRANCH  17  18
ATOM     18  C   UNL     1       5.954   6.297  16.717  0.00  0.00    +0.000 C 
BRANCH  18  19
ATOM     19  O   UNL     1       6.302   6.133  18.107  0.00  0.00    +0.000 OA
ATOM     20  H   UNL     1       7.256   5.964  18.164  0.00  0.00    +0.000 HD
ENDBRANCH  18  19
BRANCH  18  21
ATOM     21  C   UNL     1       7.015   5.506  15.883  0.00  0.00    +0.000 C 
BRANCH  21  22
ATOM     22  N   UNL     1       6.719   5.209  14.466  0.00  0.00    +0.000 NA
ATOM     23  C   UNL     1       7.927   5.265  13.624  0.00  0.00    +0.000 C 
ATOM     24  C   UNL     1       7.534   5.117  12.153  0.00  0.00    +0.000 C 
ATOM     25  C   UNL     1       6.874   3.766  11.906  0.00  0.00    +0.000 C 
ATOM     26  C   UNL     1       5.728   3.542  12.888  0.00  0.00    +0.000 C 
ATOM     27  C   UNL     1       6.136   3.849  14.336  0.00  0.00    +0.000 C 
ENDBRANCH  21  22
ENDBRANCH  18  21
ENDBRANCH  17  18
ENDBRANCH  16  17
TORSDOF 5
ENDMDL
MODEL 2
REMARK VINA RESULT:      -7.4      0.431      3.807
REMARK  Name = 
REMARK  6 active torsions:
REMARK  status: ('A' for Active; 'I' for Inactive)
REMARK    1  A    between atoms: C_1  and  C_2
REMARK    2  A    between atoms: N_16  and  C_17
REMARK    3  A    between atoms: C_17  and  C_18
REMARK    4  A    between atoms: C_18  and  O_19
REMARK    5  A    between atoms: C_18  and  C_20
REMARK    6  A    between atoms: C_20  and  N_21
REMARK                            x       y       z     vdW  Elec       q    Type
REMARK                         _______ _______ _______ _____ _____    ______ ____
ROOT
ATOM      1  C   UNL     1       0.773   8.243  21.228  0.00  0.00    +0.000 C 
ATOM      2  C   UNL     1       1.533   8.166  19.930  0.00  0.00    +0.000 A 
ATOM      3  C   UNL     1       1.586   9.323  19.144  0.00  0.00    +0.000 A 
ATOM      4  C   UNL     1       2.253   9.308  17.928  0.00  0.00    +0.000 A 
ATOM      5  C   UNL     1       2.895   8.147  17.482  0.00  0.00    +0.000 A 
ATOM      6  C   UNL     1       2.904   6.958  18.233  0.00  0.00    +0.000 A 
ATOM      7  C   UNL     1       2.188   6.989  19.464  0.00  0.00    +0.000 A 
ATOM      8  C   UNL     1       2.135   5.742  20.271  0.00  0.00    +0.000 A 
ATOM      9  O   UNL     1       1.527   5.673  21.336  0.00  0.00    +0.000 OA
ATOM     10  C   UNL     1       2.835   4.541  19.791  0.00  0.00    +0.000 A 
ATOM     11  C   UNL     1       2.763   3.375  20.580  0.00  0.00    +0.000 A 
ATOM     12  C   UNL     1       3.420   2.218  20.184  0.00  0.00    +0.000 A 
ATOM     13  C   UNL     1       4.159   2.236  19.013  0.00  0.00    +0.000 A 
ATOM     14  C   UNL     1       4.235   3.406  18.243  0.00  0.00    +0.000 A 
ATOM     15  C   UNL     1       3.563   4.588  18.593  0.00  0.00    +0.000 A 
ATOM     16  N   UNL     1       3.592   5.781  17.820  0.00  0.00    +0.000 N 
ENDROOT
BRANCH  16  17
ATOM     17  C   UNL     1       4.423   5.777  16.565  0.00  0.00    +0.000 C 
BRANCH  17  18
ATOM     18  C   UNL     1       5.880   6.269  16.798  0.00  0.00    +0.000 C 
BRANCH  18  19
ATOM     19  O   UNL     1       6.235   6.151  18.191  0.00  0.00    +0.000 OA
ATOM     20  H   UNL     1       5.641   5.502  18.602  0.00  0.00    +0.000 HD
ENDBRANCH  18  19
BRANCH  18  21
ATOM     21  C   UNL     1       6.964   5.490  15.982  0.00  0.00    +0.000 C 
BRANCH  21  22
ATOM     22  N   UNL     1       6.706   5.209  14.555  0.00  0.00    +0.000 NA
ATOM     23  C   UNL     1       7.932   5.301  13.741  0.00  0.00    +0.000 C 
ATOM     24  C   UNL     1       7.574   5.169  12.259  0.00  0.00    +0.000 C 
ATOM     25  C   UNL     1       6.945   3.810  11.977  0.00  0.00    +0.000 C 
ATOM     26  C   UNL     1       5.782   3.550  12.929  0.00  0.00    +0.000 C 
ATOM     27  C   UNL     1       6.151   3.842  14.391  0.00  0.00    +0.000 C 
ENDBRANCH  21  22
ENDBRANCH  18  21
ENDBRANCH  17  18
ENDBRANCH  16  17
TORSDOF 5
ENDMDL
MODEL 3
REMARK VINA RESULT:      -7.0      3.142      6.666
REMARK  Name = 
REMARK  6 active torsions:
REMARK  status: ('A' for Active; 'I' for Inactive)
REMARK    1  A    between atoms: C_1  and  C_2
REMARK    2  A    between atoms: N_16  and  C_17
REMARK    3  A    between atoms: C_17  and  C_18
REMARK    4  A    between atoms: C_18  and  O_19
REMARK    5  A    between atoms: C_18  and  C_20
REMARK    6  A    between atoms: C_20  and  N_21
REMARK                            x       y       z     vdW  Elec       q    Type
REMARK                         _______ _______ _______ _____ _____    ______ ____
ROOT
ATOM      1  C   UNL     1       4.038   1.858  19.813  0.00  0.00    +0.000 C 
ATOM      2  C   UNL     1       3.284   2.962  19.119  0.00  0.00    +0.000 A 
ATOM      3  C   UNL     1       1.911   2.780  18.919  0.00  0.00    +0.000 A 
ATOM      4  C   UNL     1       1.167   3.752  18.267  0.00  0.00    +0.000 A 
ATOM      5  C   UNL     1       1.774   4.931  17.820  0.00  0.00    +0.000 A 
ATOM      6  C   UNL     1       3.142   5.192  18.011  0.00  0.00    +0.000 A 
ATOM      7  C   UNL     1       3.890   4.166  18.656  0.00  0.00    +0.000 A 
ATOM      8  C   UNL     1       5.350   4.380  18.842  0.00  0.00    +0.000 A 
ATOM      9  O   UNL     1       6.075   3.543  19.372  0.00  0.00    +0.000 OA
ATOM     10  C   UNL     1       5.960   5.636  18.381  0.00  0.00    +0.000 A 
ATOM     11  C   UNL     1       7.347   5.806  18.571  0.00  0.00    +0.000 A 
ATOM     12  C   UNL     1       7.971   6.979  18.172  0.00  0.00    +0.000 A 
ATOM     13  C   UNL     1       7.206   7.984  17.602  0.00  0.00    +0.000 A 
ATOM     14  C   UNL     1       5.824   7.810  17.432  0.00  0.00    +0.000 A 
ATOM     15  C   UNL     1       5.159   6.628  17.795  0.00  0.00    +0.000 A 
ATOM     16  N   UNL     1       3.768   6.406  17.607  0.00  0.00    +0.000 N 
ENDROOT
BRANCH  16  17
ATOM     17  C   UNL     1       2.959   7.525  17.007  0.00  0.00    +0.000 C 
BRANCH  17  18
ATOM     18  C   UNL     1       2.607   8.639  18.035  0.00  0.00    +0.000 C 
BRANCH  18  19
ATOM     19  O   UNL     1       2.113   9.811  17.356  0.00  0.00    +0.000 OA
ATOM     20  H   UNL     1       1.912  10.487  18.023  0.00  0.00    +0.000 HD
ENDBRANCH  18  19
BRANCH  18  21
ATOM     21  C   UNL     1       1.524   8.229  19.087  0.00  0.00    +0.000 C 
BRANCH  21  22
ATOM     22  N   UNL     1       1.208   9.173  20.179  0.00  0.00    +0.000 NA
ATOM     23  C   UNL     1      -0.060   9.887  19.944  0.00  0.00    +0.000 C 
ATOM     24  C   UNL     1      -0.246  10.965  21.014  0.00  0.00    +0.000 C 
ATOM     25  C   UNL     1      -0.331  10.337  22.400  0.00  0.00    +0.000 C 
ATOM     26  C   UNL     1       0.856   9.411  22.642  0.00  0.00    +0.000 C 
ATOM     27  C   UNL     1       1.091   8.448  21.469  0.00  0.00    +0.000 C 
ENDBRANCH  21  22
ENDBRANCH  18  21
ENDBRANCH  17  18
ENDBRANCH  16  17
TORSDOF 5
ENDMDL
MODEL 4
REMARK VINA RESULT:      -6.9      2.748      6.814
REMARK  Name = 
REMARK  6 active torsions:
REMARK  status: ('A' for Active; 'I' for Inactive)
REMARK    1  A    between atoms: C_1  and  C_2
REMARK    2  A    between atoms: N_16  and  C_17
REMARK    3  A    between atoms: C_17  and  C_18
REMARK    4  A    between atoms: C_18  and  O_19
REMARK    5  A    between atoms: C_18  and  C_20
REMARK    6  A    between atoms: C_20  and  N_21
REMARK                            x       y       z     vdW  Elec       q    Type
REMARK                         _______ _______ _______ _____ _____    ______ ____
ROOT
ATOM      1  C   UNL     1       3.787   1.893  21.219  0.00  0.00    +0.000 C 
ATOM      2  C   UNL     1       2.907   2.958  20.619  0.00  0.00    +0.000 A 
ATOM      3  C   UNL     1       1.560   2.973  21.000  0.00  0.00    +0.000 A 
ATOM      4  C   UNL     1       0.695   3.916  20.465  0.00  0.00    +0.000 A 
ATOM      5  C   UNL     1       1.160   4.873  19.556  0.00  0.00    +0.000 A 
ATOM      6  C   UNL     1       2.505   4.934  19.151  0.00  0.00    +0.000 A 
ATOM      7  C   UNL     1       3.367   3.937  19.690  0.00  0.00    +0.000 A 
ATOM      8  C   UNL     1       4.789   3.936  19.257  0.00  0.00    +0.000 A 
ATOM      9  O   UNL     1       5.599   3.104  19.658  0.00  0.00    +0.000 OA
ATOM     10  C   UNL     1       5.258   4.964  18.316  0.00  0.00    +0.000 A 
ATOM     11  C   UNL     1       6.612   4.934  17.924  0.00  0.00    +0.000 A 
ATOM     12  C   UNL     1       7.112   5.891  17.054  0.00  0.00    +0.000 A 
ATOM     13  C   UNL     1       6.264   6.885  16.593  0.00  0.00    +0.000 A 
ATOM     14  C   UNL     1       4.923   6.914  17.001  0.00  0.00    +0.000 A 
ATOM     15  C   UNL     1       4.370   5.948  17.857  0.00  0.00    +0.000 A 
ATOM     16  N   UNL     1       3.008   5.929  18.265  0.00  0.00    +0.000 N 
ENDROOT
BRANCH  16  17
ATOM     17  C   UNL     1       2.117   7.035  17.766  0.00  0.00    +0.000 C 
BRANCH  17  18
ATOM     18  C   UNL     1       2.360   8.388  18.495  0.00  0.00    +0.000 C 
BRANCH  18  19
ATOM     19  O   UNL     1       2.253   9.486  17.567  0.00  0.00    +0.000 OA
ATOM     20  H   UNL     1       2.715  10.251  17.946  0.00  0.00    +0.000 HD
ENDBRANCH  18  19
BRANCH  18  21
ATOM     21  C   UNL     1       1.365   8.679  19.666  0.00  0.00    +0.000 C 
BRANCH  21  22
ATOM     22  N   UNL     1       0.761  10.025  19.761  0.00  0.00    +0.000 NA
ATOM     23  C   UNL     1      -0.628  10.045  19.271  0.00  0.00    +0.000 C 
ATOM     24  C   UNL     1      -1.139  11.487  19.236  0.00  0.00    +0.000 C 
ATOM     25  C   UNL     1      -1.145  12.089  20.635  0.00  0.00    +0.000 C 
ATOM     26  C   UNL     1       0.219  11.922  21.296  0.00  0.00    +0.000 C 
ATOM     27  C   UNL     1       0.753  10.487  21.172  0.00  0.00    +0.000 C 
ENDBRANCH  21  22
ENDBRANCH  18  21
ENDBRANCH  17  18
ENDBRANCH  16  17
TORSDOF 5
ENDMDL
MODEL 5
REMARK VINA RESULT:      -6.9      2.832      7.310
REMARK  Name = 
REMARK  6 active torsions:
REMARK  status: ('A' for Active; 'I' for Inactive)
REMARK    1  A    between atoms: C_1  and  C_2
REMARK    2  A    between atoms: N_16  and  C_17
REMARK    3  A    between atoms: C_17  and  C_18
REMARK    4  A    between atoms: C_18  and  O_19
REMARK    5  A    between atoms: C_18  and  C_20
REMARK    6  A    between atoms: C_20  and  N_21
REMARK                            x       y       z     vdW  Elec       q    Type
REMARK                         _______ _______ _______ _____ _____    ______ ____
ROOT
ATOM      1  C   UNL     1       7.739   4.413  18.166  0.00  0.00    +0.000 C 
ATOM      2  C   UNL     1       6.676   5.420  17.811  0.00  0.00    +0.000 A 
ATOM      3  C   UNL     1       7.049   6.490  16.989  0.00  0.00    +0.000 A 
ATOM      4  C   UNL     1       6.121   7.460  16.645  0.00  0.00    +0.000 A 
ATOM      5  C   UNL     1       4.799   7.373  17.096  0.00  0.00    +0.000 A 
ATOM      6  C   UNL     1       4.349   6.311  17.901  0.00  0.00    +0.000 A 
ATOM      7  C   UNL     1       5.327   5.343  18.266  0.00  0.00    +0.000 A 
ATOM      8  C   UNL     1       4.907   4.226  19.151  0.00  0.00    +0.000 A 
ATOM      9  O   UNL     1       5.687   3.356  19.529  0.00  0.00    +0.000 OA
ATOM     10  C   UNL     1       3.507   4.144  19.596  0.00  0.00    +0.000 A 
ATOM     11  C   UNL     1       3.142   3.073  20.436  0.00  0.00    +0.000 A 
ATOM     12  C   UNL     1       1.831   2.937  20.869  0.00  0.00    +0.000 A 
ATOM     13  C   UNL     1       0.888   3.860  20.449  0.00  0.00    +0.000 A 
ATOM     14  C   UNL     1       1.260   4.914  19.601  0.00  0.00    +0.000 A 
ATOM     15  C   UNL     1       2.580   5.104  19.162  0.00  0.00    +0.000 A 
ATOM     16  N   UNL     1       2.997   6.178  18.330  0.00  0.00    +0.000 N 
ENDROOT
BRANCH  16  17
ATOM     17  C   UNL     1       1.945   7.151  17.870  0.00  0.00    +0.000 C 
BRANCH  17  18
ATOM     18  C   UNL     1       2.148   8.583  18.444  0.00  0.00    +0.000 C 
BRANCH  18  19
ATOM     19  O   UNL     1       1.952   9.571  17.412  0.00  0.00    +0.000 OA
ATOM     20  H   UNL     1       1.543  10.354  17.815  0.00  0.00    +0.000 HD
ENDBRANCH  18  19
BRANCH  18  21
ATOM     21  C   UNL     1       1.184   8.951  19.619  0.00  0.00    +0.000 C 
BRANCH  21  22
ATOM     22  N   UNL     1       0.579  10.299  19.640  0.00  0.00    +0.000 NA
ATOM     23  C   UNL     1      -0.891  10.248  19.554  0.00  0.00    +0.000 C 
ATOM     24  C   UNL     1      -1.445  11.667  19.409  0.00  0.00    +0.000 C 
ATOM     25  C   UNL     1      -1.094  12.509  20.629  0.00  0.00    +0.000 C 
ATOM     26  C   UNL     1       0.404  12.445  20.910  0.00  0.00    +0.000 C 
ATOM     27  C   UNL     1       0.938  11.005  20.896  0.00  0.00    +0.000 C 
ENDBRANCH  21  22
ENDBRANCH  18  21
ENDBRANCH  17  18
ENDBRANCH  16  17
TORSDOF 5
ENDMDL
MODEL 6
REMARK VINA RESULT:      -6.9      0.505      1.066
REMARK  Name = 
REMARK  6 active torsions:
REMARK  status: ('A' for Active; 'I' for Inactive)
REMARK    1  A    between atoms: C_1  and  C_2
REMARK    2  A    between atoms: N_16  and  C_17
REMARK    3  A    between atoms: C_17  and  C_18
REMARK    4  A    between atoms: C_18  and  O_19
REMARK    5  A    between atoms: C_18  and  C_20
REMARK    6  A    between atoms: C_20  and  N_21
REMARK                            x       y       z     vdW  Elec       q    Type
REMARK                         _______ _______ _______ _____ _____    ______ ____
ROOT
ATOM      1  C   UNL     1       1.410   2.573  21.018  0.00  0.00    +0.000 C 
ATOM      2  C   UNL     1       2.312   2.790  19.831  0.00  0.00    +0.000 A 
ATOM      3  C   UNL     1       2.923   1.663  19.270  0.00  0.00    +0.000 A 
ATOM      4  C   UNL     1       3.781   1.801  18.189  0.00  0.00    +0.000 A 
ATOM      5  C   UNL     1       4.030   3.062  17.636  0.00  0.00    +0.000 A 
ATOM      6  C   UNL     1       3.430   4.233  18.131  0.00  0.00    +0.000 A 
ATOM      7  C   UNL     1       2.576   4.069  19.259  0.00  0.00    +0.000 A 
ATOM      8  C   UNL     1       1.952   5.285  19.844  0.00  0.00    +0.000 A 
ATOM      9  O   UNL     1       1.217   5.240  20.827  0.00  0.00    +0.000 OA
ATOM     10  C   UNL     1       2.214   6.597  19.232  0.00  0.00    +0.000 A 
ATOM     11  C   UNL     1       1.608   7.730  19.812  0.00  0.00    +0.000 A 
ATOM     12  C   UNL     1       1.806   8.989  19.264  0.00  0.00    +0.000 A 
ATOM     13  C   UNL     1       2.592   9.109  18.130  0.00  0.00    +0.000 A 
ATOM     14  C   UNL     1       3.178   7.973  17.552  0.00  0.00    +0.000 A 
ATOM     15  C   UNL     1       3.027   6.685  18.092  0.00  0.00    +0.000 A 
ATOM     16  N   UNL     1       3.632   5.518  17.552  0.00  0.00    +0.000 N 
ENDROOT
BRANCH  16  17
ATOM     17  C   UNL     1       4.462   5.677  16.306  0.00  0.00    +0.000 C 
BRANCH  17  18
ATOM     18  C   UNL     1       5.981   5.837  16.602  0.00  0.00    +0.000 C 
BRANCH  18  19
ATOM     19  O   UNL     1       6.195   6.115  18.000  0.00  0.00    +0.000 OA
ATOM     20  H   UNL     1       5.977   5.316  18.506  0.00  0.00    +0.000 HD
ENDBRANCH  18  19
BRANCH  18  21
ATOM     21  C   UNL     1       6.844   4.582  16.247  0.00  0.00    +0.000 C 
BRANCH  21  22
ATOM     22  N   UNL     1       7.099   4.280  14.824  0.00  0.00    +0.000 NA
ATOM     23  C   UNL     1       5.884   3.822  14.128  0.00  0.00    +0.000 C 
ATOM     24  C   UNL     1       6.245   3.366  12.712  0.00  0.00    +0.000 C 
ATOM     25  C   UNL     1       6.818   4.523  11.905  0.00  0.00    +0.000 C 
ATOM     26  C   UNL     1       7.963   5.189  12.661  0.00  0.00    +0.000 C 
ATOM     27  C   UNL     1       7.597   5.490  14.122  0.00  0.00    +0.000 C 
ENDBRANCH  21  22
ENDBRANCH  18  21
ENDBRANCH  17  18
ENDBRANCH  16  17
TORSDOF 5
ENDMDL
MODEL 7
REMARK VINA RESULT:      -6.9      2.857      6.982
REMARK  Name = 
REMARK  6 active torsions:
REMARK  status: ('A' for Active; 'I' for Inactive)
REMARK    1  A    between atoms: C_1  and  C_2
REMARK    2  A    between atoms: N_16  and  C_17
REMARK    3  A    between atoms: C_17  and  C_18
REMARK    4  A    between atoms: C_18  and  O_19
REMARK    5  A    between atoms: C_18  and  C_20
REMARK    6  A    between atoms: C_20  and  N_21
REMARK                            x       y       z     vdW  Elec       q    Type
REMARK                         _______ _______ _______ _____ _____    ______ ____
ROOT
ATOM      1  C   UNL     1       3.625   2.011  21.242  0.00  0.00    +0.000 C 
ATOM      2  C   UNL     1       2.799   3.104  20.617  0.00  0.00    +0.000 A 
ATOM      3  C   UNL     1       1.435   3.144  20.933  0.00  0.00    +0.000 A 
ATOM      4  C   UNL     1       0.619   4.114  20.372  0.00  0.00    +0.000 A 
ATOM      5  C   UNL     1       1.148   5.073  19.502  0.00  0.00    +0.000 A 
ATOM      6  C   UNL     1       2.512   5.109  19.162  0.00  0.00    +0.000 A 
ATOM      7  C   UNL     1       3.325   4.086  19.727  0.00  0.00    +0.000 A 
ATOM      8  C   UNL     1       4.765   4.059  19.362  0.00  0.00    +0.000 A 
ATOM      9  O   UNL     1       5.536   3.203  19.789  0.00  0.00    +0.000 OA
ATOM     10  C   UNL     1       5.302   5.090  18.461  0.00  0.00    +0.000 A 
ATOM     11  C   UNL     1       6.672   5.035  18.135  0.00  0.00    +0.000 A 
ATOM     12  C   UNL     1       7.235   5.993  17.305  0.00  0.00    +0.000 A 
ATOM     13  C   UNL     1       6.431   7.012  16.819  0.00  0.00    +0.000 A 
ATOM     14  C   UNL     1       5.073   7.066  17.163  0.00  0.00    +0.000 A 
ATOM     15  C   UNL     1       4.458   6.100  17.976  0.00  0.00    +0.000 A 
ATOM     16  N   UNL     1       3.079   6.106  18.317  0.00  0.00    +0.000 N 
ENDROOT
BRANCH  16  17
ATOM     17  C   UNL     1       2.237   7.239  17.794  0.00  0.00    +0.000 C 
BRANCH  17  18
ATOM     18  C   UNL     1       2.176   8.451  18.767  0.00  0.00    +0.000 C 
BRANCH  18  19
ATOM     19  O   UNL     1       2.703   9.634  18.132  0.00  0.00    +0.000 OA
ATOM     20  H   UNL     1       3.079   9.376  17.274  0.00  0.00    +0.000 HD
ENDBRANCH  18  19
BRANCH  18  21
ATOM     21  C   UNL     1       0.737   8.805  19.269  0.00  0.00    +0.000 C 
BRANCH  21  22
ATOM     22  N   UNL     1       0.596   9.548  20.539  0.00  0.00    +0.000 NA
ATOM     23  C   UNL     1      -0.313  10.700  20.408  0.00  0.00    +0.000 C 
ATOM     24  C   UNL     1      -0.287  11.523  21.698  0.00  0.00    +0.000 C 
ATOM     25  C   UNL     1      -0.778  10.691  22.876  0.00  0.00    +0.000 C 
ATOM     26  C   UNL     1      -0.015   9.373  22.956  0.00  0.00    +0.000 C 
ATOM     27  C   UNL     1       0.056   8.659  21.599  0.00  0.00    +0.000 C 
ENDBRANCH  21  22
ENDBRANCH  18  21
ENDBRANCH  17  18
ENDBRANCH  16  17
TORSDOF 5
ENDMDL
MODEL 8
REMARK VINA RESULT:      -6.9      5.087      8.763
REMARK  Name = 
REMARK  6 active torsions:
REMARK  status: ('A' for Active; 'I' for Inactive)
REMARK    1  A    between atoms: C_1  and  C_2
REMARK    2  A    between atoms: N_16  and  C_17
REMARK    3  A    between atoms: C_17  and  C_18
REMARK    4  A    between atoms: C_18  and  O_19
REMARK    5  A    between atoms: C_18  and  C_20
REMARK    6  A    between atoms: C_20  and  N_21
REMARK                            x       y       z     vdW  Elec       q    Type
REMARK                         _______ _______ _______ _____ _____    ______ ____
ROOT
ATOM      1  C   UNL     1       2.094   5.866  20.250  0.00  0.00    +0.000 C 
ATOM      2  C   UNL     1       2.107   7.139  19.445  0.00  0.00    +0.000 A 
ATOM      3  C   UNL     1       2.777   7.119  18.216  0.00  0.00    +0.000 A 
ATOM      4  C   UNL     1       2.840   8.266  17.439  0.00  0.00    +0.000 A 
ATOM      5  C   UNL     1       2.223   9.448  17.863  0.00  0.00    +0.000 A 
ATOM      6  C   UNL     1       1.510   9.532  19.072  0.00  0.00    +0.000 A 
ATOM      7  C   UNL     1       1.484   8.350  19.866  0.00  0.00    +0.000 A 
ATOM      8  C   UNL     1       0.778   8.404  21.173  0.00  0.00    +0.000 A 
ATOM      9  O   UNL     1       0.719   7.439  21.930  0.00  0.00    +0.000 OA
ATOM     10  C   UNL     1       0.119   9.652  21.587  0.00  0.00    +0.000 A 
ATOM     11  C   UNL     1      -0.540   9.670  22.833  0.00  0.00    +0.000 A 
ATOM     12  C   UNL     1      -1.194  10.815  23.264  0.00  0.00    +0.000 A 
ATOM     13  C   UNL     1      -1.202  11.931  22.443  0.00  0.00    +0.000 A 
ATOM     14  C   UNL     1      -0.556  11.897  21.199  0.00  0.00    +0.000 A 
ATOM     15  C   UNL     1       0.141  10.768  20.738  0.00  0.00    +0.000 A 
ATOM     16  N   UNL     1       0.834  10.711  19.498  0.00  0.00    +0.000 N 
ENDROOT
BRANCH  16  17
ATOM     17  C   UNL     1       0.786  11.930  18.617  0.00  0.00    +0.000 C 
BRANCH  17  18
ATOM     18  C   UNL     1       2.084  12.785  18.690  0.00  0.00    +0.000 C 
BRANCH  18  19
ATOM     19  O   UNL     1       2.614  13.011  17.368  0.00  0.00    +0.000 OA
ATOM     20  H   UNL     1       3.264  13.730  17.420  0.00  0.00    +0.000 HD
ENDBRANCH  18  19
BRANCH  18  21
ATOM     21  C   UNL     1       1.896  14.189  19.354  0.00  0.00    +0.000 C 
BRANCH  21  22
ATOM     22  N   UNL     1       1.343  15.288  18.536  0.00  0.00    +0.000 NA
ATOM     23  C   UNL     1       0.119  15.858  19.128  0.00  0.00    +0.000 C 
ATOM     24  C   UNL     1      -0.497  16.868  18.158  0.00  0.00    +0.000 C 
ATOM     25  C   UNL     1       0.462  18.024  17.905  0.00  0.00    +0.000 C 
ATOM     26  C   UNL     1       1.831  17.501  17.482  0.00  0.00    +0.000 C 
ATOM     27  C   UNL     1       2.337  16.383  18.404  0.00  0.00    +0.000 C 
ENDBRANCH  21  22
ENDBRANCH  18  21
ENDBRANCH  17  18
ENDBRANCH  16  17
TORSDOF 5
ENDMDL
MODEL 9
REMARK VINA RESULT:      -6.8      2.214      6.709
REMARK  Name = 
REMARK  6 active torsions:
REMARK  status: ('A' for Active; 'I' for Inactive)
REMARK    1  A    between atoms: C_1  and  C_2
REMARK    2  A    between atoms: N_16  and  C_17
REMARK    3  A    between atoms: C_17  and  C_18
REMARK    4  A    between atoms: C_18  and  O_19
REMARK    5  A    between atoms: C_18  and  C_20
REMARK    6  A    between atoms: C_20  and  N_21
REMARK                            x       y       z     vdW  Elec       q    Type
REMARK                         _______ _______ _______ _____ _____    ______ ____
ROOT
ATOM      1  C   UNL     1       2.178   1.407  19.385  0.00  0.00    +0.000 C 
ATOM      2  C   UNL     1       2.117   2.902  19.563  0.00  0.00    +0.000 A 
ATOM      3  C   UNL     1       1.314   3.398  20.596  0.00  0.00    +0.000 A 
ATOM      4  C   UNL     1       1.201   4.765  20.796  0.00  0.00    +0.000 A 
ATOM      5  C   UNL     1       1.902   5.663  19.983  0.00  0.00    +0.000 A 
ATOM      6  C   UNL     1       2.748   5.234  18.945  0.00  0.00    +0.000 A 
ATOM      7  C   UNL     1       2.824   3.827  18.740  0.00  0.00    +0.000 A 
ATOM      8  C   UNL     1       3.674   3.330  17.626  0.00  0.00    +0.000 A 
ATOM      9  O   UNL     1       3.784   2.135  17.367  0.00  0.00    +0.000 OA
ATOM     10  C   UNL     1       4.416   4.292  16.799  0.00  0.00    +0.000 A 
ATOM     11  C   UNL     1       5.211   3.788  15.750  0.00  0.00    +0.000 A 
ATOM     12  C   UNL     1       5.947   4.650  14.950  0.00  0.00    +0.000 A 
ATOM     13  C   UNL     1       5.901   6.009  15.212  0.00  0.00    +0.000 A 
ATOM     14  C   UNL     1       5.118   6.499  16.268  0.00  0.00    +0.000 A 
ATOM     15  C   UNL     1       4.336   5.664  17.082  0.00  0.00    +0.000 A 
ATOM     16  N   UNL     1       3.507   6.130  18.139  0.00  0.00    +0.000 N 
ENDROOT
BRANCH  16  17
ATOM     17  C   UNL     1       3.496   7.610  18.414  0.00  0.00    +0.000 C 
BRANCH  17  18
ATOM     18  C   UNL     1       2.451   8.381  17.558  0.00  0.00    +0.000 C 
BRANCH  18  19
ATOM     19  O   UNL     1       1.223   7.630  17.467  0.00  0.00    +0.000 OA
ATOM     20  H   UNL     1       1.436   6.687  17.554  0.00  0.00    +0.000 HD
ENDBRANCH  18  19
BRANCH  18  21
ATOM     21  C   UNL     1       2.081   9.797  18.110  0.00  0.00    +0.000 C 
BRANCH  21  22
ATOM     22  N   UNL     1       0.889   9.929  18.973  0.00  0.00    +0.000 NA
ATOM     23  C   UNL     1       1.126   9.407  20.330  0.00  0.00    +0.000 C 
ATOM     24  C   UNL     1      -0.185   9.415  21.119  0.00  0.00    +0.000 C 
ATOM     25  C   UNL     1      -0.714  10.835  21.268  0.00  0.00    +0.000 C 
ATOM     26  C   UNL     1      -0.794  11.523  19.909  0.00  0.00    +0.000 C 
ATOM     27  C   UNL     1       0.497  11.356  19.095  0.00  0.00    +0.000 C 
ENDBRANCH  21  22
ENDBRANCH  18  21
ENDBRANCH  17  18
ENDBRANCH  16  17
TORSDOF 5
ENDMDL
