MODEL 1
REMARK VINA RESULT:      -6.7      0.000      0.000
REMARK  Name = 
REMARK  9 active torsions:
REMARK  status: ('A' for Active; 'I' for Inactive)
REMARK    1  A    between atoms: C_2  and  C_3
REMARK    2  A    between atoms: C_3  and  N_4
REMARK    3  A    between atoms: N_4  and  C_5
REMARK    4  A    between atoms: C_5  and  C_6
REMARK    5  A    between atoms: C_5  and  C_13
REMARK    6  A    between atoms: C_6  and  C_7
REMARK    7  A    between atoms: C_13  and  O_15
REMARK    8  A    between atoms: O_15  and  C_16
REMARK    9  A    between atoms: C_16  and  C_17
REMARK                            x       y       z     vdW  Elec       q    Type
REMARK                         _______ _______ _______ _____ _____    ______ ____
ROOT
ATOM      1  C   UNL     1       5.751   4.887  16.168  0.00  0.00    +0.000 C 
ENDROOT
BRANCH   1   2
ATOM      2  N   UNL     1       5.672   5.064  14.699  0.00  0.00    +0.000 NA
ATOM      3  H   UNL     1       4.689   5.112  14.426  0.00  0.00    +0.000 HD
BRANCH   2   4
ATOM      4  C   UNL     1       6.337   4.014  13.965  0.00  0.00    +0.000 C 
BRANCH   4   6
ATOM      5  C   UNL     1       4.781   3.232  11.741  0.00  0.00    +0.000 C 
ATOM      6  C   UNL     1       5.499   3.594  12.768  0.00  0.00    +0.000 C 
ENDBRANCH   4   6
ENDBRANCH   2   4
ENDBRANCH   1   2
BRANCH   1   7
ATOM      7  C   UNL     1       7.202   5.111  16.628  0.00  0.00    +0.000 C 
ATOM      8  O   UNL     1       7.985   4.221  16.921  0.00  0.00    +0.000 OA
BRANCH   7   9
ATOM      9  O   UNL     1       7.543   6.432  16.544  0.00  0.00    +0.000 OA
BRANCH   9  10
ATOM     10  C   UNL     1       7.365   7.168  17.762  0.00  0.00    +0.000 C 
ATOM     11  C   UNL     1       8.054   8.520  17.681  0.00  0.00    +0.000 C 
ENDBRANCH   9  10
ENDBRANCH   7   9
ENDBRANCH   1   7
BRANCH   1  12
ATOM     12  C   UNL     1       5.191   3.542  16.688  0.00  0.00    +0.000 C 
BRANCH  12  13
ATOM     13  C   UNL     1       3.796   3.534  17.273  0.00  0.00    +0.000 A 
ATOM     14  C   UNL     1       3.178   2.327  17.621  0.00  0.00    +0.000 A 
ATOM     15  C   UNL     1       1.950   2.325  18.292  0.00  0.00    +0.000 A 
ATOM     16  C   UNL     1       1.318   3.528  18.601  0.00  0.00    +0.000 A 
ATOM     17  C   UNL     1       1.902   4.733  18.225  0.00  0.00    +0.000 A 
ATOM     18  C   UNL     1       3.132   4.736  17.566  0.00  0.00    +0.000 A 
ENDBRANCH  12  13
ENDBRANCH   1  12
TORSDOF 8
ENDMDL
MODEL 2
REMARK VINA RESULT:      -6.7      1.482      4.133
REMARK  Name = 
REMARK  9 active torsions:
REMARK  status: ('A' for Active; 'I' for Inactive)
REMARK    1  A    between atoms: C_2  and  C_3
REMARK    2  A    between atoms: C_3  and  N_4
REMARK    3  A    between atoms: N_4  and  C_5
REMARK    4  A    between atoms: C_5  and  C_6
REMARK    5  A    between atoms: C_5  and  C_13
REMARK    6  A    between atoms: C_6  and  C_7
REMARK    7  A    between atoms: C_13  and  O_15
REMARK    8  A    between atoms: O_15  and  C_16
REMARK    9  A    between atoms: C_16  and  C_17
REMARK                            x       y       z     vdW  Elec       q    Type
REMARK                         _______ _______ _______ _____ _____    ______ ____
ROOT
ATOM      1  C   UNL     1       6.304   4.607  16.397  0.00  0.00    +0.000 C 
ENDROOT
BRANCH   1   2
ATOM      2  N   UNL     1       7.527   4.798  17.210  0.00  0.00    +0.000 NA
ATOM      3  H   UNL     1       7.878   3.882  17.496  0.00  0.00    +0.000 HD
BRANCH   2   4
ATOM      4  C   UNL     1       7.313   5.627  18.372  0.00  0.00    +0.000 C 
BRANCH   4   6
ATOM      5  C   UNL     1       8.065   8.294  17.827  0.00  0.00    +0.000 C 
ATOM      6  C   UNL     1       7.718   7.063  18.079  0.00  0.00    +0.000 C 
ENDBRANCH   4   6
ENDBRANCH   2   4
ENDBRANCH   1   2
BRANCH   1   7
ATOM      7  C   UNL     1       6.631   4.880  14.917  0.00  0.00    +0.000 C 
ATOM      8  O   UNL     1       7.647   5.428  14.519  0.00  0.00    +0.000 OA
BRANCH   7   9
ATOM      9  O   UNL     1       5.696   4.313  14.098  0.00  0.00    +0.000 OA
BRANCH   9  10
ATOM     10  C   UNL     1       6.242   3.622  12.966  0.00  0.00    +0.000 C 
ATOM     11  C   UNL     1       5.142   3.227  11.994  0.00  0.00    +0.000 C 
ENDBRANCH   9  10
ENDBRANCH   7   9
ENDBRANCH   1   7
BRANCH   1  12
ATOM     12  C   UNL     1       5.079   5.427  16.868  0.00  0.00    +0.000 C 
BRANCH  12  13
ATOM     13  C   UNL     1       3.843   4.669  17.299  0.00  0.00    +0.000 A 
ATOM     14  C   UNL     1       3.779   3.277  17.162  0.00  0.00    +0.000 A 
ATOM     15  C   UNL     1       2.699   2.561  17.688  0.00  0.00    +0.000 A 
ATOM     16  C   UNL     1       1.662   3.229  18.335  0.00  0.00    +0.000 A 
ATOM     17  C   UNL     1       1.693   4.615  18.441  0.00  0.00    +0.000 A 
ATOM     18  C   UNL     1       2.776   5.330  17.927  0.00  0.00    +0.000 A 
ENDBRANCH  12  13
ENDBRANCH   1  12
TORSDOF 8
ENDMDL
MODEL 3
REMARK VINA RESULT:      -6.5      1.006      1.794
REMARK  Name = 
REMARK  9 active torsions:
REMARK  status: ('A' for Active; 'I' for Inactive)
REMARK    1  A    between atoms: C_2  and  C_3
REMARK    2  A    between atoms: C_3  and  N_4
REMARK    3  A    between atoms: N_4  and  C_5
REMARK    4  A    between atoms: C_5  and  C_6
REMARK    5  A    between atoms: C_5  and  C_13
REMARK    6  A    between atoms: C_6  and  C_7
REMARK    7  A    between atoms: C_13  and  O_15
REMARK    8  A    between atoms: O_15  and  C_16
REMARK    9  A    between atoms: C_16  and  C_17
REMARK                            x       y       z     vdW  Elec       q    Type
REMARK                         _______ _______ _______ _____ _____    ______ ____
ROOT
ATOM      1  C   UNL     1       5.394   4.297  15.638  0.00  0.00    +0.000 C 
ENDROOT
BRANCH   1   2
ATOM      2  N   UNL     1       6.239   3.465  14.752  0.00  0.00    +0.000 NA
ATOM      3  H   UNL     1       7.131   3.289  15.218  0.00  0.00    +0.000 HD
BRANCH   2   4
ATOM      4  C   UNL     1       6.470   4.066  13.460  0.00  0.00    +0.000 C 
BRANCH   4   6
ATOM      5  C   UNL     1       4.593   3.107  11.580  0.00  0.00    +0.000 C 
ATOM      6  C   UNL     1       5.459   3.550  12.448  0.00  0.00    +0.000 C 
ENDBRANCH   4   6
ENDBRANCH   2   4
ENDBRANCH   1   2
BRANCH   1   7
ATOM      7  C   UNL     1       5.914   5.746  15.620  0.00  0.00    +0.000 C 
ATOM      8  O   UNL     1       5.262   6.716  15.264  0.00  0.00    +0.000 OA
BRANCH   7   9
ATOM      9  O   UNL     1       7.160   5.825  16.177  0.00  0.00    +0.000 OA
BRANCH   9  10
ATOM     10  C   UNL     1       7.290   6.822  17.199  0.00  0.00    +0.000 C 
ATOM     11  C   UNL     1       7.657   6.186  18.529  0.00  0.00    +0.000 C 
ENDBRANCH   9  10
ENDBRANCH   7   9
ENDBRANCH   1   7
BRANCH   1  12
ATOM     12  C   UNL     1       5.250   3.763  17.083  0.00  0.00    +0.000 C 
BRANCH  12  13
ATOM     13  C   UNL     1       3.853   3.548  17.622  0.00  0.00    +0.000 A 
ATOM     14  C   UNL     1       2.908   4.581  17.582  0.00  0.00    +0.000 A 
ATOM     15  C   UNL     1       1.579   4.344  17.947  0.00  0.00    +0.000 A 
ATOM     16  C   UNL     1       1.186   3.078  18.378  0.00  0.00    +0.000 A 
ATOM     17  C   UNL     1       2.123   2.054  18.462  0.00  0.00    +0.000 A 
ATOM     18  C   UNL     1       3.446   2.287  18.086  0.00  0.00    +0.000 A 
ENDBRANCH  12  13
ENDBRANCH   1  12
TORSDOF 8
ENDMDL
MODEL 4
REMARK VINA RESULT:      -6.4      1.012      1.384
REMARK  Name = 
REMARK  9 active torsions:
REMARK  status: ('A' for Active; 'I' for Inactive)
REMARK    1  A    between atoms: C_2  and  C_3
REMARK    2  A    between atoms: C_3  and  N_4
REMARK    3  A    between atoms: N_4  and  C_5
REMARK    4  A    between atoms: C_5  and  C_6
REMARK    5  A    between atoms: C_5  and  C_13
REMARK    6  A    between atoms: C_6  and  C_7
REMARK    7  A    between atoms: C_13  and  O_15
REMARK    8  A    between atoms: O_15  and  C_16
REMARK    9  A    between atoms: C_16  and  C_17
REMARK                            x       y       z     vdW  Elec       q    Type
REMARK                         _______ _______ _______ _____ _____    ______ ____
ROOT
ATOM      1  C   UNL     1       5.448   4.413  15.613  0.00  0.00    +0.000 C 
ENDROOT
BRANCH   1   2
ATOM      2  N   UNL     1       6.434   3.638  14.826  0.00  0.00    +0.000 NA
ATOM      3  H   UNL     1       7.326   3.638  15.325  0.00  0.00    +0.000 HD
BRANCH   2   4
ATOM      4  C   UNL     1       6.619   4.147  13.488  0.00  0.00    +0.000 C 
BRANCH   4   6
ATOM      5  C   UNL     1       4.924   2.792  11.680  0.00  0.00    +0.000 C 
ATOM      6  C   UNL     1       5.706   3.418  12.515  0.00  0.00    +0.000 C 
ENDBRANCH   4   6
ENDBRANCH   2   4
ENDBRANCH   1   2
BRANCH   1   7
ATOM      7  C   UNL     1       5.854   5.898  15.613  0.00  0.00    +0.000 C 
ATOM      8  O   UNL     1       5.120   6.821  15.294  0.00  0.00    +0.000 OA
BRANCH   7   9
ATOM      9  O   UNL     1       7.106   6.062  16.139  0.00  0.00    +0.000 OA
BRANCH   9  10
ATOM     10  C   UNL     1       7.174   7.001  17.220  0.00  0.00    +0.000 C 
ATOM     11  C   UNL     1       7.654   6.323  18.493  0.00  0.00    +0.000 C 
ENDBRANCH   9  10
ENDBRANCH   7   9
ENDBRANCH   1   7
BRANCH   1  12
ATOM     12  C   UNL     1       5.211   3.889  17.049  0.00  0.00    +0.000 C 
BRANCH  12  13
ATOM     13  C   UNL     1       3.788   3.588  17.467  0.00  0.00    +0.000 A 
ATOM     14  C   UNL     1       3.401   2.278  17.777  0.00  0.00    +0.000 A 
ATOM     15  C   UNL     1       2.129   2.018  18.299  0.00  0.00    +0.000 A 
ATOM     16  C   UNL     1       1.226   3.060  18.494  0.00  0.00    +0.000 A 
ATOM     17  C   UNL     1       1.583   4.360  18.152  0.00  0.00    +0.000 A 
ATOM     18  C   UNL     1       2.856   4.622  17.643  0.00  0.00    +0.000 A 
ENDBRANCH  12  13
ENDBRANCH   1  12
TORSDOF 8
ENDMDL
MODEL 5
REMARK VINA RESULT:      -6.4      1.907      2.365
REMARK  Name = 
REMARK  9 active torsions:
REMARK  status: ('A' for Active; 'I' for Inactive)
REMARK    1  A    between atoms: C_2  and  C_3
REMARK    2  A    between atoms: C_3  and  N_4
REMARK    3  A    between atoms: N_4  and  C_5
REMARK    4  A    between atoms: C_5  and  C_6
REMARK    5  A    between atoms: C_5  and  C_13
REMARK    6  A    between atoms: C_6  and  C_7
REMARK    7  A    between atoms: C_13  and  O_15
REMARK    8  A    between atoms: O_15  and  C_16
REMARK    9  A    between atoms: C_16  and  C_17
REMARK                            x       y       z     vdW  Elec       q    Type
REMARK                         _______ _______ _______ _____ _____    ______ ____
ROOT
ATOM      1  C   UNL     1       6.505   5.379  18.433  0.00  0.00    +0.000 C 
ENDROOT
BRANCH   1   2
ATOM      2  N   UNL     1       6.964   4.162  17.726  0.00  0.00    +0.000 NA
ATOM      3  H   UNL     1       7.687   3.708  18.288  0.00  0.00    +0.000 HD
BRANCH   2   4
ATOM      4  C   UNL     1       7.467   4.431  16.400  0.00  0.00    +0.000 C 
BRANCH   4   6
ATOM      5  C   UNL     1       5.363   4.358  14.517  0.00  0.00    +0.000 C 
ATOM      6  C   UNL     1       6.334   4.392  15.387  0.00  0.00    +0.000 C 
ENDBRANCH   4   6
ENDBRANCH   2   4
ENDBRANCH   1   2
BRANCH   1   7
ATOM      7  C   UNL     1       7.613   5.860  19.387  0.00  0.00    +0.000 C 
ATOM      8  O   UNL     1       7.857   5.366  20.477  0.00  0.00    +0.000 OA
BRANCH   7   9
ATOM      9  O   UNL     1       8.376   6.831  18.800  0.00  0.00    +0.000 OA
BRANCH   9  10
ATOM     10  C   UNL     1       7.669   7.650  17.858  0.00  0.00    +0.000 C 
ATOM     11  C   UNL     1       8.141   9.093  17.938  0.00  0.00    +0.000 C 
ENDBRANCH   9  10
ENDBRANCH   7   9
ENDBRANCH   1   7
BRANCH   1  12
ATOM     12  C   UNL     1       5.150   5.231  19.165  0.00  0.00    +0.000 C 
BRANCH  12  13
ATOM     13  C   UNL     1       4.200   4.156  18.684  0.00  0.00    +0.000 A 
ATOM     14  C   UNL     1       4.110   2.933  19.360  0.00  0.00    +0.000 A 
ATOM     15  C   UNL     1       3.134   1.996  19.005  0.00  0.00    +0.000 A 
ATOM     16  C   UNL     1       2.254   2.261  17.958  0.00  0.00    +0.000 A 
ATOM     17  C   UNL     1       2.359   3.455  17.253  0.00  0.00    +0.000 A 
ATOM     18  C   UNL     1       3.324   4.396  17.613  0.00  0.00    +0.000 A 
ENDBRANCH  12  13
ENDBRANCH   1  12
TORSDOF 8
ENDMDL
MODEL 6
REMARK VINA RESULT:      -6.4      1.508      4.535
REMARK  Name = 
REMARK  9 active torsions:
REMARK  status: ('A' for Active; 'I' for Inactive)
REMARK    1  A    between atoms: C_2  and  C_3
REMARK    2  A    between atoms: C_3  and  N_4
REMARK    3  A    between atoms: N_4  and  C_5
REMARK    4  A    between atoms: C_5  and  C_6
REMARK    5  A    between atoms: C_5  and  C_13
REMARK    6  A    between atoms: C_6  and  C_7
REMARK    7  A    between atoms: C_13  and  O_15
REMARK    8  A    between atoms: O_15  and  C_16
REMARK    9  A    between atoms: C_16  and  C_17
REMARK                            x       y       z     vdW  Elec       q    Type
REMARK                         _______ _______ _______ _____ _____    ______ ____
ROOT
ATOM      1  C   UNL     1       6.446   6.424  17.048  0.00  0.00    +0.000 C 
ENDROOT
BRANCH   1   2
ATOM      2  N   UNL     1       7.165   7.719  17.051  0.00  0.00    +0.000 NA
ATOM      3  H   UNL     1       7.657   7.824  16.162  0.00  0.00    +0.000 HD
BRANCH   2   4
ATOM      4  C   UNL     1       8.094   7.850  18.147  0.00  0.00    +0.000 C 
BRANCH   4   6
ATOM      5  C   UNL     1       9.014  10.513  18.342  0.00  0.00    +0.000 C 
ATOM      6  C   UNL     1       8.590   9.283  18.253  0.00  0.00    +0.000 C 
ENDBRANCH   4   6
ENDBRANCH   2   4
ENDBRANCH   1   2
BRANCH   1   7
ATOM      7  C   UNL     1       7.206   5.425  16.157  0.00  0.00    +0.000 C 
ATOM      8  O   UNL     1       7.888   4.501  16.572  0.00  0.00    +0.000 OA
BRANCH   7   9
ATOM      9  O   UNL     1       6.914   5.628  14.837  0.00  0.00    +0.000 OA
BRANCH   9  10
ATOM     10  C   UNL     1       6.988   4.447  14.027  0.00  0.00    +0.000 C 
ATOM     11  C   UNL     1       5.599   3.990  13.613  0.00  0.00    +0.000 C 
ENDBRANCH   9  10
ENDBRANCH   7   9
ENDBRANCH   1   7
BRANCH   1  12
ATOM     12  C   UNL     1       4.952   6.514  16.655  0.00  0.00    +0.000 C 
BRANCH  12  13
ATOM     13  C   UNL     1       3.997   5.516  17.270  0.00  0.00    +0.000 A 
ATOM     14  C   UNL     1       2.996   5.940  18.152  0.00  0.00    +0.000 A 
ATOM     15  C   UNL     1       2.025   5.043  18.610  0.00  0.00    +0.000 A 
ATOM     16  C   UNL     1       2.059   3.709  18.209  0.00  0.00    +0.000 A 
ATOM     17  C   UNL     1       3.072   3.265  17.366  0.00  0.00    +0.000 A 
ATOM     18  C   UNL     1       4.033   4.162  16.900  0.00  0.00    +0.000 A 
ENDBRANCH  12  13
ENDBRANCH   1  12
TORSDOF 8
ENDMDL
MODEL 7
REMARK VINA RESULT:      -6.4      1.229      1.666
REMARK  Name = 
REMARK  9 active torsions:
REMARK  status: ('A' for Active; 'I' for Inactive)
REMARK    1  A    between atoms: C_2  and  C_3
REMARK    2  A    between atoms: C_3  and  N_4
REMARK    3  A    between atoms: N_4  and  C_5
REMARK    4  A    between atoms: C_5  and  C_6
REMARK    5  A    between atoms: C_5  and  C_13
REMARK    6  A    between atoms: C_6  and  C_7
REMARK    7  A    between atoms: C_13  and  O_15
REMARK    8  A    between atoms: O_15  and  C_16
REMARK    9  A    between atoms: C_16  and  C_17
REMARK                            x       y       z     vdW  Elec       q    Type
REMARK                         _______ _______ _______ _____ _____    ______ ____
ROOT
ATOM      1  C   UNL     1       5.399   4.318  15.560  0.00  0.00    +0.000 C 
ENDROOT
BRANCH   1   2
ATOM      2  N   UNL     1       6.261   3.515  14.662  0.00  0.00    +0.000 NA
ATOM      3  H   UNL     1       7.170   3.383  15.109  0.00  0.00    +0.000 HD
BRANCH   2   4
ATOM      4  C   UNL     1       6.434   4.111  13.359  0.00  0.00    +0.000 C 
BRANCH   4   6
ATOM      5  C   UNL     1       4.574   3.031  11.529  0.00  0.00    +0.000 C 
ATOM      6  C   UNL     1       5.433   3.530  12.374  0.00  0.00    +0.000 C 
ENDBRANCH   4   6
ENDBRANCH   2   4
ENDBRANCH   1   2
BRANCH   1   7
ATOM      7  C   UNL     1       5.933   5.760  15.618  0.00  0.00    +0.000 C 
ATOM      8  O   UNL     1       5.291   6.753  15.311  0.00  0.00    +0.000 OA
BRANCH   7   9
ATOM      9  O   UNL     1       7.179   5.798  16.180  0.00  0.00    +0.000 OA
BRANCH   9  10
ATOM     10  C   UNL     1       7.330   6.774  17.219  0.00  0.00    +0.000 C 
ATOM     11  C   UNL     1       7.644   6.103  18.546  0.00  0.00    +0.000 C 
ENDBRANCH   9  10
ENDBRANCH   7   9
ENDBRANCH   1   7
BRANCH   1  12
ATOM     12  C   UNL     1       5.211   3.725  16.977  0.00  0.00    +0.000 C 
BRANCH  12  13
ATOM     13  C   UNL     1       4.000   4.160  17.772  0.00  0.00    +0.000 A 
ATOM     14  C   UNL     1       2.711   3.805  17.356  0.00  0.00    +0.000 A 
ATOM     15  C   UNL     1       1.602   4.084  18.162  0.00  0.00    +0.000 A 
ATOM     16  C   UNL     1       1.768   4.740  19.379  0.00  0.00    +0.000 A 
ATOM     17  C   UNL     1       3.037   5.135  19.785  0.00  0.00    +0.000 A 
ATOM     18  C   UNL     1       4.146   4.847  18.987  0.00  0.00    +0.000 A 
ENDBRANCH  12  13
ENDBRANCH   1  12
TORSDOF 8
ENDMDL
MODEL 8
REMARK VINA RESULT:      -6.3      2.154      2.871
REMARK  Name = 
REMARK  9 active torsions:
REMARK  status: ('A' for Active; 'I' for Inactive)
REMARK    1  A    between atoms: C_2  and  C_3
REMARK    2  A    between atoms: C_3  and  N_4
REMARK    3  A    between atoms: N_4  and  C_5
REMARK    4  A    between atoms: C_5  and  C_6
REMARK    5  A    between atoms: C_5  and  C_13
REMARK    6  A    between atoms: C_6  and  C_7
REMARK    7  A    between atoms: C_13  and  O_15
REMARK    8  A    between atoms: O_15  and  C_16
REMARK    9  A    between atoms: C_16  and  C_17
REMARK                            x       y       z     vdW  Elec       q    Type
REMARK                         _______ _______ _______ _____ _____    ______ ____
ROOT
ATOM      1  C   UNL     1       4.575   3.733  17.282  0.00  0.00    +0.000 C 
ENDROOT
BRANCH   1   2
ATOM      2  N   UNL     1       5.561   3.487  16.205  0.00  0.00    +0.000 NA
ATOM      3  H   UNL     1       6.483   3.356  16.626  0.00  0.00    +0.000 HD
BRANCH   2   4
ATOM      4  C   UNL     1       5.611   4.550  15.229  0.00  0.00    +0.000 C 
BRANCH   4   6
ATOM      5  C   UNL     1       6.124   3.499  12.659  0.00  0.00    +0.000 C 
ATOM      6  C   UNL     1       5.888   3.985  13.846  0.00  0.00    +0.000 C 
ENDBRANCH   4   6
ENDBRANCH   2   4
ENDBRANCH   1   2
BRANCH   1   7
ATOM      7  C   UNL     1       5.227   4.594  18.379  0.00  0.00    +0.000 C 
ATOM      8  O   UNL     1       6.147   4.231  19.095  0.00  0.00    +0.000 OA
BRANCH   7   9
ATOM      9  O   UNL     1       4.726   5.867  18.362  0.00  0.00    +0.000 OA
BRANCH   9  10
ATOM     10  C   UNL     1       3.546   6.048  19.156  0.00  0.00    +0.000 C 
ATOM     11  C   UNL     1       2.482   6.802  18.375  0.00  0.00    +0.000 C 
ENDBRANCH   9  10
ENDBRANCH   7   9
ENDBRANCH   1   7
BRANCH   1  12
ATOM     12  C   UNL     1       3.929   2.456  17.872  0.00  0.00    +0.000 C 
BRANCH  12  13
ATOM     13  C   UNL     1       2.949   2.620  19.012  0.00  0.00    +0.000 A 
ATOM     14  C   UNL     1       3.373   2.487  20.339  0.00  0.00    +0.000 A 
ATOM     15  C   UNL     1       2.504   2.777  21.396  0.00  0.00    +0.000 A 
ATOM     16  C   UNL     1       1.196   3.181  21.136  0.00  0.00    +0.000 A 
ATOM     17  C   UNL     1       0.749   3.277  19.823  0.00  0.00    +0.000 A 
ATOM     18  C   UNL     1       1.619   2.999  18.768  0.00  0.00    +0.000 A 
ENDBRANCH  12  13
ENDBRANCH   1  12
TORSDOF 8
ENDMDL
MODEL 9
REMARK VINA RESULT:      -6.3      1.806      4.057
REMARK  Name = 
REMARK  9 active torsions:
REMARK  status: ('A' for Active; 'I' for Inactive)
REMARK    1  A    between atoms: C_2  and  C_3
REMARK    2  A    between atoms: C_3  and  N_4
REMARK    3  A    between atoms: N_4  and  C_5
REMARK    4  A    between atoms: C_5  and  C_6
REMARK    5  A    between atoms: C_5  and  C_13
REMARK    6  A    between atoms: C_6  and  C_7
REMARK    7  A    between atoms: C_13  and  O_15
REMARK    8  A    between atoms: O_15  and  C_16
REMARK    9  A    between atoms: C_16  and  C_17
REMARK                            x       y       z     vdW  Elec       q    Type
REMARK                         _______ _______ _______ _____ _____    ______ ____
ROOT
ATOM      1  C   UNL     1       5.697   4.964  16.213  0.00  0.00    +0.000 C 
ENDROOT
BRANCH   1   2
ATOM      2  N   UNL     1       4.898   6.197  16.026  0.00  0.00    +0.000 NA
ATOM      3  H   UNL     1       5.217   6.670  15.178  0.00  0.00    +0.000 HD
BRANCH   2   4
ATOM      4  C   UNL     1       4.974   7.098  17.151  0.00  0.00    +0.000 C 
BRANCH   4   6
ATOM      5  C   UNL     1       2.397   7.586  18.197  0.00  0.00    +0.000 C 
ATOM      6  C   UNL     1       3.586   7.361  17.713  0.00  0.00    +0.000 C 
ENDBRANCH   4   6
ENDBRANCH   2   4
ENDBRANCH   1   2
BRANCH   1   7
ATOM      7  C   UNL     1       6.562   4.726  14.962  0.00  0.00    +0.000 C 
ATOM      8  O   UNL     1       7.611   5.302  14.722  0.00  0.00    +0.000 OA
BRANCH   7   9
ATOM      9  O   UNL     1       6.069   3.692  14.217  0.00  0.00    +0.000 OA
BRANCH   9  10
ATOM     10  C   UNL     1       6.436   3.733  12.831  0.00  0.00    +0.000 C 
ATOM     11  C   UNL     1       5.330   3.158  11.963  0.00  0.00    +0.000 C 
ENDBRANCH   9  10
ENDBRANCH   7   9
ENDBRANCH   1   7
BRANCH   1  12
ATOM     12  C   UNL     1       4.871   3.708  16.580  0.00  0.00    +0.000 C 
BRANCH  12  13
ATOM     13  C   UNL     1       3.782   3.855  17.620  0.00  0.00    +0.000 A 
ATOM     14  C   UNL     1       2.433   3.819  17.246  0.00  0.00    +0.000 A 
ATOM     15  C   UNL     1       1.427   3.812  18.217  0.00  0.00    +0.000 A 
ATOM     16  C   UNL     1       1.757   3.864  19.569  0.00  0.00    +0.000 A 
ATOM     17  C   UNL     1       3.091   3.942  19.953  0.00  0.00    +0.000 A 
ATOM     18  C   UNL     1       4.097   3.937  18.985  0.00  0.00    +0.000 A 
ENDBRANCH  12  13
ENDBRANCH   1  12
TORSDOF 8
ENDMDL
