MODEL 1
REMARK VINA RESULT:      -7.7      0.000      0.000
REMARK  Name = 
REMARK  6 active torsions:
REMARK  status: ('A' for Active; 'I' for Inactive)
REMARK    1  A    between atoms: C_2  and  C_20
REMARK    2  A    between atoms: N_3  and  C_4
REMARK    3  A    between atoms: C_4  and  C_5
REMARK    4  A    between atoms: C_5  and  N_6
REMARK    5  A    between atoms: C_5  and  C_14
REMARK    6  A    between atoms: C_7  and  C_9
REMARK                            x       y       z     vdW  Elec       q    Type
REMARK                         _______ _______ _______ _____ _____    ______ ____
ROOT
ATOM      1  C   UNL     1       3.240   6.384  18.573  0.00  0.00    +0.000 C 
ENDROOT
BRANCH   1   2
ATOM      2  C   UNL     1       2.367   5.234  19.069  0.00  0.00    +0.000 A 
ATOM      3  C   UNL     1       1.734   4.387  18.144  0.00  0.00    +0.000 A 
ATOM      4  C   UNL     1       1.011   3.270  18.574  0.00  0.00    +0.000 A 
ATOM      5  C   UNL     1       0.893   2.992  19.934  0.00  0.00    +0.000 A 
ATOM      6  C   UNL     1       1.468   3.849  20.865  0.00  0.00    +0.000 A 
ATOM      7  C   UNL     1       2.189   4.966  20.436  0.00  0.00    +0.000 A 
ENDBRANCH   1   2
BRANCH   1   8
ATOM      8  N   UNL     1       4.057   6.005  17.427  0.00  0.00    +0.000 N 
ATOM      9  C   UNL     1       5.278   5.383  17.528  0.00  0.00    +0.000 C 
ATOM     10  O   UNL     1       5.819   5.105  18.591  0.00  0.00    +0.000 OA
ATOM     11  H   UNL     1       3.654   6.055  16.497  0.00  0.00    +0.000 HD
BRANCH   9  12
ATOM     12  C   UNL     1       5.883   5.052  16.237  0.00  0.00    +0.000 A 
ATOM     13  C   UNL     1       5.303   4.169  15.343  0.00  0.00    +0.000 A 
ATOM     14  S   UNL     1       6.267   4.019  13.938  0.00  0.00    +0.000 S 
ATOM     15  C   UNL     1       7.387   5.133  14.611  0.00  0.00    +0.000 A 
ATOM     16  N   UNL     1       7.094   5.607  15.805  0.00  0.00    +0.000 NA
ENDBRANCH   9  12
ENDBRANCH   1   8
BRANCH   1  17
ATOM     17  C   UNL     1       2.448   7.706  18.353  0.00  0.00    +0.000 C 
BRANCH  17  20
ATOM     18  O   UNL     1       1.147  10.207  18.652  0.00  0.00    +0.000 OA
ATOM     19  C   UNL     1       1.166   9.425  19.595  0.00  0.00    +0.000 C 
ATOM     20  N   UNL     1       1.740   8.179  19.532  0.00  0.00    +0.000 N 
ATOM     21  H   UNL     1       1.759   7.636  20.391  0.00  0.00    +0.000 HD
BRANCH  19  22
ATOM     22  C   UNL     1       0.575   9.732  20.898  0.00  0.00    +0.000 A 
ATOM     23  C   UNL     1      -0.331  10.759  21.094  0.00  0.00    +0.000 A 
ATOM     24  S   UNL     1      -0.816  10.818  22.736  0.00  0.00    +0.000 S 
ATOM     25  C   UNL     1       0.208   9.484  23.066  0.00  0.00    +0.000 A 
ATOM     26  N   UNL     1       0.884   8.999  22.048  0.00  0.00    +0.000 NA
ENDBRANCH  19  22
ENDBRANCH  17  20
ENDBRANCH   1  17
TORSDOF 6
ENDMDL
MODEL 2
REMARK VINA RESULT:      -7.6      0.910      1.026
REMARK  Name = 
REMARK  6 active torsions:
REMARK  status: ('A' for Active; 'I' for Inactive)
REMARK    1  A    between atoms: C_2  and  C_20
REMARK    2  A    between atoms: N_3  and  C_4
REMARK    3  A    between atoms: C_4  and  C_5
REMARK    4  A    between atoms: C_5  and  N_6
REMARK    5  A    between atoms: C_5  and  C_14
REMARK    6  A    between atoms: C_7  and  C_9
REMARK                            x       y       z     vdW  Elec       q    Type
REMARK                         _______ _______ _______ _____ _____    ______ ____
ROOT
ATOM      1  C   UNL     1       3.430   6.211  18.365  0.00  0.00    +0.000 C 
ENDROOT
BRANCH   1   2
ATOM      2  C   UNL     1       2.516   5.154  18.978  0.00  0.00    +0.000 A 
ATOM      3  C   UNL     1       1.788   4.289  18.143  0.00  0.00    +0.000 A 
ATOM      4  C   UNL     1       1.022   3.250  18.681  0.00  0.00    +0.000 A 
ATOM      5  C   UNL     1       0.956   3.069  20.061  0.00  0.00    +0.000 A 
ATOM      6  C   UNL     1       1.626   3.948  20.904  0.00  0.00    +0.000 A 
ATOM      7  C   UNL     1       2.390   4.987  20.367  0.00  0.00    +0.000 A 
ENDBRANCH   1   2
BRANCH   1   8
ATOM      8  N   UNL     1       4.148   5.714  17.198  0.00  0.00    +0.000 N 
ATOM      9  C   UNL     1       5.435   6.076  16.879  0.00  0.00    +0.000 C 
ATOM     10  O   UNL     1       6.102   6.874  17.526  0.00  0.00    +0.000 OA
ATOM     11  H   UNL     1       3.754   4.945  16.667  0.00  0.00    +0.000 HD
BRANCH   9  12
ATOM     12  C   UNL     1       5.962   5.403  15.691  0.00  0.00    +0.000 A 
ATOM     13  C   UNL     1       5.240   4.456  14.986  0.00  0.00    +0.000 A 
ATOM     14  S   UNL     1       6.148   3.880  13.656  0.00  0.00    +0.000 S 
ATOM     15  C   UNL     1       7.434   4.923  14.106  0.00  0.00    +0.000 A 
ATOM     16  N   UNL     1       7.236   5.668  15.175  0.00  0.00    +0.000 NA
ENDBRANCH   9  12
ENDBRANCH   1   8
BRANCH   1  17
ATOM     17  C   UNL     1       2.714   7.570  18.113  0.00  0.00    +0.000 C 
BRANCH  17  20
ATOM     18  O   UNL     1       1.084   9.889  18.185  0.00  0.00    +0.000 OA
ATOM     19  C   UNL     1       1.239   9.234  19.209  0.00  0.00    +0.000 C 
ATOM     20  N   UNL     1       1.980   8.079  19.262  0.00  0.00    +0.000 N 
ATOM     21  H   UNL     1       2.098   7.648  20.175  0.00  0.00    +0.000 HD
BRANCH  19  22
ATOM     22  C   UNL     1       0.648   9.609  20.494  0.00  0.00    +0.000 A 
ATOM     23  C   UNL     1       0.739   8.821  21.627  0.00  0.00    +0.000 A 
ATOM     24  S   UNL     1      -0.057   9.576  22.942  0.00  0.00    +0.000 S 
ATOM     25  C   UNL     1      -0.463  10.888  21.917  0.00  0.00    +0.000 A 
ATOM     26  N   UNL     1      -0.053  10.806  20.670  0.00  0.00    +0.000 NA
ENDBRANCH  19  22
ENDBRANCH  17  20
ENDBRANCH   1  17
TORSDOF 6
ENDMDL
MODEL 3
REMARK VINA RESULT:      -7.6      1.337      7.486
REMARK  Name = 
REMARK  6 active torsions:
REMARK  status: ('A' for Active; 'I' for Inactive)
REMARK    1  A    between atoms: C_2  and  C_20
REMARK    2  A    between atoms: N_3  and  C_4
REMARK    3  A    between atoms: C_4  and  C_5
REMARK    4  A    between atoms: C_5  and  N_6
REMARK    5  A    between atoms: C_5  and  C_14
REMARK    6  A    between atoms: C_7  and  C_9
REMARK                            x       y       z     vdW  Elec       q    Type
REMARK                         _______ _______ _______ _____ _____    ______ ____
ROOT
ATOM      1  C   UNL     1       2.673   6.291  18.298  0.00  0.00    +0.000 C 
ENDROOT
BRANCH   1   2
ATOM      2  C   UNL     1       2.091   4.988  18.840  0.00  0.00    +0.000 A 
ATOM      3  C   UNL     1       1.851   4.849  20.218  0.00  0.00    +0.000 A 
ATOM      4  C   UNL     1       1.228   3.705  20.724  0.00  0.00    +0.000 A 
ATOM      5  C   UNL     1       0.852   2.673  19.866  0.00  0.00    +0.000 A 
ATOM      6  C   UNL     1       1.130   2.770  18.507  0.00  0.00    +0.000 A 
ATOM      7  C   UNL     1       1.754   3.913  18.001  0.00  0.00    +0.000 A 
ENDBRANCH   1   2
BRANCH   1   8
ATOM      8  N   UNL     1       2.148   7.462  18.988  0.00  0.00    +0.000 N 
ATOM      9  C   UNL     1       1.936   8.678  18.382  0.00  0.00    +0.000 C 
ATOM     10  O   UNL     1       2.192   8.910  17.207  0.00  0.00    +0.000 OA
ATOM     11  H   UNL     1       1.769   7.355  19.923  0.00  0.00    +0.000 HD
BRANCH   9  12
ATOM     12  C   UNL     1       1.350   9.686  19.267  0.00  0.00    +0.000 A 
ATOM     13  C   UNL     1       0.878   9.387  20.532  0.00  0.00    +0.000 A 
ATOM     14  S   UNL     1       0.269  10.793  21.292  0.00  0.00    +0.000 S 
ATOM     15  C   UNL     1       0.671  11.701  19.892  0.00  0.00    +0.000 A 
ATOM     16  N   UNL     1       1.225  11.032  18.901  0.00  0.00    +0.000 NA
ENDBRANCH   9  12
ENDBRANCH   1   8
BRANCH   1  17
ATOM     17  C   UNL     1       4.227   6.278  18.205  0.00  0.00    +0.000 C 
BRANCH  17  20
ATOM     18  O   UNL     1       6.546   4.701  17.785  0.00  0.00    +0.000 OA
ATOM     19  C   UNL     1       5.897   5.082  16.818  0.00  0.00    +0.000 C 
ATOM     20  N   UNL     1       4.743   5.818  16.924  0.00  0.00    +0.000 N 
ATOM     21  H   UNL     1       4.319   6.139  16.058  0.00  0.00    +0.000 HD
BRANCH  19  22
ATOM     22  C   UNL     1       6.281   4.793  15.435  0.00  0.00    +0.000 A 
ATOM     23  C   UNL     1       5.577   3.924  14.622  0.00  0.00    +0.000 A 
ATOM     24  S   UNL     1       6.305   3.837  13.074  0.00  0.00    +0.000 S 
ATOM     25  C   UNL     1       7.497   4.953  13.594  0.00  0.00    +0.000 A 
ATOM     26  N   UNL     1       7.395   5.384  14.832  0.00  0.00    +0.000 NA
ENDBRANCH  19  22
ENDBRANCH  17  20
ENDBRANCH   1  17
TORSDOF 6
ENDMDL
MODEL 4
REMARK VINA RESULT:      -7.4      1.518      7.577
REMARK  Name = 
REMARK  6 active torsions:
REMARK  status: ('A' for Active; 'I' for Inactive)
REMARK    1  A    between atoms: C_2  and  C_20
REMARK    2  A    between atoms: N_3  and  C_4
REMARK    3  A    between atoms: C_4  and  C_5
REMARK    4  A    between atoms: C_5  and  N_6
REMARK    5  A    between atoms: C_5  and  C_14
REMARK    6  A    between atoms: C_7  and  C_9
REMARK                            x       y       z     vdW  Elec       q    Type
REMARK                         _______ _______ _______ _____ _____    ______ ____
ROOT
ATOM      1  C   UNL     1       3.119   5.979  17.998  0.00  0.00    +0.000 C 
ENDROOT
BRANCH   1   2
ATOM      2  C   UNL     1       2.742   4.579  18.476  0.00  0.00    +0.000 A 
ATOM      3  C   UNL     1       1.496   4.032  18.124  0.00  0.00    +0.000 A 
ATOM      4  C   UNL     1       1.171   2.716  18.466  0.00  0.00    +0.000 A 
ATOM      5  C   UNL     1       2.075   1.932  19.180  0.00  0.00    +0.000 A 
ATOM      6  C   UNL     1       3.289   2.475  19.583  0.00  0.00    +0.000 A 
ATOM      7  C   UNL     1       3.615   3.790  19.243  0.00  0.00    +0.000 A 
ENDBRANCH   1   2
BRANCH   1   8
ATOM      8  N   UNL     1       2.553   7.024  18.842  0.00  0.00    +0.000 N 
ATOM      9  C   UNL     1       2.140   8.248  18.373  0.00  0.00    +0.000 C 
ATOM     10  O   UNL     1       2.229   8.598  17.203  0.00  0.00    +0.000 OA
ATOM     11  H   UNL     1       2.300   6.801  19.799  0.00  0.00    +0.000 HD
BRANCH   9  12
ATOM     12  C   UNL     1       1.554   9.109  19.402  0.00  0.00    +0.000 A 
ATOM     13  C   UNL     1       1.200  10.425  19.162  0.00  0.00    +0.000 A 
ATOM     14  S   UNL     1       0.541  11.134  20.573  0.00  0.00    +0.000 S 
ATOM     15  C   UNL     1       0.774   9.650  21.404  0.00  0.00    +0.000 A 
ATOM     16  N   UNL     1       1.305   8.666  20.707  0.00  0.00    +0.000 NA
ENDBRANCH   9  12
ENDBRANCH   1   8
BRANCH   1  17
ATOM     17  C   UNL     1       4.645   6.153  17.746  0.00  0.00    +0.000 C 
BRANCH  17  20
ATOM     18  O   UNL     1       7.338   5.773  16.944  0.00  0.00    +0.000 OA
ATOM     19  C   UNL     1       6.436   5.498  16.162  0.00  0.00    +0.000 C 
ATOM     20  N   UNL     1       5.103   5.615  16.474  0.00  0.00    +0.000 N 
ATOM     21  H   UNL     1       4.437   5.424  15.731  0.00  0.00    +0.000 HD
BRANCH  19  22
ATOM     22  C   UNL     1       6.678   5.011  14.803  0.00  0.00    +0.000 A 
ATOM     23  C   UNL     1       5.895   4.046  14.196  0.00  0.00    +0.000 A 
ATOM     24  S   UNL     1       6.463   3.732  12.611  0.00  0.00    +0.000 S 
ATOM     25  C   UNL     1       7.701   4.893  12.845  0.00  0.00    +0.000 A 
ATOM     26  N   UNL     1       7.725   5.496  14.014  0.00  0.00    +0.000 NA
ENDBRANCH  19  22
ENDBRANCH  17  20
ENDBRANCH   1  17
TORSDOF 6
ENDMDL
MODEL 5
REMARK VINA RESULT:      -7.4      1.122      1.558
REMARK  Name = 
REMARK  6 active torsions:
REMARK  status: ('A' for Active; 'I' for Inactive)
REMARK    1  A    between atoms: C_2  and  C_20
REMARK    2  A    between atoms: N_3  and  C_4
REMARK    3  A    between atoms: C_4  and  C_5
REMARK    4  A    between atoms: C_5  and  N_6
REMARK    5  A    between atoms: C_5  and  C_14
REMARK    6  A    between atoms: C_7  and  C_9
REMARK                            x       y       z     vdW  Elec       q    Type
REMARK                         _______ _______ _______ _____ _____    ______ ____
ROOT
ATOM      1  C   UNL     1       3.641   6.149  18.146  0.00  0.00    +0.000 C 
ENDROOT
BRANCH   1   2
ATOM      2  C   UNL     1       2.758   5.108  18.828  0.00  0.00    +0.000 A 
ATOM      3  C   UNL     1       2.788   4.975  20.227  0.00  0.00    +0.000 A 
ATOM      4  C   UNL     1       1.917   4.098  20.881  0.00  0.00    +0.000 A 
ATOM      5  C   UNL     1       1.016   3.328  20.148  0.00  0.00    +0.000 A 
ATOM      6  C   UNL     1       1.010   3.408  18.761  0.00  0.00    +0.000 A 
ATOM      7  C   UNL     1       1.881   4.282  18.106  0.00  0.00    +0.000 A 
ENDBRANCH   1   2
BRANCH   1   8
ATOM      8  N   UNL     1       4.317   5.618  16.969  0.00  0.00    +0.000 N 
ATOM      9  C   UNL     1       5.490   6.124  16.464  0.00  0.00    +0.000 C 
ATOM     10  O   UNL     1       6.076   7.092  16.935  0.00  0.00    +0.000 OA
ATOM     11  H   UNL     1       4.005   4.735  16.578  0.00  0.00    +0.000 HD
BRANCH   9  12
ATOM     12  C   UNL     1       6.005   5.388  15.309  0.00  0.00    +0.000 A 
ATOM     13  C   UNL     1       5.249   4.458  14.617  0.00  0.00    +0.000 A 
ATOM     14  S   UNL     1       6.152   3.795  13.324  0.00  0.00    +0.000 S 
ATOM     15  C   UNL     1       7.482   4.784  13.771  0.00  0.00    +0.000 A 
ATOM     16  N   UNL     1       7.302   5.571  14.812  0.00  0.00    +0.000 NA
ENDBRANCH   9  12
ENDBRANCH   1   8
BRANCH   1  17
ATOM     17  C   UNL     1       2.908   7.496  17.877  0.00  0.00    +0.000 C 
BRANCH  17  20
ATOM     18  O   UNL     1       1.155   9.725  17.897  0.00  0.00    +0.000 OA
ATOM     19  C   UNL     1       1.379   9.129  18.944  0.00  0.00    +0.000 C 
ATOM     20  N   UNL     1       2.184   8.019  19.025  0.00  0.00    +0.000 N 
ATOM     21  H   UNL     1       2.355   7.640  19.953  0.00  0.00    +0.000 HD
BRANCH  19  22
ATOM     22  C   UNL     1       0.808   9.533  20.230  0.00  0.00    +0.000 A 
ATOM     23  C   UNL     1       0.796   8.712  21.343  0.00  0.00    +0.000 A 
ATOM     24  S   UNL     1       0.062   9.515  22.666  0.00  0.00    +0.000 S 
ATOM     25  C   UNL     1      -0.185  10.888  21.670  0.00  0.00    +0.000 A 
ATOM     26  N   UNL     1       0.235  10.793  20.427  0.00  0.00    +0.000 NA
ENDBRANCH  19  22
ENDBRANCH  17  20
ENDBRANCH   1  17
TORSDOF 6
ENDMDL
MODEL 6
REMARK VINA RESULT:      -7.4      1.203      7.379
REMARK  Name = 
REMARK  6 active torsions:
REMARK  status: ('A' for Active; 'I' for Inactive)
REMARK    1  A    between atoms: C_2  and  C_20
REMARK    2  A    between atoms: N_3  and  C_4
REMARK    3  A    between atoms: C_4  and  C_5
REMARK    4  A    between atoms: C_5  and  N_6
REMARK    5  A    between atoms: C_5  and  C_14
REMARK    6  A    between atoms: C_7  and  C_9
REMARK                            x       y       z     vdW  Elec       q    Type
REMARK                         _______ _______ _______ _____ _____    ______ ____
ROOT
ATOM      1  C   UNL     1       2.658   6.388  18.454  0.00  0.00    +0.000 C 
ENDROOT
BRANCH   1   2
ATOM      2  C   UNL     1       1.997   5.105  18.949  0.00  0.00    +0.000 A 
ATOM      3  C   UNL     1       1.639   4.103  18.031  0.00  0.00    +0.000 A 
ATOM      4  C   UNL     1       1.124   2.880  18.471  0.00  0.00    +0.000 A 
ATOM      5  C   UNL     1       0.941   2.645  19.832  0.00  0.00    +0.000 A 
ATOM      6  C   UNL     1       1.239   3.644  20.751  0.00  0.00    +0.000 A 
ATOM      7  C   UNL     1       1.752   4.867  20.312  0.00  0.00    +0.000 A 
ENDBRANCH   1   2
BRANCH   1   8
ATOM      8  N   UNL     1       2.108   7.578  19.092  0.00  0.00    +0.000 N 
ATOM      9  C   UNL     1       1.879   8.763  18.436  0.00  0.00    +0.000 C 
ATOM     10  O   UNL     1       2.139   8.952  17.254  0.00  0.00    +0.000 OA
ATOM     11  H   UNL     1       1.725   7.502  20.028  0.00  0.00    +0.000 HD
BRANCH   9  12
ATOM     12  C   UNL     1       1.270   9.796  19.275  0.00  0.00    +0.000 A 
ATOM     13  C   UNL     1       1.212  11.127  18.899  0.00  0.00    +0.000 A 
ATOM     14  S   UNL     1       0.430  12.056  20.104  0.00  0.00    +0.000 S 
ATOM     15  C   UNL     1       0.225  10.632  21.041  0.00  0.00    +0.000 A 
ATOM     16  N   UNL     1       0.696   9.517  20.521  0.00  0.00    +0.000 NA
ENDBRANCH   9  12
ENDBRANCH   1   8
BRANCH   1  17
ATOM     17  C   UNL     1       4.213   6.334  18.493  0.00  0.00    +0.000 C 
BRANCH  17  20
ATOM     18  O   UNL     1       5.036   3.767  17.615  0.00  0.00    +0.000 OA
ATOM     19  C   UNL     1       5.226   4.737  16.891  0.00  0.00    +0.000 C 
ATOM     20  N   UNL     1       4.830   6.011  17.216  0.00  0.00    +0.000 N 
ATOM     21  H   UNL     1       5.094   6.754  16.574  0.00  0.00    +0.000 HD
BRANCH  19  22
ATOM     22  C   UNL     1       5.897   4.645  15.593  0.00  0.00    +0.000 A 
ATOM     23  C   UNL     1       5.432   3.856  14.557  0.00  0.00    +0.000 A 
ATOM     24  S   UNL     1       6.458   4.003  13.193  0.00  0.00    +0.000 S 
ATOM     25  C   UNL     1       7.440   5.096  14.073  0.00  0.00    +0.000 A 
ATOM     26  N   UNL     1       7.063   5.360  15.306  0.00  0.00    +0.000 NA
ENDBRANCH  19  22
ENDBRANCH  17  20
ENDBRANCH   1  17
TORSDOF 6
ENDMDL
MODEL 7
REMARK VINA RESULT:      -7.2      2.466      3.105
REMARK  Name = 
REMARK  6 active torsions:
REMARK  status: ('A' for Active; 'I' for Inactive)
REMARK    1  A    between atoms: C_2  and  C_20
REMARK    2  A    between atoms: N_3  and  C_4
REMARK    3  A    between atoms: C_4  and  C_5
REMARK    4  A    between atoms: C_5  and  N_6
REMARK    5  A    between atoms: C_5  and  C_14
REMARK    6  A    between atoms: C_7  and  C_9
REMARK                            x       y       z     vdW  Elec       q    Type
REMARK                         _______ _______ _______ _____ _____    ______ ____
ROOT
ATOM      1  C   UNL     1       5.118   4.010  18.375  0.00  0.00    +0.000 C 
ENDROOT
BRANCH   1   2
ATOM      2  C   UNL     1       3.712   3.452  18.578  0.00  0.00    +0.000 A 
ATOM      3  C   UNL     1       3.409   2.727  19.743  0.00  0.00    +0.000 A 
ATOM      4  C   UNL     1       2.104   2.291  19.996  0.00  0.00    +0.000 A 
ATOM      5  C   UNL     1       1.087   2.556  19.081  0.00  0.00    +0.000 A 
ATOM      6  C   UNL     1       1.380   3.224  17.898  0.00  0.00    +0.000 A 
ATOM      7  C   UNL     1       2.683   3.658  17.644  0.00  0.00    +0.000 A 
ENDBRANCH   1   2
BRANCH   1   8
ATOM      8  N   UNL     1       5.480   4.106  16.967  0.00  0.00    +0.000 N 
ATOM      9  C   UNL     1       6.731   4.454  16.518  0.00  0.00    +0.000 C 
ATOM     10  O   UNL     1       7.665   4.745  17.255  0.00  0.00    +0.000 OA
ATOM     11  H   UNL     1       4.835   3.753  16.267  0.00  0.00    +0.000 HD
BRANCH   9  12
ATOM     12  C   UNL     1       6.867   4.427  15.062  0.00  0.00    +0.000 A 
ATOM     13  C   UNL     1       6.135   3.572  14.258  0.00  0.00    +0.000 A 
ATOM     14  S   UNL     1       6.534   3.808  12.611  0.00  0.00    +0.000 S 
ATOM     15  C   UNL     1       7.652   5.025  13.077  0.00  0.00    +0.000 A 
ATOM     16  N   UNL     1       7.748   5.267  14.369  0.00  0.00    +0.000 NA
ENDBRANCH   9  12
ENDBRANCH   1   8
BRANCH   1  17
ATOM     17  C   UNL     1       5.377   5.326  19.166  0.00  0.00    +0.000 C 
BRANCH  17  20
ATOM     18  O   UNL     1       4.439   6.996  17.076  0.00  0.00    +0.000 OA
ATOM     19  C   UNL     1       3.873   7.020  18.162  0.00  0.00    +0.000 C 
ATOM     20  N   UNL     1       4.233   6.222  19.221  0.00  0.00    +0.000 N 
ATOM     21  H   UNL     1       3.740   6.369  20.097  0.00  0.00    +0.000 HD
BRANCH  19  22
ATOM     22  C   UNL     1       2.744   7.905  18.454  0.00  0.00    +0.000 A 
ATOM     23  C   UNL     1       2.058   7.884  19.655  0.00  0.00    +0.000 A 
ATOM     24  S   UNL     1       0.811   9.057  19.647  0.00  0.00    +0.000 S 
ATOM     25  C   UNL     1       1.268   9.505  18.058  0.00  0.00    +0.000 A 
ATOM     26  N   UNL     1       2.277   8.846  17.531  0.00  0.00    +0.000 NA
ENDBRANCH  19  22
ENDBRANCH  17  20
ENDBRANCH   1  17
TORSDOF 6
ENDMDL
MODEL 8
REMARK VINA RESULT:      -7.2      1.105      7.270
REMARK  Name = 
REMARK  6 active torsions:
REMARK  status: ('A' for Active; 'I' for Inactive)
REMARK    1  A    between atoms: C_2  and  C_20
REMARK    2  A    between atoms: N_3  and  C_4
REMARK    3  A    between atoms: C_4  and  C_5
REMARK    4  A    between atoms: C_5  and  N_6
REMARK    5  A    between atoms: C_5  and  C_14
REMARK    6  A    between atoms: C_7  and  C_9
REMARK                            x       y       z     vdW  Elec       q    Type
REMARK                         _______ _______ _______ _____ _____    ______ ____
ROOT
ATOM      1  C   UNL     1       2.826   5.963  19.267  0.00  0.00    +0.000 C 
ENDROOT
BRANCH   1   2
ATOM      2  C   UNL     1       2.167   4.597  19.433  0.00  0.00    +0.000 A 
ATOM      3  C   UNL     1       1.945   4.079  20.721  0.00  0.00    +0.000 A 
ATOM      4  C   UNL     1       1.254   2.877  20.899  0.00  0.00    +0.000 A 
ATOM      5  C   UNL     1       0.791   2.163  19.796  0.00  0.00    +0.000 A 
ATOM      6  C   UNL     1       1.049   2.633  18.513  0.00  0.00    +0.000 A 
ATOM      7  C   UNL     1       1.740   3.833  18.334  0.00  0.00    +0.000 A 
ENDBRANCH   1   2
BRANCH   1   8
ATOM      8  N   UNL     1       2.208   6.983  20.105  0.00  0.00    +0.000 N 
ATOM      9  C   UNL     1       1.748   8.188  19.632  0.00  0.00    +0.000 C 
ATOM     10  O   UNL     1       1.834   8.542  18.462  0.00  0.00    +0.000 OA
ATOM     11  H   UNL     1       1.956   6.750  21.059  0.00  0.00    +0.000 HD
BRANCH   9  12
ATOM     12  C   UNL     1       1.117   9.024  20.654  0.00  0.00    +0.000 A 
ATOM     13  C   UNL     1       0.473  10.211  20.357  0.00  0.00    +0.000 A 
ATOM     14  S   UNL     1      -0.155  10.925  21.779  0.00  0.00    +0.000 S 
ATOM     15  C   UNL     1       0.472   9.613  22.691  0.00  0.00    +0.000 A 
ATOM     16  N   UNL     1       1.114   8.683  22.013  0.00  0.00    +0.000 NA
ENDBRANCH   9  12
ENDBRANCH   1   8
BRANCH   1  17
ATOM     17  C   UNL     1       4.377   5.917  19.398  0.00  0.00    +0.000 C 
BRANCH  17  20
ATOM     18  O   UNL     1       4.526   7.252  16.901  0.00  0.00    +0.000 OA
ATOM     19  C   UNL     1       5.051   6.152  17.025  0.00  0.00    +0.000 C 
ATOM     20  N   UNL     1       5.062   5.447  18.204  0.00  0.00    +0.000 N 
ATOM     21  H   UNL     1       5.468   4.516  18.181  0.00  0.00    +0.000 HD
BRANCH  19  22
ATOM     22  C   UNL     1       5.731   5.464  15.926  0.00  0.00    +0.000 A 
ATOM     23  C   UNL     1       5.116   4.509  15.137  0.00  0.00    +0.000 A 
ATOM     24  S   UNL     1       6.205   3.929  13.949  0.00  0.00    +0.000 S 
ATOM     25  C   UNL     1       7.409   4.981  14.567  0.00  0.00    +0.000 A 
ATOM     26  N   UNL     1       7.062   5.730  15.591  0.00  0.00    +0.000 NA
ENDBRANCH  19  22
ENDBRANCH  17  20
ENDBRANCH   1  17
TORSDOF 6
ENDMDL
MODEL 9
REMARK VINA RESULT:      -7.2      2.583      3.111
REMARK  Name = 
REMARK  6 active torsions:
REMARK  status: ('A' for Active; 'I' for Inactive)
REMARK    1  A    between atoms: C_2  and  C_20
REMARK    2  A    between atoms: N_3  and  C_4
REMARK    3  A    between atoms: C_4  and  C_5
REMARK    4  A    between atoms: C_5  and  N_6
REMARK    5  A    between atoms: C_5  and  C_14
REMARK    6  A    between atoms: C_7  and  C_9
REMARK                            x       y       z     vdW  Elec       q    Type
REMARK                         _______ _______ _______ _____ _____    ______ ____
ROOT
ATOM      1  C   UNL     1       5.312   4.084  18.220  0.00  0.00    +0.000 C 
ENDROOT
BRANCH   1   2
ATOM      2  C   UNL     1       3.943   3.472  18.500  0.00  0.00    +0.000 A 
ATOM      3  C   UNL     1       2.967   3.451  17.488  0.00  0.00    +0.000 A 
ATOM      4  C   UNL     1       1.741   2.808  17.690  0.00  0.00    +0.000 A 
ATOM      5  C   UNL     1       1.464   2.193  18.909  0.00  0.00    +0.000 A 
ATOM      6  C   UNL     1       2.396   2.251  19.938  0.00  0.00    +0.000 A 
ATOM      7  C   UNL     1       3.620   2.894  19.738  0.00  0.00    +0.000 A 
ENDBRANCH   1   2
BRANCH   1   8
ATOM      8  N   UNL     1       5.595   4.183  16.793  0.00  0.00    +0.000 N 
ATOM      9  C   UNL     1       6.845   4.420  16.274  0.00  0.00    +0.000 C 
ATOM     10  O   UNL     1       7.846   4.600  16.956  0.00  0.00    +0.000 OA
ATOM     11  H   UNL     1       4.877   3.914  16.129  0.00  0.00    +0.000 HD
BRANCH   9  12
ATOM     12  C   UNL     1       6.888   4.421  14.811  0.00  0.00    +0.000 A 
ATOM     13  C   UNL     1       6.126   3.562  14.040  0.00  0.00    +0.000 A 
ATOM     14  S   UNL     1       6.414   3.835  12.376  0.00  0.00    +0.000 S 
ATOM     15  C   UNL     1       7.531   5.070  12.792  0.00  0.00    +0.000 A 
ATOM     16  N   UNL     1       7.704   5.293  14.079  0.00  0.00    +0.000 NA
ENDBRANCH   9  12
ENDBRANCH   1   8
BRANCH   1  17
ATOM     17  C   UNL     1       5.560   5.415  18.989  0.00  0.00    +0.000 C 
BRANCH  17  20
ATOM     18  O   UNL     1       4.403   6.915  16.879  0.00  0.00    +0.000 OA
ATOM     19  C   UNL     1       3.922   6.993  18.003  0.00  0.00    +0.000 C 
ATOM     20  N   UNL     1       4.391   6.277  19.077  0.00  0.00    +0.000 N 
ATOM     21  H   UNL     1       3.962   6.464  19.979  0.00  0.00    +0.000 HD
BRANCH  19  22
ATOM     22  C   UNL     1       2.787   7.858  18.328  0.00  0.00    +0.000 A 
ATOM     23  C   UNL     1       2.145   7.835  19.553  0.00  0.00    +0.000 A 
ATOM     24  S   UNL     1       0.876   8.984  19.580  0.00  0.00    +0.000 S 
ATOM     25  C   UNL     1       1.268   9.427  17.972  0.00  0.00    +0.000 A 
ATOM     26  N   UNL     1       2.271   8.783  17.415  0.00  0.00    +0.000 NA
ENDBRANCH  19  22
ENDBRANCH  17  20
ENDBRANCH   1  17
TORSDOF 6
ENDMDL
