MODEL 1
REMARK VINA RESULT:      -7.1      0.000      0.000
REMARK  Name = 
REMARK  2 active torsions:
REMARK  status: ('A' for Active; 'I' for Inactive)
REMARK    1  A    between atoms: N_3  and  C_4
REMARK    2  A    between atoms: C_4  and  C_5
REMARK                            x       y       z     vdW  Elec       q    Type
REMARK                         _______ _______ _______ _____ _____    ______ ____
ROOT
ATOM      1  O   UNL     1       4.853   2.492  20.030  0.00  0.00    +0.000 OA
ATOM      2  C   UNL     1       4.978   3.360  19.166  0.00  0.00    +0.000 C 
ATOM      3  N   UNL     1       4.131   3.491  18.111  0.00  0.00    +0.000 N 
ATOM      4  N   UNL     1       6.034   4.212  19.244  0.00  0.00    +0.000 N 
ATOM      5  C   UNL     1       6.264   5.284  18.438  0.00  0.00    +0.000 A 
ATOM      6  N   UNL     1       5.503   5.790  17.495  0.00  0.00    +0.000 NA
ATOM      7  N   UNL     1       6.093   6.891  16.901  0.00  0.00    +0.000 NA
ATOM      8  C   UNL     1       7.284   7.136  17.407  0.00  0.00    +0.000 A 
ATOM      9  S   UNL     1       7.755   6.073  18.672  0.00  0.00    +0.000 S 
ATOM     10  H   UNL     1       4.360   4.180  17.403  0.00  0.00    +0.000 HD
ATOM     11  H   UNL     1       6.692   4.019  19.984  0.00  0.00    +0.000 HD
ENDROOT
BRANCH   3  12
ATOM     12  C   UNL     1       3.068   2.548  17.827  0.00  0.00    +0.000 C 
BRANCH  12  13
ATOM     13  C   UNL     1       1.689   3.228  17.805  0.00  0.00    +0.000 C 
ATOM     14  C   UNL     1       1.771   4.738  18.080  0.00  0.00    +0.000 C 
ATOM     15  C   UNL     1       2.127   5.035  19.536  0.00  0.00    +0.000 C 
ATOM     16  N   UNL     1       1.172   4.417  20.460  0.00  0.00    +0.000 NA
ATOM     17  C   UNL     1       1.095   2.968  20.271  0.00  0.00    +0.000 C 
ATOM     18  C   UNL     1       0.740   2.587  18.832  0.00  0.00    +0.000 C 
ATOM     19  H   UNL     1       0.252   4.824  20.299  0.00  0.00    +0.000 HD
ENDBRANCH  12  13
ENDBRANCH   3  12
TORSDOF 2
ENDMDL
MODEL 2
REMARK VINA RESULT:      -7.0      1.962      2.869
REMARK  Name = 
REMARK  2 active torsions:
REMARK  status: ('A' for Active; 'I' for Inactive)
REMARK    1  A    between atoms: N_3  and  C_4
REMARK    2  A    between atoms: C_4  and  C_5
REMARK                            x       y       z     vdW  Elec       q    Type
REMARK                         _______ _______ _______ _____ _____    ______ ____
ROOT
ATOM      1  O   UNL     1       2.395   5.747  17.903  0.00  0.00    +0.000 OA
ATOM      2  C   UNL     1       3.419   5.645  18.578  0.00  0.00    +0.000 C 
ATOM      3  N   UNL     1       3.420   5.244  19.877  0.00  0.00    +0.000 N 
ATOM      4  N   UNL     1       4.609   5.983  18.015  0.00  0.00    +0.000 N 
ATOM      5  C   UNL     1       5.838   5.836  18.581  0.00  0.00    +0.000 A 
ATOM      6  N   UNL     1       6.163   5.263  19.718  0.00  0.00    +0.000 NA
ATOM      7  N   UNL     1       7.527   5.315  19.940  0.00  0.00    +0.000 NA
ATOM      8  C   UNL     1       8.154   5.952  18.973  0.00  0.00    +0.000 A 
ATOM      9  S   UNL     1       7.137   6.499  17.701  0.00  0.00    +0.000 S 
ATOM     10  H   UNL     1       4.301   5.272  20.380  0.00  0.00    +0.000 HD
ATOM     11  H   UNL     1       4.553   6.369  17.085  0.00  0.00    +0.000 HD
ENDROOT
BRANCH   3  12
ATOM     12  C   UNL     1       2.208   5.015  20.636  0.00  0.00    +0.000 C 
BRANCH  12  13
ATOM     13  C   UNL     1       2.111   3.563  21.137  0.00  0.00    +0.000 C 
ATOM     14  C   UNL     1       3.305   2.705  20.690  0.00  0.00    +0.000 C 
ATOM     15  C   UNL     1       3.269   2.412  19.191  0.00  0.00    +0.000 C 
ATOM     16  N   UNL     1       2.017   1.756  18.801  0.00  0.00    +0.000 NA
ATOM     17  C   UNL     1       0.849   2.560  19.161  0.00  0.00    +0.000 C 
ATOM     18  C   UNL     1       0.812   2.898  20.653  0.00  0.00    +0.000 C 
ATOM     19  H   UNL     1       1.959   0.854  19.273  0.00  0.00    +0.000 HD
ENDBRANCH  12  13
ENDBRANCH   3  12
TORSDOF 2
ENDMDL
MODEL 3
REMARK VINA RESULT:      -6.8      1.845      2.414
REMARK  Name = 
REMARK  2 active torsions:
REMARK  status: ('A' for Active; 'I' for Inactive)
REMARK    1  A    between atoms: N_3  and  C_4
REMARK    2  A    between atoms: C_4  and  C_5
REMARK                            x       y       z     vdW  Elec       q    Type
REMARK                         _______ _______ _______ _____ _____    ______ ____
ROOT
ATOM      1  O   UNL     1       5.230   3.115  19.855  0.00  0.00    +0.000 OA
ATOM      2  C   UNL     1       5.031   3.884  18.915  0.00  0.00    +0.000 C 
ATOM      3  N   UNL     1       4.064   4.839  18.924  0.00  0.00    +0.000 N 
ATOM      4  N   UNL     1       5.788   3.754  17.794  0.00  0.00    +0.000 N 
ATOM      5  C   UNL     1       5.769   4.577  16.710  0.00  0.00    +0.000 A 
ATOM      6  N   UNL     1       5.115   5.704  16.537  0.00  0.00    +0.000 NA
ATOM      7  N   UNL     1       5.362   6.247  15.290  0.00  0.00    +0.000 NA
ATOM      8  C   UNL     1       6.164   5.485  14.577  0.00  0.00    +0.000 A 
ATOM      9  S   UNL     1       6.712   4.071  15.385  0.00  0.00    +0.000 S 
ATOM     10  H   UNL     1       3.915   5.370  18.072  0.00  0.00    +0.000 HD
ATOM     11  H   UNL     1       6.424   2.971  17.790  0.00  0.00    +0.000 HD
ENDROOT
BRANCH   3  12
ATOM     12  C   UNL     1       3.089   4.969  19.988  0.00  0.00    +0.000 C 
BRANCH  12  13
ATOM     13  C   UNL     1       1.653   4.759  19.479  0.00  0.00    +0.000 C 
ATOM     14  C   UNL     1       0.867   3.751  20.331  0.00  0.00    +0.000 C 
ATOM     15  C   UNL     1       1.370   2.321  20.136  0.00  0.00    +0.000 C 
ATOM     16  N   UNL     1       1.317   1.921  18.727  0.00  0.00    +0.000 NA
ATOM     17  C   UNL     1       2.095   2.824  17.878  0.00  0.00    +0.000 C 
ATOM     18  C   UNL     1       1.650   4.281  18.017  0.00  0.00    +0.000 C 
ATOM     19  H   UNL     1       0.346   1.930  18.420  0.00  0.00    +0.000 HD
ENDBRANCH  12  13
ENDBRANCH   3  12
TORSDOF 2
ENDMDL
MODEL 4
REMARK VINA RESULT:      -6.7      1.995      2.017
REMARK  Name = 
REMARK  2 active torsions:
REMARK  status: ('A' for Active; 'I' for Inactive)
REMARK    1  A    between atoms: N_3  and  C_4
REMARK    2  A    between atoms: C_4  and  C_5
REMARK                            x       y       z     vdW  Elec       q    Type
REMARK                         _______ _______ _______ _____ _____    ______ ____
ROOT
ATOM      1  O   UNL     1       5.305   3.839  19.657  0.00  0.00    +0.000 OA
ATOM      2  C   UNL     1       5.202   3.720  18.437  0.00  0.00    +0.000 C 
ATOM      3  N   UNL     1       4.231   2.982  17.838  0.00  0.00    +0.000 N 
ATOM      4  N   UNL     1       6.123   4.326  17.642  0.00  0.00    +0.000 N 
ATOM      5  C   UNL     1       6.100   4.381  16.282  0.00  0.00    +0.000 A 
ATOM      6  N   UNL     1       5.171   3.967  15.451  0.00  0.00    +0.000 NA
ATOM      7  N   UNL     1       5.522   4.207  14.135  0.00  0.00    +0.000 NA
ATOM      8  C   UNL     1       6.713   4.761  14.043  0.00  0.00    +0.000 A 
ATOM      9  S   UNL     1       7.476   5.070  15.551  0.00  0.00    +0.000 S 
ATOM     10  H   UNL     1       4.274   2.870  16.830  0.00  0.00    +0.000 HD
ATOM     11  H   UNL     1       6.881   4.780  18.127  0.00  0.00    +0.000 HD
ENDROOT
BRANCH   3  12
ATOM     12  C   UNL     1       3.293   2.159  18.575  0.00  0.00    +0.000 C 
BRANCH  12  13
ATOM     13  C   UNL     1       1.835   2.563  18.298  0.00  0.00    +0.000 C 
ATOM     14  C   UNL     1       1.670   4.078  18.103  0.00  0.00    +0.000 C 
ATOM     15  C   UNL     1       1.855   4.846  19.411  0.00  0.00    +0.000 C 
ATOM     16  N   UNL     1       0.928   4.379  20.445  0.00  0.00    +0.000 NA
ATOM     17  C   UNL     1       1.082   2.947  20.704  0.00  0.00    +0.000 C 
ATOM     18  C   UNL     1       0.910   2.105  19.438  0.00  0.00    +0.000 C 
ATOM     19  H   UNL     1      -0.026   4.561  20.136  0.00  0.00    +0.000 HD
ENDBRANCH  12  13
ENDBRANCH   3  12
TORSDOF 2
ENDMDL
MODEL 5
REMARK VINA RESULT:      -6.7      1.493      1.564
REMARK  Name = 
REMARK  2 active torsions:
REMARK  status: ('A' for Active; 'I' for Inactive)
REMARK    1  A    between atoms: N_3  and  C_4
REMARK    2  A    between atoms: C_4  and  C_5
REMARK                            x       y       z     vdW  Elec       q    Type
REMARK                         _______ _______ _______ _____ _____    ______ ____
ROOT
ATOM      1  O   UNL     1       4.816   2.701  20.191  0.00  0.00    +0.000 OA
ATOM      2  C   UNL     1       4.747   3.054  19.014  0.00  0.00    +0.000 C 
ATOM      3  N   UNL     1       3.659   2.833  18.230  0.00  0.00    +0.000 N 
ATOM      4  N   UNL     1       5.824   3.664  18.451  0.00  0.00    +0.000 N 
ATOM      5  C   UNL     1       5.882   4.203  17.203  0.00  0.00    +0.000 A 
ATOM      6  N   UNL     1       4.923   4.348  16.317  0.00  0.00    +0.000 NA
ATOM      7  N   UNL     1       5.386   4.949  15.161  0.00  0.00    +0.000 NA
ATOM      8  C   UNL     1       6.677   5.197  15.225  0.00  0.00    +0.000 A 
ATOM      9  S   UNL     1       7.417   4.756  16.712  0.00  0.00    +0.000 S 
ATOM     10  H   UNL     1       3.725   3.081  17.248  0.00  0.00    +0.000 HD
ATOM     11  H   UNL     1       6.644   3.719  19.036  0.00  0.00    +0.000 HD
ENDROOT
BRANCH   3  12
ATOM     12  C   UNL     1       2.518   2.051  18.662  0.00  0.00    +0.000 C 
BRANCH  12  13
ATOM     13  C   UNL     1       1.226   2.886  18.681  0.00  0.00    +0.000 C 
ATOM     14  C   UNL     1       1.391   4.244  17.980  0.00  0.00    +0.000 C 
ATOM     15  C   UNL     1       2.270   5.200  18.786  0.00  0.00    +0.000 C 
ATOM     16  N   UNL     1       1.743   5.404  20.138  0.00  0.00    +0.000 NA
ATOM     17  C   UNL     1       1.615   4.141  20.866  0.00  0.00    +0.000 C 
ATOM     18  C   UNL     1       0.745   3.126  20.121  0.00  0.00    +0.000 C 
ATOM     19  H   UNL     1       0.827   5.844  20.069  0.00  0.00    +0.000 HD
ENDBRANCH  12  13
ENDBRANCH   3  12
TORSDOF 2
ENDMDL
MODEL 6
REMARK VINA RESULT:      -6.7      3.502      5.523
REMARK  Name = 
REMARK  2 active torsions:
REMARK  status: ('A' for Active; 'I' for Inactive)
REMARK    1  A    between atoms: N_3  and  C_4
REMARK    2  A    between atoms: C_4  and  C_5
REMARK                            x       y       z     vdW  Elec       q    Type
REMARK                         _______ _______ _______ _____ _____    ______ ____
ROOT
ATOM      1  O   UNL     1       3.387   4.634  20.021  0.00  0.00    +0.000 OA
ATOM      2  C   UNL     1       3.062   5.714  19.529  0.00  0.00    +0.000 C 
ATOM      3  N   UNL     1       3.367   6.075  18.255  0.00  0.00    +0.000 N 
ATOM      4  N   UNL     1       2.396   6.610  20.303  0.00  0.00    +0.000 N 
ATOM      5  C   UNL     1       1.876   7.800  19.892  0.00  0.00    +0.000 A 
ATOM      6  N   UNL     1       1.810   8.299  18.679  0.00  0.00    +0.000 NA
ATOM      7  N   UNL     1       1.202   9.541  18.674  0.00  0.00    +0.000 NA
ATOM      8  C   UNL     1       0.871   9.926  19.889  0.00  0.00    +0.000 A 
ATOM      9  S   UNL     1       1.236   8.787  21.123  0.00  0.00    +0.000 S 
ATOM     10  H   UNL     1       3.133   7.018  17.961  0.00  0.00    +0.000 HD
ATOM     11  H   UNL     1       2.277   6.344  21.269  0.00  0.00    +0.000 HD
ENDROOT
BRANCH   3  12
ATOM     12  C   UNL     1       4.211   5.280  17.386  0.00  0.00    +0.000 C 
BRANCH  12  13
ATOM     13  C   UNL     1       5.270   6.138  16.673  0.00  0.00    +0.000 C 
ATOM     14  C   UNL     1       5.752   5.508  15.358  0.00  0.00    +0.000 C 
ATOM     15  C   UNL     1       6.614   4.269  15.599  0.00  0.00    +0.000 C 
ATOM     16  N   UNL     1       7.767   4.574  16.450  0.00  0.00    +0.000 NA
ATOM     17  C   UNL     1       7.357   5.132  17.739  0.00  0.00    +0.000 C 
ATOM     18  C   UNL     1       6.486   6.381  17.582  0.00  0.00    +0.000 C 
ATOM     19  H   UNL     1       8.360   5.249  15.969  0.00  0.00    +0.000 HD
ENDBRANCH  12  13
ENDBRANCH   3  12
TORSDOF 2
ENDMDL
MODEL 7
REMARK VINA RESULT:      -6.6      3.387      3.923
REMARK  Name = 
REMARK  2 active torsions:
REMARK  status: ('A' for Active; 'I' for Inactive)
REMARK    1  A    between atoms: N_3  and  C_4
REMARK    2  A    between atoms: C_4  and  C_5
REMARK                            x       y       z     vdW  Elec       q    Type
REMARK                         _______ _______ _______ _____ _____    ______ ____
ROOT
ATOM      1  O   UNL     1       7.233   6.067  17.589  0.00  0.00    +0.000 OA
ATOM      2  C   UNL     1       6.826   5.324  16.696  0.00  0.00    +0.000 C 
ATOM      3  N   UNL     1       5.894   4.355  16.896  0.00  0.00    +0.000 N 
ATOM      4  N   UNL     1       7.357   5.449  15.451  0.00  0.00    +0.000 N 
ATOM      5  C   UNL     1       6.954   4.784  14.333  0.00  0.00    +0.000 A 
ATOM      6  N   UNL     1       5.933   3.971  14.176  0.00  0.00    +0.000 NA
ATOM      7  N   UNL     1       5.858   3.497  12.879  0.00  0.00    +0.000 NA
ATOM      8  C   UNL     1       6.844   3.952  12.136  0.00  0.00    +0.000 A 
ATOM      9  S   UNL     1       7.913   5.025  12.947  0.00  0.00    +0.000 S 
ATOM     10  H   UNL     1       5.682   3.735  16.122  0.00  0.00    +0.000 HD
ATOM     11  H   UNL     1       8.114   6.110  15.368  0.00  0.00    +0.000 HD
ENDROOT
BRANCH   3  12
ATOM     12  C   UNL     1       5.375   4.015  18.206  0.00  0.00    +0.000 C 
BRANCH  12  13
ATOM     13  C   UNL     1       3.897   4.411  18.357  0.00  0.00    +0.000 C 
ATOM     14  C   UNL     1       3.373   4.203  19.787  0.00  0.00    +0.000 C 
ATOM     15  C   UNL     1       3.229   2.722  20.133  0.00  0.00    +0.000 C 
ATOM     16  N   UNL     1       2.354   2.031  19.183  0.00  0.00    +0.000 NA
ATOM     17  C   UNL     1       2.839   2.157  17.808  0.00  0.00    +0.000 C 
ATOM     18  C   UNL     1       3.010   3.617  17.384  0.00  0.00    +0.000 C 
ATOM     19  H   UNL     1       1.420   2.433  19.245  0.00  0.00    +0.000 HD
ENDBRANCH  12  13
ENDBRANCH   3  12
TORSDOF 2
ENDMDL
MODEL 8
REMARK VINA RESULT:      -6.6      2.286      2.767
REMARK  Name = 
REMARK  2 active torsions:
REMARK  status: ('A' for Active; 'I' for Inactive)
REMARK    1  A    between atoms: N_3  and  C_4
REMARK    2  A    between atoms: C_4  and  C_5
REMARK                            x       y       z     vdW  Elec       q    Type
REMARK                         _______ _______ _______ _____ _____    ______ ____
ROOT
ATOM      1  O   UNL     1       6.569   5.061  19.690  0.00  0.00    +0.000 OA
ATOM      2  C   UNL     1       6.097   4.691  18.615  0.00  0.00    +0.000 C 
ATOM      3  N   UNL     1       4.926   4.010  18.509  0.00  0.00    +0.000 N 
ATOM      4  N   UNL     1       6.795   4.940  17.476  0.00  0.00    +0.000 N 
ATOM      5  C   UNL     1       6.376   4.691  16.205  0.00  0.00    +0.000 A 
ATOM      6  N   UNL     1       5.206   4.263  15.787  0.00  0.00    +0.000 NA
ATOM      7  N   UNL     1       5.173   4.140  14.410  0.00  0.00    +0.000 NA
ATOM      8  C   UNL     1       6.330   4.451  13.866  0.00  0.00    +0.000 A 
ATOM      9  S   UNL     1       7.533   4.958  14.983  0.00  0.00    +0.000 S 
ATOM     10  H   UNL     1       4.657   3.671  17.591  0.00  0.00    +0.000 HD
ATOM     11  H   UNL     1       7.704   5.357  17.607  0.00  0.00    +0.000 HD
ENDROOT
BRANCH   3  12
ATOM     12  C   UNL     1       4.174   3.543  19.656  0.00  0.00    +0.000 C 
BRANCH  12  13
ATOM     13  C   UNL     1       3.040   4.512  20.031  0.00  0.00    +0.000 C 
ATOM     14  C   UNL     1       2.378   4.155  21.371  0.00  0.00    +0.000 C 
ATOM     15  C   UNL     1       1.541   2.880  21.273  0.00  0.00    +0.000 C 
ATOM     16  N   UNL     1       0.516   2.988  20.231  0.00  0.00    +0.000 NA
ATOM     17  C   UNL     1       1.103   3.278  18.922  0.00  0.00    +0.000 C 
ATOM     18  C   UNL     1       1.960   4.547  18.937  0.00  0.00    +0.000 C 
ATOM     19  H   UNL     1      -0.128   3.737  20.481  0.00  0.00    +0.000 HD
ENDBRANCH  12  13
ENDBRANCH   3  12
TORSDOF 2
ENDMDL
MODEL 9
REMARK VINA RESULT:      -6.6      3.347      3.589
REMARK  Name = 
REMARK  2 active torsions:
REMARK  status: ('A' for Active; 'I' for Inactive)
REMARK    1  A    between atoms: N_3  and  C_4
REMARK    2  A    between atoms: C_4  and  C_5
REMARK                            x       y       z     vdW  Elec       q    Type
REMARK                         _______ _______ _______ _____ _____    ______ ____
ROOT
ATOM      1  O   UNL     1       6.104   5.951  17.429  0.00  0.00    +0.000 OA
ATOM      2  C   UNL     1       5.982   5.204  16.458  0.00  0.00    +0.000 C 
ATOM      3  N   UNL     1       5.139   4.139  16.437  0.00  0.00    +0.000 N 
ATOM      4  N   UNL     1       6.753   5.429  15.361  0.00  0.00    +0.000 N 
ATOM      5  C   UNL     1       6.674   4.768  14.174  0.00  0.00    +0.000 A 
ATOM      6  N   UNL     1       5.806   3.862  13.786  0.00  0.00    +0.000 NA
ATOM      7  N   UNL     1       6.063   3.431  12.498  0.00  0.00    +0.000 NA
ATOM      8  C   UNL     1       7.132   4.012  11.994  0.00  0.00    +0.000 A 
ATOM      9  S   UNL     1       7.879   5.158  13.034  0.00  0.00    +0.000 S 
ATOM     10  H   UNL     1       5.168   3.529  15.627  0.00  0.00    +0.000 HD
ATOM     11  H   UNL     1       7.434   6.167  15.454  0.00  0.00    +0.000 HD
ENDROOT
BRANCH   3  12
ATOM     12  C   UNL     1       4.390   3.699  17.597  0.00  0.00    +0.000 C 
BRANCH  12  13
ATOM     13  C   UNL     1       2.899   3.503  17.274  0.00  0.00    +0.000 C 
ATOM     14  C   UNL     1       2.024   4.648  17.808  0.00  0.00    +0.000 C 
ATOM     15  C   UNL     1       1.914   4.622  19.332  0.00  0.00    +0.000 C 
ATOM     16  N   UNL     1       1.392   3.340  19.811  0.00  0.00    +0.000 NA
ATOM     17  C   UNL     1       2.221   2.218  19.370  0.00  0.00    +0.000 C 
ATOM     18  C   UNL     1       2.380   2.174  17.849  0.00  0.00    +0.000 C 
ATOM     19  H   UNL     1       0.446   3.216  19.451  0.00  0.00    +0.000 HD
ENDBRANCH  12  13
ENDBRANCH   3  12
TORSDOF 2
ENDMDL
