MODEL 1
REMARK VINA RESULT:      -7.9      0.000      0.000
REMARK  Name = 
REMARK  6 active torsions:
REMARK  status: ('A' for Active; 'I' for Inactive)
REMARK    1  A    between atoms: N_10  and  C_11
REMARK    2  A    between atoms: C_11  and  C_12
REMARK    3  A    between atoms: C_12  and  C_13
REMARK    4  A    between atoms: C_13  and  C_14
REMARK    5  A    between atoms: C_14  and  C_15
REMARK    6  A    between atoms: C_15  and  N_16
REMARK                            x       y       z     vdW  Elec       q    Type
REMARK                         _______ _______ _______ _____ _____    ______ ____
ROOT
ATOM      1  C   UNL     1       8.230   8.499  17.437  0.00  0.00    +0.000 C 
ENDROOT
BRANCH   1   2
ATOM      2  C   UNL     1       8.214   9.803  18.229  0.00  0.00    +0.000 C 
BRANCH   2   3
ATOM      3  C   UNL     1       9.352   9.845  19.243  0.00  0.00    +0.000 C 
BRANCH   3  13
ATOM      4  O   UNL     1       8.669  11.209  21.767  0.00  0.00    +0.000 OA
ATOM      5  C   UNL     1       9.300  11.751  20.872  0.00  0.00    +0.000 C 
ATOM      6  C   UNL     1       9.848  13.180  20.909  0.00  0.00    +0.000 C 
ATOM      7  C   UNL     1      10.555  13.292  19.592  0.00  0.00    +0.000 A 
ATOM      8  C   UNL     1      11.255  14.361  19.063  0.00  0.00    +0.000 A 
ATOM      9  C   UNL     1      11.836  14.205  17.802  0.00  0.00    +0.000 A 
ATOM     10  C   UNL     1      11.713  12.995  17.099  0.00  0.00    +0.000 A 
ATOM     11  C   UNL     1      11.002  11.923  17.643  0.00  0.00    +0.000 A 
ATOM     12  C   UNL     1      10.425  12.096  18.887  0.00  0.00    +0.000 A 
ATOM     13  N   UNL     1       9.659  11.199  19.639  0.00  0.00    +0.000 N 
ENDBRANCH   3  13
ENDBRANCH   2   3
ENDBRANCH   1   2
BRANCH   1  14
ATOM     14  C   UNL     1       7.668   7.355  18.279  0.00  0.00    +0.000 C 
BRANCH  14  15
ATOM     15  C   UNL     1       7.371   6.097  17.456  0.00  0.00    +0.000 C 
BRANCH  15  16
ATOM     16  N   UNL     1       6.457   6.305  16.319  0.00  0.00    +0.000 NA
ATOM     17  C   UNL     1       6.309   5.130  15.447  0.00  0.00    +0.000 C 
ATOM     18  C   UNL     1       5.553   3.967  16.096  0.00  0.00    +0.000 C 
ATOM     19  C   UNL     1       4.185   4.429  16.614  0.00  0.00    +0.000 C 
ATOM     20  C   UNL     1       3.453   3.309  17.358  0.00  0.00    +0.000 C 
ATOM     21  C   UNL     1       2.103   3.791  17.885  0.00  0.00    +0.000 C 
ATOM     22  C   UNL     1       2.236   5.051  18.738  0.00  0.00    +0.000 C 
ATOM     23  C   UNL     1       2.976   6.163  17.996  0.00  0.00    +0.000 C 
ATOM     24  C   UNL     1       4.344   5.668  17.515  0.00  0.00    +0.000 C 
ATOM     25  C   UNL     1       5.131   6.763  16.778  0.00  0.00    +0.000 C 
ENDBRANCH  15  16
ENDBRANCH  14  15
ENDBRANCH   1  14
TORSDOF 6
ENDMDL
MODEL 2
REMARK VINA RESULT:      -7.9      1.253      2.426
REMARK  Name = 
REMARK  6 active torsions:
REMARK  status: ('A' for Active; 'I' for Inactive)
REMARK    1  A    between atoms: N_10  and  C_11
REMARK    2  A    between atoms: C_11  and  C_12
REMARK    3  A    between atoms: C_12  and  C_13
REMARK    4  A    between atoms: C_13  and  C_14
REMARK    5  A    between atoms: C_14  and  C_15
REMARK    6  A    between atoms: C_15  and  N_16
REMARK                            x       y       z     vdW  Elec       q    Type
REMARK                         _______ _______ _______ _____ _____    ______ ____
ROOT
ATOM      1  C   UNL     1       8.172   8.733  17.538  0.00  0.00    +0.000 C 
ENDROOT
BRANCH   1   2
ATOM      2  C   UNL     1       8.332  10.072  18.253  0.00  0.00    +0.000 C 
BRANCH   2   3
ATOM      3  C   UNL     1       9.405   9.994  19.334  0.00  0.00    +0.000 C 
BRANCH   3  13
ATOM      4  O   UNL     1      11.340  11.610  17.804  0.00  0.00    +0.000 OA
ATOM      5  C   UNL     1      10.840  11.993  18.850  0.00  0.00    +0.000 C 
ATOM      6  C   UNL     1      11.104  13.344  19.521  0.00  0.00    +0.000 C 
ATOM      7  C   UNL     1      10.212  13.291  20.723  0.00  0.00    +0.000 A 
ATOM      8  C   UNL     1      10.016  14.240  21.710  0.00  0.00    +0.000 A 
ATOM      9  C   UNL     1       9.111  13.947  22.733  0.00  0.00    +0.000 A 
ATOM     10  C   UNL     1       8.420  12.723  22.751  0.00  0.00    +0.000 A 
ATOM     11  C   UNL     1       8.628  11.771  21.751  0.00  0.00    +0.000 A 
ATOM     12  C   UNL     1       9.534  12.073  20.751  0.00  0.00    +0.000 A 
ATOM     13  N   UNL     1       9.930  11.301  19.654  0.00  0.00    +0.000 N 
ENDBRANCH   3  13
ENDBRANCH   2   3
ENDBRANCH   1   2
BRANCH   1  14
ATOM     14  C   UNL     1       8.187   7.585  18.546  0.00  0.00    +0.000 C 
BRANCH  14  15
ATOM     15  C   UNL     1       7.422   6.351  18.056  0.00  0.00    +0.000 C 
BRANCH  15  16
ATOM     16  N   UNL     1       6.675   6.546  16.801  0.00  0.00    +0.000 NA
ATOM     17  C   UNL     1       6.724   5.394  15.888  0.00  0.00    +0.000 C 
ATOM     18  C   UNL     1       5.949   4.172  16.390  0.00  0.00    +0.000 C 
ATOM     19  C   UNL     1       4.496   4.543  16.709  0.00  0.00    +0.000 C 
ATOM     20  C   UNL     1       3.729   3.362  17.309  0.00  0.00    +0.000 C 
ATOM     21  C   UNL     1       2.290   3.753  17.641  0.00  0.00    +0.000 C 
ATOM     22  C   UNL     1       2.223   4.991  18.534  0.00  0.00    +0.000 C 
ATOM     23  C   UNL     1       2.999   6.165  17.937  0.00  0.00    +0.000 C 
ATOM     24  C   UNL     1       4.449   5.759  17.653  0.00  0.00    +0.000 C 
ATOM     25  C   UNL     1       5.271   6.918  17.068  0.00  0.00    +0.000 C 
ENDBRANCH  15  16
ENDBRANCH  14  15
ENDBRANCH   1  14
TORSDOF 6
ENDMDL
MODEL 3
REMARK VINA RESULT:      -7.9      2.166      9.687
REMARK  Name = 
REMARK  6 active torsions:
REMARK  status: ('A' for Active; 'I' for Inactive)
REMARK    1  A    between atoms: N_10  and  C_11
REMARK    2  A    between atoms: C_11  and  C_12
REMARK    3  A    between atoms: C_12  and  C_13
REMARK    4  A    between atoms: C_13  and  C_14
REMARK    5  A    between atoms: C_14  and  C_15
REMARK    6  A    between atoms: C_15  and  N_16
REMARK                            x       y       z     vdW  Elec       q    Type
REMARK                         _______ _______ _______ _____ _____    ______ ____
ROOT
ATOM      1  C   UNL     1       8.529   8.671  18.301  0.00  0.00    +0.000 C 
ENDROOT
BRANCH   1   2
ATOM      2  C   UNL     1       7.541   7.842  17.485  0.00  0.00    +0.000 C 
BRANCH   2   3
ATOM      3  C   UNL     1       7.536   6.386  17.942  0.00  0.00    +0.000 C 
BRANCH   3  13
ATOM      4  O   UNL     1       7.578   5.349  15.182  0.00  0.00    +0.000 OA
ATOM      5  C   UNL     1       6.643   5.161  15.944  0.00  0.00    +0.000 C 
ATOM      6  C   UNL     1       5.377   4.362  15.621  0.00  0.00    +0.000 C 
ATOM      7  C   UNL     1       4.614   4.426  16.908  0.00  0.00    +0.000 A 
ATOM      8  C   UNL     1       3.387   3.872  17.225  0.00  0.00    +0.000 A 
ATOM      9  C   UNL     1       2.891   4.072  18.516  0.00  0.00    +0.000 A 
ATOM     10  C   UNL     1       3.624   4.810  19.461  0.00  0.00    +0.000 A 
ATOM     11  C   UNL     1       4.861   5.366  19.128  0.00  0.00    +0.000 A 
ATOM     12  C   UNL     1       5.334   5.167  17.844  0.00  0.00    +0.000 A 
ATOM     13  N   UNL     1       6.520   5.620  17.259  0.00  0.00    +0.000 N 
ENDBRANCH   3  13
ENDBRANCH   2   3
ENDBRANCH   1   2
BRANCH   1  14
ATOM     14  C   UNL     1       8.183  10.156  18.207  0.00  0.00    +0.000 C 
BRANCH  14  15
ATOM     15  C   UNL     1       9.422  11.059  18.203  0.00  0.00    +0.000 C 
BRANCH  15  16
ATOM     16  N   UNL     1      10.340  10.851  19.336  0.00  0.00    +0.000 NA
ATOM     17  C   UNL     1      11.611  11.583  19.220  0.00  0.00    +0.000 C 
ATOM     18  C   UNL     1      11.466  13.101  19.360  0.00  0.00    +0.000 C 
ATOM     19  C   UNL     1      10.756  13.461  20.671  0.00  0.00    +0.000 C 
ATOM     20  C   UNL     1      10.508  14.967  20.786  0.00  0.00    +0.000 C 
ATOM     21  C   UNL     1       9.782  15.306  22.087  0.00  0.00    +0.000 C 
ATOM     22  C   UNL     1       8.493  14.501  22.251  0.00  0.00    +0.000 C 
ATOM     23  C   UNL     1       8.743  12.999  22.125  0.00  0.00    +0.000 C 
ATOM     24  C   UNL     1       9.434  12.681  20.795  0.00  0.00    +0.000 C 
ATOM     25  C   UNL     1       9.687  11.175  20.619  0.00  0.00    +0.000 C 
ENDBRANCH  15  16
ENDBRANCH  14  15
ENDBRANCH   1  14
TORSDOF 6
ENDMDL
MODEL 4
REMARK VINA RESULT:      -7.6      2.063      9.599
REMARK  Name = 
REMARK  6 active torsions:
REMARK  status: ('A' for Active; 'I' for Inactive)
REMARK    1  A    between atoms: N_10  and  C_11
REMARK    2  A    between atoms: C_11  and  C_12
REMARK    3  A    between atoms: C_12  and  C_13
REMARK    4  A    between atoms: C_13  and  C_14
REMARK    5  A    between atoms: C_14  and  C_15
REMARK    6  A    between atoms: C_15  and  N_16
REMARK                            x       y       z     vdW  Elec       q    Type
REMARK                         _______ _______ _______ _____ _____    ______ ____
ROOT
ATOM      1  C   UNL     1       8.453   8.042  18.579  0.00  0.00    +0.000 C 
ENDROOT
BRANCH   1   2
ATOM      2  C   UNL     1       7.659   6.777  18.267  0.00  0.00    +0.000 C 
BRANCH   2   3
ATOM      3  C   UNL     1       6.615   7.035  17.186  0.00  0.00    +0.000 C 
BRANCH   3  13
ATOM      4  O   UNL     1       7.559   4.723  15.617  0.00  0.00    +0.000 OA
ATOM      5  C   UNL     1       6.440   4.780  16.104  0.00  0.00    +0.000 C 
ATOM      6  C   UNL     1       5.371   3.687  16.008  0.00  0.00    +0.000 C 
ATOM      7  C   UNL     1       4.242   4.265  16.805  0.00  0.00    +0.000 A 
ATOM      8  C   UNL     1       3.000   3.724  17.081  0.00  0.00    +0.000 A 
ATOM      9  C   UNL     1       2.118   4.471  17.866  0.00  0.00    +0.000 A 
ATOM     10  C   UNL     1       2.490   5.733  18.360  0.00  0.00    +0.000 A 
ATOM     11  C   UNL     1       3.746   6.270  18.072  0.00  0.00    +0.000 A 
ATOM     12  C   UNL     1       4.604   5.522  17.287  0.00  0.00    +0.000 A 
ATOM     13  N   UNL     1       5.894   5.830  16.846  0.00  0.00    +0.000 N 
ENDBRANCH   3  13
ENDBRANCH   2   3
ENDBRANCH   1   2
BRANCH   1  14
ATOM     14  C   UNL     1       7.976   9.200  17.705  0.00  0.00    +0.000 C 
BRANCH  14  15
ATOM     15  C   UNL     1       8.397  10.571  18.248  0.00  0.00    +0.000 C 
BRANCH  15  16
ATOM     16  N   UNL     1       9.793  10.647  18.714  0.00  0.00    +0.000 NA
ATOM     17  C   UNL     1      10.628  11.589  17.954  0.00  0.00    +0.000 C 
ATOM     18  C   UNL     1      10.265  13.060  18.177  0.00  0.00    +0.000 C 
ATOM     19  C   UNL     1      10.290  13.405  19.671  0.00  0.00    +0.000 C 
ATOM     20  C   UNL     1       9.831  14.842  19.929  0.00  0.00    +0.000 C 
ATOM     21  C   UNL     1       9.841  15.164  21.422  0.00  0.00    +0.000 C 
ATOM     22  C   UNL     1       9.031  14.152  22.232  0.00  0.00    +0.000 C 
ATOM     23  C   UNL     1       9.485  12.717  21.965  0.00  0.00    +0.000 C 
ATOM     24  C   UNL     1       9.426  12.407  20.465  0.00  0.00    +0.000 C 
ATOM     25  C   UNL     1       9.857  10.965  20.154  0.00  0.00    +0.000 C 
ENDBRANCH  15  16
ENDBRANCH  14  15
ENDBRANCH   1  14
TORSDOF 6
ENDMDL
MODEL 5
REMARK VINA RESULT:      -7.6      2.143      9.701
REMARK  Name = 
REMARK  6 active torsions:
REMARK  status: ('A' for Active; 'I' for Inactive)
REMARK    1  A    between atoms: N_10  and  C_11
REMARK    2  A    between atoms: C_11  and  C_12
REMARK    3  A    between atoms: C_12  and  C_13
REMARK    4  A    between atoms: C_13  and  C_14
REMARK    5  A    between atoms: C_14  and  C_15
REMARK    6  A    between atoms: C_15  and  N_16
REMARK                            x       y       z     vdW  Elec       q    Type
REMARK                         _______ _______ _______ _____ _____    ______ ____
ROOT
ATOM      1  C   UNL     1       8.026   9.170  17.817  0.00  0.00    +0.000 C 
ENDROOT
BRANCH   1   2
ATOM      2  C   UNL     1       7.999   7.671  18.101  0.00  0.00    +0.000 C 
BRANCH   2   3
ATOM      3  C   UNL     1       7.220   6.921  17.025  0.00  0.00    +0.000 C 
BRANCH   3  13
ATOM      4  O   UNL     1       7.762   4.250  18.151  0.00  0.00    +0.000 OA
ATOM      5  C   UNL     1       6.645   4.742  18.126  0.00  0.00    +0.000 C 
ATOM      6  C   UNL     1       5.372   4.091  18.676  0.00  0.00    +0.000 C 
ATOM      7  C   UNL     1       4.333   5.139  18.418  0.00  0.00    +0.000 A 
ATOM      8  C   UNL     1       2.981   5.120  18.710  0.00  0.00    +0.000 A 
ATOM      9  C   UNL     1       2.221   6.242  18.371  0.00  0.00    +0.000 A 
ATOM     10  C   UNL     1       2.818   7.355  17.755  0.00  0.00    +0.000 A 
ATOM     11  C   UNL     1       4.184   7.361  17.463  0.00  0.00    +0.000 A 
ATOM     12  C   UNL     1       4.921   6.240  17.796  0.00  0.00    +0.000 A 
ATOM     13  N   UNL     1       6.282   5.987  17.604  0.00  0.00    +0.000 N 
ENDBRANCH   3  13
ENDBRANCH   2   3
ENDBRANCH   1   2
BRANCH   1  14
ATOM     14  C   UNL     1       8.962   9.881  18.793  0.00  0.00    +0.000 C 
BRANCH  14  15
ATOM     15  C   UNL     1       9.583  11.153  18.205  0.00  0.00    +0.000 C 
BRANCH  15  16
ATOM     16  N   UNL     1      10.557  11.826  19.082  0.00  0.00    +0.000 NA
ATOM     17  C   UNL     1      11.874  12.038  18.464  0.00  0.00    +0.000 C 
ATOM     18  C   UNL     1      11.872  13.077  17.339  0.00  0.00    +0.000 C 
ATOM     19  C   UNL     1      11.288  14.407  17.829  0.00  0.00    +0.000 C 
ATOM     20  C   UNL     1      11.180  15.431  16.695  0.00  0.00    +0.000 C 
ATOM     21  C   UNL     1      10.577  16.743  17.195  0.00  0.00    +0.000 C 
ATOM     22  C   UNL     1       9.239  16.528  17.899  0.00  0.00    +0.000 C 
ATOM     23  C   UNL     1       9.348  15.498  19.024  0.00  0.00    +0.000 C 
ATOM     24  C   UNL     1       9.915  14.179  18.488  0.00  0.00    +0.000 C 
ATOM     25  C   UNL     1      10.024  13.108  19.585  0.00  0.00    +0.000 C 
ENDBRANCH  15  16
ENDBRANCH  14  15
ENDBRANCH   1  14
TORSDOF 6
ENDMDL
MODEL 6
REMARK VINA RESULT:      -7.6      6.614      8.302
REMARK  Name = 
REMARK  6 active torsions:
REMARK  status: ('A' for Active; 'I' for Inactive)
REMARK    1  A    between atoms: N_10  and  C_11
REMARK    2  A    between atoms: C_11  and  C_12
REMARK    3  A    between atoms: C_12  and  C_13
REMARK    4  A    between atoms: C_13  and  C_14
REMARK    5  A    between atoms: C_14  and  C_15
REMARK    6  A    between atoms: C_15  and  N_16
REMARK                            x       y       z     vdW  Elec       q    Type
REMARK                         _______ _______ _______ _____ _____    ______ ____
ROOT
ATOM      1  C   UNL     1       2.363   8.673  17.449  0.00  0.00    +0.000 C 
ENDROOT
BRANCH   1   2
ATOM      2  C   UNL     1       1.814   9.922  18.133  0.00  0.00    +0.000 C 
BRANCH   2   3
ATOM      3  C   UNL     1       0.288   9.920  18.138  0.00  0.00    +0.000 C 
BRANCH   3  13
ATOM      4  O   UNL     1      -0.928  12.600  17.959  0.00  0.00    +0.000 OA
ATOM      5  C   UNL     1      -0.810  11.997  19.014  0.00  0.00    +0.000 C 
ATOM      6  C   UNL     1      -1.278  12.499  20.383  0.00  0.00    +0.000 C 
ATOM      7  C   UNL     1      -0.923  11.358  21.287  0.00  0.00    +0.000 A 
ATOM      8  C   UNL     1      -1.115  11.230  22.651  0.00  0.00    +0.000 A 
ATOM      9  C   UNL     1      -0.698  10.046  23.264  0.00  0.00    +0.000 A 
ATOM     10  C   UNL     1      -0.106   9.017  22.512  0.00  0.00    +0.000 A 
ATOM     11  C   UNL     1       0.084   9.159  21.135  0.00  0.00    +0.000 A 
ATOM     12  C   UNL     1      -0.325  10.341  20.545  0.00  0.00    +0.000 A 
ATOM     13  N   UNL     1      -0.238  10.737  19.207  0.00  0.00    +0.000 N 
ENDBRANCH   3  13
ENDBRANCH   2   3
ENDBRANCH   1   2
BRANCH   1  14
ATOM     14  C   UNL     1       2.530   7.540  18.461  0.00  0.00    +0.000 C 
BRANCH  14  15
ATOM     15  C   UNL     1       3.632   6.549  18.071  0.00  0.00    +0.000 C 
BRANCH  15  16
ATOM     16  N   UNL     1       3.151   5.311  17.433  0.00  0.00    +0.000 NA
ATOM     17  C   UNL     1       4.174   4.259  17.320  0.00  0.00    +0.000 C 
ATOM     18  C   UNL     1       4.581   3.643  18.662  0.00  0.00    +0.000 C 
ATOM     19  C   UNL     1       3.352   3.120  19.415  0.00  0.00    +0.000 C 
ATOM     20  C   UNL     1       3.721   2.593  20.804  0.00  0.00    +0.000 C 
ATOM     21  C   UNL     1       2.484   2.095  21.549  0.00  0.00    +0.000 C 
ATOM     22  C   UNL     1       1.388   3.157  21.615  0.00  0.00    +0.000 C 
ATOM     23  C   UNL     1       1.029   3.689  20.228  0.00  0.00    +0.000 C 
ATOM     24  C   UNL     1       2.279   4.220  19.519  0.00  0.00    +0.000 C 
ATOM     25  C   UNL     1       1.959   4.783  18.124  0.00  0.00    +0.000 C 
ENDBRANCH  15  16
ENDBRANCH  14  15
ENDBRANCH   1  14
TORSDOF 6
ENDMDL
MODEL 7
REMARK VINA RESULT:      -7.6      2.213      9.921
REMARK  Name = 
REMARK  6 active torsions:
REMARK  status: ('A' for Active; 'I' for Inactive)
REMARK    1  A    between atoms: N_10  and  C_11
REMARK    2  A    between atoms: C_11  and  C_12
REMARK    3  A    between atoms: C_12  and  C_13
REMARK    4  A    between atoms: C_13  and  C_14
REMARK    5  A    between atoms: C_14  and  C_15
REMARK    6  A    between atoms: C_15  and  N_16
REMARK                            x       y       z     vdW  Elec       q    Type
REMARK                         _______ _______ _______ _____ _____    ______ ____
ROOT
ATOM      1  C   UNL     1       8.477   8.353  18.143  0.00  0.00    +0.000 C 
ENDROOT
BRANCH   1   2
ATOM      2  C   UNL     1       7.217   7.609  17.710  0.00  0.00    +0.000 C 
BRANCH   2   3
ATOM      3  C   UNL     1       7.169   6.209  18.314  0.00  0.00    +0.000 C 
BRANCH   3  13
ATOM      4  O   UNL     1       7.838   4.565  15.958  0.00  0.00    +0.000 OA
ATOM      5  C   UNL     1       6.723   4.584  16.456  0.00  0.00    +0.000 C 
ATOM      6  C   UNL     1       5.520   3.767  15.976  0.00  0.00    +0.000 C 
ATOM      7  C   UNL     1       4.456   4.146  16.961  0.00  0.00    +0.000 A 
ATOM      8  C   UNL     1       3.144   3.715  17.039  0.00  0.00    +0.000 A 
ATOM      9  C   UNL     1       2.348   4.219  18.071  0.00  0.00    +0.000 A 
ATOM     10  C   UNL     1       2.872   5.133  19.001  0.00  0.00    +0.000 A 
ATOM     11  C   UNL     1       4.198   5.563  18.910  0.00  0.00    +0.000 A 
ATOM     12  C   UNL     1       4.969   5.062  17.877  0.00  0.00    +0.000 A 
ATOM     13  N   UNL     1       6.303   5.335  17.557  0.00  0.00    +0.000 N 
ENDBRANCH   3  13
ENDBRANCH   2   3
ENDBRANCH   1   2
BRANCH   1  14
ATOM     14  C   UNL     1       8.222   9.858  18.180  0.00  0.00    +0.000 C 
BRANCH  14  15
ATOM     15  C   UNL     1       9.479  10.684  17.889  0.00  0.00    +0.000 C 
BRANCH  15  16
ATOM     16  N   UNL     1      10.071  11.343  19.066  0.00  0.00    +0.000 NA
ATOM     17  C   UNL     1      11.515  11.600  18.947  0.00  0.00    +0.000 C 
ATOM     18  C   UNL     1      11.870  12.679  17.919  0.00  0.00    +0.000 C 
ATOM     19  C   UNL     1      11.115  13.980  18.213  0.00  0.00    +0.000 C 
ATOM     20  C   UNL     1      11.374  15.041  17.141  0.00  0.00    +0.000 C 
ATOM     21  C   UNL     1      10.599  16.323  17.437  0.00  0.00    +0.000 C 
ATOM     22  C   UNL     1       9.107  16.060  17.630  0.00  0.00    +0.000 C 
ATOM     23  C   UNL     1       8.851  14.993  18.694  0.00  0.00    +0.000 C 
ATOM     24  C   UNL     1       9.606  13.704  18.352  0.00  0.00    +0.000 C 
ATOM     25  C   UNL     1       9.361  12.597  19.389  0.00  0.00    +0.000 C 
ENDBRANCH  15  16
ENDBRANCH  14  15
ENDBRANCH   1  14
TORSDOF 6
ENDMDL
MODEL 8
REMARK VINA RESULT:      -7.5      5.716      8.353
REMARK  Name = 
REMARK  6 active torsions:
REMARK  status: ('A' for Active; 'I' for Inactive)
REMARK    1  A    between atoms: N_10  and  C_11
REMARK    2  A    between atoms: C_11  and  C_12
REMARK    3  A    between atoms: C_12  and  C_13
REMARK    4  A    between atoms: C_13  and  C_14
REMARK    5  A    between atoms: C_14  and  C_15
REMARK    6  A    between atoms: C_15  and  N_16
REMARK                            x       y       z     vdW  Elec       q    Type
REMARK                         _______ _______ _______ _____ _____    ______ ____
ROOT
ATOM      1  C   UNL     1       1.811   8.204  17.789  0.00  0.00    +0.000 C 
ENDROOT
BRANCH   1   2
ATOM      2  C   UNL     1       1.649   9.638  18.286  0.00  0.00    +0.000 C 
BRANCH   2   3
ATOM      3  C   UNL     1       0.196  10.092  18.193  0.00  0.00    +0.000 C 
BRANCH   3  13
ATOM      4  O   UNL     1      -0.382  12.982  18.099  0.00  0.00    +0.000 OA
ATOM      5  C   UNL     1      -0.425  12.333  19.132  0.00  0.00    +0.000 C 
ATOM      6  C   UNL     1      -0.796  12.880  20.513  0.00  0.00    +0.000 C 
ATOM      7  C   UNL     1      -0.726  11.658  21.378  0.00  0.00    +0.000 A 
ATOM      8  C   UNL     1      -0.971  11.531  22.733  0.00  0.00    +0.000 A 
ATOM      9  C   UNL     1      -0.843  10.263  23.306  0.00  0.00    +0.000 A 
ATOM     10  C   UNL     1      -0.483   9.154  22.523  0.00  0.00    +0.000 A 
ATOM     11  C   UNL     1      -0.236   9.295  21.155  0.00  0.00    +0.000 A 
ATOM     12  C   UNL     1      -0.357  10.558  20.605  0.00  0.00    +0.000 A 
ATOM     13  N   UNL     1      -0.155  10.970  19.284  0.00  0.00    +0.000 N 
ENDBRANCH   3  13
ENDBRANCH   2   3
ENDBRANCH   1   2
BRANCH   1  14
ATOM     14  C   UNL     1       2.443   7.332  18.872  0.00  0.00    +0.000 C 
BRANCH  14  15
ATOM     15  C   UNL     1       2.151   5.839  18.683  0.00  0.00    +0.000 C 
BRANCH  15  16
ATOM     16  N   UNL     1       3.104   4.935  19.351  0.00  0.00    +0.000 NA
ATOM     17  C   UNL     1       3.101   3.563  18.820  0.00  0.00    +0.000 C 
ATOM     18  C   UNL     1       3.676   3.444  17.405  0.00  0.00    +0.000 C 
ATOM     19  C   UNL     1       5.086   4.043  17.340  0.00  0.00    +0.000 C 
ATOM     20  C   UNL     1       5.642   4.029  15.914  0.00  0.00    +0.000 C 
ATOM     21  C   UNL     1       7.038   4.648  15.862  0.00  0.00    +0.000 C 
ATOM     22  C   UNL     1       7.068   6.048  16.473  0.00  0.00    +0.000 C 
ATOM     23  C   UNL     1       6.503   6.060  17.893  0.00  0.00    +0.000 C 
ATOM     24  C   UNL     1       5.087   5.474  17.910  0.00  0.00    +0.000 C 
ATOM     25  C   UNL     1       4.473   5.484  19.319  0.00  0.00    +0.000 C 
ENDBRANCH  15  16
ENDBRANCH  14  15
ENDBRANCH   1  14
TORSDOF 6
ENDMDL
MODEL 9
REMARK VINA RESULT:      -7.4      2.066      9.643
REMARK  Name = 
REMARK  6 active torsions:
REMARK  status: ('A' for Active; 'I' for Inactive)
REMARK    1  A    between atoms: N_10  and  C_11
REMARK    2  A    between atoms: C_11  and  C_12
REMARK    3  A    between atoms: C_12  and  C_13
REMARK    4  A    between atoms: C_13  and  C_14
REMARK    5  A    between atoms: C_14  and  C_15
REMARK    6  A    between atoms: C_15  and  N_16
REMARK                            x       y       z     vdW  Elec       q    Type
REMARK                         _______ _______ _______ _____ _____    ______ ____
ROOT
ATOM      1  C   UNL     1       8.166   9.258  17.891  0.00  0.00    +0.000 C 
ENDROOT
BRANCH   1   2
ATOM      2  C   UNL     1       8.029   7.766  18.183  0.00  0.00    +0.000 C 
BRANCH   2   3
ATOM      3  C   UNL     1       7.268   7.055  17.069  0.00  0.00    +0.000 C 
BRANCH   3  13
ATOM      4  O   UNL     1       7.917   4.353  18.057  0.00  0.00    +0.000 OA
ATOM      5  C   UNL     1       6.781   4.801  18.055  0.00  0.00    +0.000 C 
ATOM      6  C   UNL     1       5.536   4.072  18.568  0.00  0.00    +0.000 C 
ATOM      7  C   UNL     1       4.455   5.089  18.363  0.00  0.00    +0.000 A 
ATOM      8  C   UNL     1       3.105   5.001  18.651  0.00  0.00    +0.000 A 
ATOM      9  C   UNL     1       2.300   6.107  18.369  0.00  0.00    +0.000 A 
ATOM     10  C   UNL     1       2.852   7.274  17.813  0.00  0.00    +0.000 A 
ATOM     11  C   UNL     1       4.217   7.350  17.524  0.00  0.00    +0.000 A 
ATOM     12  C   UNL     1       4.998   6.243  17.800  0.00  0.00    +0.000 A 
ATOM     13  N   UNL     1       6.369   6.055  17.597  0.00  0.00    +0.000 N 
ENDBRANCH   3  13
ENDBRANCH   2   3
ENDBRANCH   1   2
BRANCH   1  14
ATOM     14  C   UNL     1       9.022   9.935  18.961  0.00  0.00    +0.000 C 
BRANCH  14  15
ATOM     15  C   UNL     1       9.865  11.089  18.408  0.00  0.00    +0.000 C 
BRANCH  15  16
ATOM     16  N   UNL     1      11.077  11.396  19.186  0.00  0.00    +0.000 NA
ATOM     17  C   UNL     1      12.006  12.316  18.512  0.00  0.00    +0.000 C 
ATOM     18  C   UNL     1      11.481  13.750  18.393  0.00  0.00    +0.000 C 
ATOM     19  C   UNL     1      11.084  14.299  19.769  0.00  0.00    +0.000 C 
ATOM     20  C   UNL     1      10.460  15.693  19.664  0.00  0.00    +0.000 C 
ATOM     21  C   UNL     1      10.051  16.217  21.039  0.00  0.00    +0.000 C 
ATOM     22  C   UNL     1       9.140  15.239  21.778  0.00  0.00    +0.000 C 
ATOM     23  C   UNL     1       9.761  13.845  21.872  0.00  0.00    +0.000 C 
ATOM     24  C   UNL     1      10.123  13.325  20.477  0.00  0.00    +0.000 C 
ATOM     25  C   UNL     1      10.735  11.916  20.525  0.00  0.00    +0.000 C 
ENDBRANCH  15  16
ENDBRANCH  14  15
ENDBRANCH   1  14
TORSDOF 6
ENDMDL
