MODEL 1
REMARK VINA RESULT:      -6.4      0.000      0.000
REMARK  Name = 
REMARK  5 active torsions:
REMARK  status: ('A' for Active; 'I' for Inactive)
REMARK    1  A    between atoms: C_1  and  O_2
REMARK    2  A    between atoms: O_2  and  C_3
REMARK    3  A    between atoms: C_12  and  S_13
REMARK    4  A    between atoms: S_13  and  C_14
REMARK    5  A    between atoms: N_17  and  C_18
REMARK                            x       y       z     vdW  Elec       q    Type
REMARK                         _______ _______ _______ _____ _____    ______ ____
ROOT
ATOM      1  C   UNL     1       2.811   5.615  18.529  0.00  0.00    +0.000 A 
ATOM      2  C   UNL     1       2.510   5.061  19.768  0.00  0.00    +0.000 A 
ATOM      3  C   UNL     1       1.926   5.843  20.759  0.00  0.00    +0.000 A 
ATOM      4  C   UNL     1       1.636   7.191  20.516  0.00  0.00    +0.000 A 
ATOM      5  C   UNL     1       1.037   7.989  21.589  0.00  0.00    +0.000 A 
ATOM      6  C   UNL     1       0.754   9.285  21.402  0.00  0.00    +0.000 A 
ATOM      7  C   UNL     1       0.150  10.110  22.455  0.00  0.00    +0.000 A 
ATOM      8  O   UNL     1      -0.111   9.639  23.559  0.00  0.00    +0.000 OA
ATOM      9  N   UNL     1      -0.097  11.409  22.132  0.00  0.00    +0.000 NA
ATOM     10  C   UNL     1       0.190  11.866  20.967  0.00  0.00    +0.000 A 
ATOM     11  N   UNL     1       0.755  11.166  19.937  0.00  0.00    +0.000 NA
ATOM     12  C   UNL     1       1.046   9.909  20.094  0.00  0.00    +0.000 A 
ATOM     13  N   UNL     1       1.622   9.155  19.066  0.00  0.00    +0.000 N 
ATOM     14  C   UNL     1       1.923   9.744  17.765  0.00  0.00    +0.000 C 
ATOM     15  C   UNL     1       1.925   7.782  19.264  0.00  0.00    +0.000 A 
ATOM     16  C   UNL     1       2.514   6.964  18.281  0.00  0.00    +0.000 A 
ENDROOT
BRANCH   1  18
ATOM     17  C   UNL     1       3.009   3.578  17.342  0.00  0.00    +0.000 C 
ATOM     18  O   UNL     1       3.406   4.938  17.495  0.00  0.00    +0.000 OA
ENDBRANCH   1  18
BRANCH  10  19
ATOM     19  S   UNL     1      -0.148  13.557  20.597  0.00  0.00    +0.000 S 
ATOM     20  C   UNL     1      -0.187  13.548  18.793  0.00  0.00    +0.000 C 
ENDBRANCH  10  19
TORSDOF 2
ENDMDL
MODEL 2
REMARK VINA RESULT:      -6.2      3.100      6.135
REMARK  Name = 
REMARK  5 active torsions:
REMARK  status: ('A' for Active; 'I' for Inactive)
REMARK    1  A    between atoms: C_1  and  O_2
REMARK    2  A    between atoms: O_2  and  C_3
REMARK    3  A    between atoms: C_12  and  S_13
REMARK    4  A    between atoms: S_13  and  C_14
REMARK    5  A    between atoms: N_17  and  C_18
REMARK                            x       y       z     vdW  Elec       q    Type
REMARK                         _______ _______ _______ _____ _____    ______ ____
ROOT
ATOM      1  C   UNL     1      -0.294  11.116  20.967  0.00  0.00    +0.000 A 
ATOM      2  C   UNL     1      -0.551  10.334  22.087  0.00  0.00    +0.000 A 
ATOM      3  C   UNL     1      -0.039   9.044  22.171  0.00  0.00    +0.000 A 
ATOM      4  C   UNL     1       0.741   8.525  21.130  0.00  0.00    +0.000 A 
ATOM      5  C   UNL     1       1.250   7.156  21.245  0.00  0.00    +0.000 A 
ATOM      6  C   UNL     1       1.990   6.616  20.267  0.00  0.00    +0.000 A 
ATOM      7  C   UNL     1       2.518   5.249  20.354  0.00  0.00    +0.000 A 
ATOM      8  O   UNL     1       2.289   4.541  21.330  0.00  0.00    +0.000 OA
ATOM      9  N   UNL     1       3.264   4.827  19.297  0.00  0.00    +0.000 NA
ATOM     10  C   UNL     1       3.482   5.595  18.292  0.00  0.00    +0.000 A 
ATOM     11  N   UNL     1       3.025   6.874  18.134  0.00  0.00    +0.000 NA
ATOM     12  C   UNL     1       2.298   7.420  19.065  0.00  0.00    +0.000 A 
ATOM     13  N   UNL     1       1.813   8.726  18.945  0.00  0.00    +0.000 N 
ATOM     14  C   UNL     1       2.099   9.542  17.770  0.00  0.00    +0.000 C 
ATOM     15  C   UNL     1       1.025   9.298  19.981  0.00  0.00    +0.000 A 
ATOM     16  C   UNL     1       0.494  10.600  19.926  0.00  0.00    +0.000 A 
ENDROOT
BRANCH   1  18
ATOM     17  C   UNL     1      -1.841  12.512  19.848  0.00  0.00    +0.000 C 
ATOM     18  O   UNL     1      -0.768  12.389  20.777  0.00  0.00    +0.000 OA
ENDBRANCH   1  18
BRANCH  10  19
ATOM     19  S   UNL     1       4.454   5.001  16.946  0.00  0.00    +0.000 S 
ATOM     20  C   UNL     1       5.080   6.533  16.227  0.00  0.00    +0.000 C 
ENDBRANCH  10  19
TORSDOF 2
ENDMDL
MODEL 3
REMARK VINA RESULT:      -6.2      2.360      3.710
REMARK  Name = 
REMARK  5 active torsions:
REMARK  status: ('A' for Active; 'I' for Inactive)
REMARK    1  A    between atoms: C_1  and  O_2
REMARK    2  A    between atoms: O_2  and  C_3
REMARK    3  A    between atoms: C_12  and  S_13
REMARK    4  A    between atoms: S_13  and  C_14
REMARK    5  A    between atoms: N_17  and  C_18
REMARK                            x       y       z     vdW  Elec       q    Type
REMARK                         _______ _______ _______ _____ _____    ______ ____
ROOT
ATOM      1  C   UNL     1       4.193   3.868  18.171  0.00  0.00    +0.000 A 
ATOM      2  C   UNL     1       4.659   4.597  17.083  0.00  0.00    +0.000 A 
ATOM      3  C   UNL     1       4.298   5.932  16.931  0.00  0.00    +0.000 A 
ATOM      4  C   UNL     1       3.466   6.550  17.873  0.00  0.00    +0.000 A 
ATOM      5  C   UNL     1       3.093   7.953  17.673  0.00  0.00    +0.000 A 
ATOM      6  C   UNL     1       2.291   8.579  18.543  0.00  0.00    +0.000 A 
ATOM      7  C   UNL     1       1.902   9.984  18.372  0.00  0.00    +0.000 A 
ATOM      8  O   UNL     1       2.294  10.639  17.410  0.00  0.00    +0.000 OA
ATOM      9  N   UNL     1       1.091  10.503  19.335  0.00  0.00    +0.000 NA
ATOM     10  C   UNL     1       0.700   9.788  20.327  0.00  0.00    +0.000 A 
ATOM     11  N   UNL     1       1.014   8.477  20.555  0.00  0.00    +0.000 NA
ATOM     12  C   UNL     1       1.786   7.843  19.722  0.00  0.00    +0.000 A 
ATOM     13  N   UNL     1       2.133   6.502  19.919  0.00  0.00    +0.000 N 
ATOM     14  C   UNL     1       1.649   5.750  21.071  0.00  0.00    +0.000 C 
ATOM     15  C   UNL     1       2.982   5.836  18.994  0.00  0.00    +0.000 A 
ATOM     16  C   UNL     1       3.366   4.488  19.121  0.00  0.00    +0.000 A 
ENDROOT
BRANCH   1  18
ATOM     17  C   UNL     1       3.363   1.656  18.296  0.00  0.00    +0.000 C 
ATOM     18  O   UNL     1       4.471   2.544  18.401  0.00  0.00    +0.000 OA
ENDBRANCH   1  18
BRANCH  10  19
ATOM     19  S   UNL     1      -0.350  10.506  21.547  0.00  0.00    +0.000 S 
ATOM     20  C   UNL     1      -0.027   9.464  22.984  0.00  0.00    +0.000 C 
ENDBRANCH  10  19
TORSDOF 2
ENDMDL
MODEL 4
REMARK VINA RESULT:      -6.2      3.501      7.155
REMARK  Name = 
REMARK  5 active torsions:
REMARK  status: ('A' for Active; 'I' for Inactive)
REMARK    1  A    between atoms: C_1  and  O_2
REMARK    2  A    between atoms: O_2  and  C_3
REMARK    3  A    between atoms: C_12  and  S_13
REMARK    4  A    between atoms: S_13  and  C_14
REMARK    5  A    between atoms: N_17  and  C_18
REMARK                            x       y       z     vdW  Elec       q    Type
REMARK                         _______ _______ _______ _____ _____    ______ ____
ROOT
ATOM      1  C   UNL     1       0.590  10.376  19.737  0.00  0.00    +0.000 A 
ATOM      2  C   UNL     1       1.163  10.809  18.547  0.00  0.00    +0.000 A 
ATOM      3  C   UNL     1       2.019   9.971  17.839  0.00  0.00    +0.000 A 
ATOM      4  C   UNL     1       2.307   8.687  18.319  0.00  0.00    +0.000 A 
ATOM      5  C   UNL     1       3.226   7.838  17.556  0.00  0.00    +0.000 A 
ATOM      6  C   UNL     1       3.537   6.608  17.984  0.00  0.00    +0.000 A 
ATOM      7  C   UNL     1       4.451   5.732  17.241  0.00  0.00    +0.000 A 
ATOM      8  O   UNL     1       4.976   6.103  16.195  0.00  0.00    +0.000 OA
ATOM      9  N   UNL     1       4.674   4.503  17.781  0.00  0.00    +0.000 NA
ATOM     10  C   UNL     1       4.108   4.149  18.878  0.00  0.00    +0.000 A 
ATOM     11  N   UNL     1       3.251   4.905  19.629  0.00  0.00    +0.000 NA
ATOM     12  C   UNL     1       2.938   6.105  19.239  0.00  0.00    +0.000 A 
ATOM     13  N   UNL     1       2.063   6.910  19.976  0.00  0.00    +0.000 N 
ATOM     14  C   UNL     1       1.457   6.442  21.217  0.00  0.00    +0.000 C 
ATOM     15  C   UNL     1       1.734   8.216  19.523  0.00  0.00    +0.000 A 
ATOM     16  C   UNL     1       0.871   9.087  20.215  0.00  0.00    +0.000 A 
ENDROOT
BRANCH   1  18
ATOM     17  C   UNL     1      -0.362  10.711  21.876  0.00  0.00    +0.000 C 
ATOM     18  O   UNL     1      -0.247  11.130  20.519  0.00  0.00    +0.000 OA
ENDBRANCH   1  18
BRANCH  10  19
ATOM     19  S   UNL     1       4.431   2.546  19.537  0.00  0.00    +0.000 S 
ATOM     20  C   UNL     1       3.571   1.476  18.365  0.00  0.00    +0.000 C 
ENDBRANCH  10  19
TORSDOF 2
ENDMDL
MODEL 5
REMARK VINA RESULT:      -6.1      1.300      1.533
REMARK  Name = 
REMARK  5 active torsions:
REMARK  status: ('A' for Active; 'I' for Inactive)
REMARK    1  A    between atoms: C_1  and  O_2
REMARK    2  A    between atoms: O_2  and  C_3
REMARK    3  A    between atoms: C_12  and  S_13
REMARK    4  A    between atoms: S_13  and  C_14
REMARK    5  A    between atoms: N_17  and  C_18
REMARK                            x       y       z     vdW  Elec       q    Type
REMARK                         _______ _______ _______ _____ _____    ______ ____
ROOT
ATOM      1  C   UNL     1       3.273   4.119  19.036  0.00  0.00    +0.000 A 
ATOM      2  C   UNL     1       2.694   3.816  20.263  0.00  0.00    +0.000 A 
ATOM      3  C   UNL     1       2.000   4.793  20.969  0.00  0.00    +0.000 A 
ATOM      4  C   UNL     1       1.878   6.088  20.448  0.00  0.00    +0.000 A 
ATOM      5  C   UNL     1       1.155   7.096  21.226  0.00  0.00    +0.000 A 
ATOM      6  C   UNL     1       1.024   8.349  20.770  0.00  0.00    +0.000 A 
ATOM      7  C   UNL     1       0.303   9.381  21.524  0.00  0.00    +0.000 A 
ATOM      8  O   UNL     1      -0.203   9.134  22.615  0.00  0.00    +0.000 OA
ATOM      9  N   UNL     1       0.233  10.610  20.942  0.00  0.00    +0.000 NA
ATOM     10  C   UNL     1       0.775  10.833  19.800  0.00  0.00    +0.000 A 
ATOM     11  N   UNL     1       1.465   9.930  19.039  0.00  0.00    +0.000 NA
ATOM     12  C   UNL     1       1.613   8.709  19.462  0.00  0.00    +0.000 A 
ATOM     13  N   UNL     1       2.309   7.753  18.714  0.00  0.00    +0.000 N 
ATOM     14  C   UNL     1       2.901   8.079  17.422  0.00  0.00    +0.000 C 
ATOM     15  C   UNL     1       2.450   6.425  19.199  0.00  0.00    +0.000 A 
ATOM     16  C   UNL     1       3.144   5.413  18.508  0.00  0.00    +0.000 A 
ENDROOT
BRANCH   1  18
ATOM     17  C   UNL     1       3.493   1.903  18.238  0.00  0.00    +0.000 C 
ATOM     18  O   UNL     1       3.994   3.236  18.273  0.00  0.00    +0.000 OA
ENDBRANCH   1  18
BRANCH  10  19
ATOM     19  S   UNL     1       0.660  12.442  19.089  0.00  0.00    +0.000 S 
ATOM     20  C   UNL     1      -1.044  12.471  18.496  0.00  0.00    +0.000 C 
ENDBRANCH  10  19
TORSDOF 2
ENDMDL
MODEL 6
REMARK VINA RESULT:      -6.1      0.929      1.050
REMARK  Name = 
REMARK  5 active torsions:
REMARK  status: ('A' for Active; 'I' for Inactive)
REMARK    1  A    between atoms: C_1  and  O_2
REMARK    2  A    between atoms: O_2  and  C_3
REMARK    3  A    between atoms: C_12  and  S_13
REMARK    4  A    between atoms: S_13  and  C_14
REMARK    5  A    between atoms: N_17  and  C_18
REMARK                            x       y       z     vdW  Elec       q    Type
REMARK                         _______ _______ _______ _____ _____    ______ ____
ROOT
ATOM      1  C   UNL     1       2.833   6.000  18.455  0.00  0.00    +0.000 A 
ATOM      2  C   UNL     1       2.520   5.388  19.662  0.00  0.00    +0.000 A 
ATOM      3  C   UNL     1       1.904   6.115  20.676  0.00  0.00    +0.000 A 
ATOM      4  C   UNL     1       1.596   7.469  20.486  0.00  0.00    +0.000 A 
ATOM      5  C   UNL     1       0.964   8.208  21.581  0.00  0.00    +0.000 A 
ATOM      6  C   UNL     1       0.662   9.506  21.446  0.00  0.00    +0.000 A 
ATOM      7  C   UNL     1       0.026  10.274  22.523  0.00  0.00    +0.000 A 
ATOM      8  O   UNL     1      -0.246   9.752  23.601  0.00  0.00    +0.000 OA
ATOM      9  N   UNL     1      -0.237  11.582  22.252  0.00  0.00    +0.000 NA
ATOM     10  C   UNL     1       0.062  12.095  21.114  0.00  0.00    +0.000 A 
ATOM     11  N   UNL     1       0.657  11.451  20.065  0.00  0.00    +0.000 NA
ATOM     12  C   UNL     1       0.967  10.192  20.172  0.00  0.00    +0.000 A 
ATOM     13  N   UNL     1       1.575   9.494  19.123  0.00  0.00    +0.000 N 
ATOM     14  C   UNL     1       1.888  10.145  17.855  0.00  0.00    +0.000 C 
ATOM     15  C   UNL     1       1.897   8.118  19.267  0.00  0.00    +0.000 A 
ATOM     16  C   UNL     1       2.517   7.354  18.260  0.00  0.00    +0.000 A 
ENDROOT
BRANCH   1  18
ATOM     17  C   UNL     1       4.641   6.015  16.928  0.00  0.00    +0.000 C 
ATOM     18  O   UNL     1       3.457   5.380  17.403  0.00  0.00    +0.000 OA
ENDBRANCH   1  18
BRANCH  10  19
ATOM     19  S   UNL     1      -0.298  13.794  20.812  0.00  0.00    +0.000 S 
ATOM     20  C   UNL     1      -1.858  14.012  21.692  0.00  0.00    +0.000 C 
ENDBRANCH  10  19
TORSDOF 2
ENDMDL
MODEL 7
REMARK VINA RESULT:      -6.0      2.306      3.479
REMARK  Name = 
REMARK  5 active torsions:
REMARK  status: ('A' for Active; 'I' for Inactive)
REMARK    1  A    between atoms: C_1  and  O_2
REMARK    2  A    between atoms: O_2  and  C_3
REMARK    3  A    between atoms: C_12  and  S_13
REMARK    4  A    between atoms: S_13  and  C_14
REMARK    5  A    between atoms: N_17  and  C_18
REMARK                            x       y       z     vdW  Elec       q    Type
REMARK                         _______ _______ _______ _____ _____    ______ ____
ROOT
ATOM      1  C   UNL     1       2.459   6.963  19.440  0.00  0.00    +0.000 A 
ATOM      2  C   UNL     1       2.494   7.480  18.150  0.00  0.00    +0.000 A 
ATOM      3  C   UNL     1       1.889   8.701  17.871  0.00  0.00    +0.000 A 
ATOM      4  C   UNL     1       1.243   9.418  18.886  0.00  0.00    +0.000 A 
ATOM      5  C   UNL     1       0.601  10.692  18.552  0.00  0.00    +0.000 A 
ATOM      6  C   UNL     1      -0.036  11.405  19.490  0.00  0.00    +0.000 A 
ATOM      7  C   UNL     1      -0.685  12.686  19.188  0.00  0.00    +0.000 A 
ATOM      8  O   UNL     1      -0.675  13.151  18.051  0.00  0.00    +0.000 OA
ATOM      9  N   UNL     1      -1.289  13.314  20.234  0.00  0.00    +0.000 NA
ATOM     10  C   UNL     1      -1.281  12.797  21.409  0.00  0.00    +0.000 A 
ATOM     11  N   UNL     1      -0.704  11.611  21.770  0.00  0.00    +0.000 NA
ATOM     12  C   UNL     1      -0.084  10.896  20.877  0.00  0.00    +0.000 A 
ATOM     13  N   UNL     1       0.521   9.678  21.204  0.00  0.00    +0.000 N 
ATOM     14  C   UNL     1       0.489   9.151  22.564  0.00  0.00    +0.000 C 
ATOM     15  C   UNL     1       1.196   8.921  20.209  0.00  0.00    +0.000 A 
ATOM     16  C   UNL     1       1.819   7.684  20.461  0.00  0.00    +0.000 A 
ENDROOT
BRANCH   1  18
ATOM     17  C   UNL     1       2.207   4.972  20.692  0.00  0.00    +0.000 C 
ATOM     18  O   UNL     1       3.004   5.762  19.815  0.00  0.00    +0.000 OA
ENDBRANCH   1  18
BRANCH  10  19
ATOM     19  S   UNL     1      -2.078  13.648  22.731  0.00  0.00    +0.000 S 
ATOM     20  C   UNL     1      -3.228  12.400  23.345  0.00  0.00    +0.000 C 
ENDBRANCH  10  19
TORSDOF 2
ENDMDL
MODEL 8
REMARK VINA RESULT:      -6.0      2.465      3.715
REMARK  Name = 
REMARK  5 active torsions:
REMARK  status: ('A' for Active; 'I' for Inactive)
REMARK    1  A    between atoms: C_1  and  O_2
REMARK    2  A    between atoms: O_2  and  C_3
REMARK    3  A    between atoms: C_12  and  S_13
REMARK    4  A    between atoms: S_13  and  C_14
REMARK    5  A    between atoms: N_17  and  C_18
REMARK                            x       y       z     vdW  Elec       q    Type
REMARK                         _______ _______ _______ _____ _____    ______ ____
ROOT
ATOM      1  C   UNL     1       4.862   5.040  17.068  0.00  0.00    +0.000 A 
ATOM      2  C   UNL     1       4.921   6.115  16.189  0.00  0.00    +0.000 A 
ATOM      3  C   UNL     1       4.216   7.282  16.465  0.00  0.00    +0.000 A 
ATOM      4  C   UNL     1       3.445   7.383  17.629  0.00  0.00    +0.000 A 
ATOM      5  C   UNL     1       2.702   8.621  17.879  0.00  0.00    +0.000 A 
ATOM      6  C   UNL     1       1.944   8.755  18.975  0.00  0.00    +0.000 A 
ATOM      7  C   UNL     1       1.191   9.983  19.256  0.00  0.00    +0.000 A 
ATOM      8  O   UNL     1       1.221  10.937  18.484  0.00  0.00    +0.000 OA
ATOM      9  N   UNL     1       0.469   9.993  20.410  0.00  0.00    +0.000 NA
ATOM     10  C   UNL     1       0.460   8.976  21.193  0.00  0.00    +0.000 A 
ATOM     11  N   UNL     1       1.128   7.799  21.002  0.00  0.00    +0.000 NA
ATOM     12  C   UNL     1       1.866   7.640  19.943  0.00  0.00    +0.000 A 
ATOM     13  N   UNL     1       2.568   6.453  19.710  0.00  0.00    +0.000 N 
ATOM     14  C   UNL     1       2.509   5.335  20.646  0.00  0.00    +0.000 C 
ATOM     15  C   UNL     1       3.370   6.309  18.546  0.00  0.00    +0.000 A 
ATOM     16  C   UNL     1       4.097   5.142  18.240  0.00  0.00    +0.000 A 
ENDROOT
BRANCH   1  18
ATOM     17  C   UNL     1       6.073   3.646  15.589  0.00  0.00    +0.000 C 
ATOM     18  O   UNL     1       5.500   3.841  16.879  0.00  0.00    +0.000 OA
ENDBRANCH   1  18
BRANCH  10  19
ATOM     19  S   UNL     1      -0.493   9.037  22.676  0.00  0.00    +0.000 S 
ATOM     20  C   UNL     1      -0.834  10.802  22.832  0.00  0.00    +0.000 C 
ENDBRANCH  10  19
TORSDOF 2
ENDMDL
MODEL 9
REMARK VINA RESULT:      -5.9      3.228      6.423
REMARK  Name = 
REMARK  5 active torsions:
REMARK  status: ('A' for Active; 'I' for Inactive)
REMARK    1  A    between atoms: C_1  and  O_2
REMARK    2  A    between atoms: O_2  and  C_3
REMARK    3  A    between atoms: C_12  and  S_13
REMARK    4  A    between atoms: S_13  and  C_14
REMARK    5  A    between atoms: N_17  and  C_18
REMARK                            x       y       z     vdW  Elec       q    Type
REMARK                         _______ _______ _______ _____ _____    ______ ____
ROOT
ATOM      1  C   UNL     1       0.227  11.019  20.699  0.00  0.00    +0.000 A 
ATOM      2  C   UNL     1      -0.073  10.382  21.897  0.00  0.00    +0.000 A 
ATOM      3  C   UNL     1       0.296   9.055  22.093  0.00  0.00    +0.000 A 
ATOM      4  C   UNL     1       0.972   8.354  21.087  0.00  0.00    +0.000 A 
ATOM      5  C   UNL     1       1.330   6.952  21.322  0.00  0.00    +0.000 A 
ATOM      6  C   UNL     1       1.968   6.242  20.383  0.00  0.00    +0.000 A 
ATOM      7  C   UNL     1       2.343   4.838  20.589  0.00  0.00    +0.000 A 
ATOM      8  O   UNL     1       2.075   4.256  21.636  0.00  0.00    +0.000 OA
ATOM      9  N   UNL     1       2.998   4.235  19.559  0.00  0.00    +0.000 NA
ATOM     10  C   UNL     1       3.261   4.875  18.477  0.00  0.00    +0.000 A 
ATOM     11  N   UNL     1       2.943   6.177  18.207  0.00  0.00    +0.000 NA
ATOM     12  C   UNL     1       2.318   6.887  19.099  0.00  0.00    +0.000 A 
ATOM     13  N   UNL     1       1.976   8.223  18.865  0.00  0.00    +0.000 N 
ATOM     14  C   UNL     1       2.306   8.886  17.608  0.00  0.00    +0.000 C 
ATOM     15  C   UNL     1       1.297   8.977  19.860  0.00  0.00    +0.000 A 
ATOM     16  C   UNL     1       0.912  10.321  19.692  0.00  0.00    +0.000 A 
ENDROOT
BRANCH   1  18
ATOM     17  C   UNL     1       0.974  13.237  20.350  0.00  0.00    +0.000 C 
ATOM     18  O   UNL     1      -0.110  12.314  20.397  0.00  0.00    +0.000 OA
ENDBRANCH   1  18
BRANCH  10  19
ATOM     19  S   UNL     1       4.109   4.049  17.171  0.00  0.00    +0.000 S 
ATOM     20  C   UNL     1       3.722   2.318  17.504  0.00  0.00    +0.000 C 
ENDBRANCH  10  19
TORSDOF 2
ENDMDL
