MODEL 1
REMARK VINA RESULT:      -7.7      0.000      0.000
REMARK  Name = 
REMARK  8 active torsions:
REMARK  status: ('A' for Active; 'I' for Inactive)
REMARK    1  A    between atoms: C_1  and  O_2
REMARK    2  A    between atoms: O_2  and  C_3
REMARK    3  A    between atoms: C_6  and  N_7
REMARK    4  A    between atoms: C_8  and  C_10
REMARK    5  A    between atoms: C_15  and  N_16
REMARK    6  A    between atoms: C_17  and  C_19
REMARK    7  A    between atoms: C_24  and  O_25
REMARK    8  A    between atoms: O_25  and  C_26
REMARK                            x       y       z     vdW  Elec       q    Type
REMARK                         _______ _______ _______ _____ _____    ______ ____
ROOT
ATOM      1  C   UNL     1       2.872   4.960  19.792  0.00  0.00    +0.000 A 
ATOM      2  C   UNL     1       2.198   4.816  21.023  0.00  0.00    +0.000 A 
ATOM      3  C   UNL     1       2.210   3.603  21.711  0.00  0.00    +0.000 A 
ATOM      4  C   UNL     1       2.910   2.531  21.183  0.00  0.00    +0.000 A 
ATOM      5  C   UNL     1       3.584   2.663  19.968  0.00  0.00    +0.000 A 
ATOM      6  C   UNL     1       3.576   3.866  19.238  0.00  0.00    +0.000 A 
ENDROOT
BRANCH   1   8
ATOM      7  N   UNL     1       1.702   7.062  19.444  0.00  0.00    +0.000 N 
ATOM      8  C   UNL     1       2.849   6.326  19.182  0.00  0.00    +0.000 C 
ATOM      9  O   UNL     1       3.790   6.694  18.493  0.00  0.00    +0.000 OA
ATOM     10  H   UNL     1       0.832   6.546  19.530  0.00  0.00    +0.000 HD
BRANCH   7  14
ATOM     11  C   UNL     1       1.378  11.242  18.956  0.00  0.00    +0.000 A 
ATOM     12  C   UNL     1       1.870  10.453  17.915  0.00  0.00    +0.000 A 
ATOM     13  C   UNL     1       1.924   9.059  18.039  0.00  0.00    +0.000 A 
ATOM     14  C   UNL     1       1.547   8.452  19.238  0.00  0.00    +0.000 A 
ATOM     15  C   UNL     1       1.114   9.249  20.317  0.00  0.00    +0.000 A 
ATOM     16  C   UNL     1       1.000  10.639  20.159  0.00  0.00    +0.000 A 
BRANCH  11  18
ATOM     17  C   UNL     1       0.245  13.306  19.237  0.00  0.00    +0.000 C 
ATOM     18  O   UNL     1       1.355  12.588  18.707  0.00  0.00    +0.000 OA
ENDBRANCH  11  18
BRANCH  15  19
ATOM     19  O   UNL     1       0.783   8.561  21.460  0.00  0.00    +0.000 OA
ATOM     20  C   UNL     1      -0.390   8.977  22.147  0.00  0.00    +0.000 C 
ENDBRANCH  15  19
ENDBRANCH   7  14
ENDBRANCH   1   8
BRANCH   6  21
ATOM     21  N   UNL     1       4.268   3.968  18.000  0.00  0.00    +0.000 N 
ATOM     22  C   UNL     1       5.626   4.234  17.835  0.00  0.00    +0.000 C 
ATOM     23  O   UNL     1       6.438   4.307  18.753  0.00  0.00    +0.000 OA
ATOM     24  H   UNL     1       3.725   3.803  17.151  0.00  0.00    +0.000 HD
BRANCH  22  25
ATOM     25  C   UNL     1       6.062   4.399  16.462  0.00  0.00    +0.000 A 
ATOM     26  C   UNL     1       5.394   4.117  15.280  0.00  0.00    +0.000 A 
ATOM     27  C   UNL     1       6.269   4.453  14.224  0.00  0.00    +0.000 A 
ATOM     28  C   UNL     1       7.418   4.920  14.821  0.00  0.00    +0.000 A 
ATOM     29  O   UNL     1       7.304   4.895  16.175  0.00  0.00    +0.000 OA
ENDBRANCH  22  25
ENDBRANCH   6  21
TORSDOF 6
ENDMDL
MODEL 2
REMARK VINA RESULT:      -7.4      1.028      1.045
REMARK  Name = 
REMARK  8 active torsions:
REMARK  status: ('A' for Active; 'I' for Inactive)
REMARK    1  A    between atoms: C_1  and  O_2
REMARK    2  A    between atoms: O_2  and  C_3
REMARK    3  A    between atoms: C_6  and  N_7
REMARK    4  A    between atoms: C_8  and  C_10
REMARK    5  A    between atoms: C_15  and  N_16
REMARK    6  A    between atoms: C_17  and  C_19
REMARK    7  A    between atoms: C_24  and  O_25
REMARK    8  A    between atoms: O_25  and  C_26
REMARK                            x       y       z     vdW  Elec       q    Type
REMARK                         _______ _______ _______ _____ _____    ______ ____
ROOT
ATOM      1  C   UNL     1       2.715   5.135  19.905  0.00  0.00    +0.000 A 
ATOM      2  C   UNL     1       1.891   4.844  21.013  0.00  0.00    +0.000 A 
ATOM      3  C   UNL     1       1.978   3.617  21.669  0.00  0.00    +0.000 A 
ATOM      4  C   UNL     1       2.900   2.679  21.236  0.00  0.00    +0.000 A 
ATOM      5  C   UNL     1       3.723   2.958  20.143  0.00  0.00    +0.000 A 
ATOM      6  C   UNL     1       3.649   4.178  19.446  0.00  0.00    +0.000 A 
ENDROOT
BRANCH   1   8
ATOM      7  N   UNL     1       1.540   7.262  19.847  0.00  0.00    +0.000 N 
ATOM      8  C   UNL     1       2.584   6.509  19.327  0.00  0.00    +0.000 C 
ATOM      9  O   UNL     1       3.352   6.869  18.447  0.00  0.00    +0.000 OA
ATOM     10  H   UNL     1       0.701   6.761  20.122  0.00  0.00    +0.000 HD
BRANCH   7  14
ATOM     11  C   UNL     1       1.188  11.454  19.496  0.00  0.00    +0.000 A 
ATOM     12  C   UNL     1       1.553  10.688  18.388  0.00  0.00    +0.000 A 
ATOM     13  C   UNL     1       1.613   9.291  18.473  0.00  0.00    +0.000 A 
ATOM     14  C   UNL     1       1.370   8.658  19.692  0.00  0.00    +0.000 A 
ATOM     15  C   UNL     1       1.067   9.430  20.831  0.00  0.00    +0.000 A 
ATOM     16  C   UNL     1       0.945  10.824  20.720  0.00  0.00    +0.000 A 
BRANCH  11  18
ATOM     17  C   UNL     1       2.130  13.333  18.399  0.00  0.00    +0.000 C 
ATOM     18  O   UNL     1       1.145  12.806  19.282  0.00  0.00    +0.000 OA
ENDBRANCH  11  18
BRANCH  15  19
ATOM     19  O   UNL     1       0.865   8.715  21.989  0.00  0.00    +0.000 OA
ATOM     20  C   UNL     1       0.005   9.294  22.961  0.00  0.00    +0.000 C 
ENDBRANCH  15  19
ENDBRANCH   7  14
ENDBRANCH   1   8
BRANCH   6  21
ATOM     21  N   UNL     1       4.497   4.431  18.334  0.00  0.00    +0.000 N 
ATOM     22  C   UNL     1       4.286   4.006  17.023  0.00  0.00    +0.000 C 
ATOM     23  O   UNL     1       3.268   3.442  16.629  0.00  0.00    +0.000 OA
ATOM     24  H   UNL     1       5.327   5.002  18.504  0.00  0.00    +0.000 HD
BRANCH  22  25
ATOM     25  C   UNL     1       5.362   4.300  16.096  0.00  0.00    +0.000 A 
ATOM     26  C   UNL     1       5.369   4.274  14.710  0.00  0.00    +0.000 A 
ATOM     27  C   UNL     1       6.671   4.635  14.300  0.00  0.00    +0.000 A 
ATOM     28  C   UNL     1       7.382   4.858  15.457  0.00  0.00    +0.000 A 
ATOM     29  O   UNL     1       6.600   4.661  16.551  0.00  0.00    +0.000 OA
ENDBRANCH  22  25
ENDBRANCH   6  21
TORSDOF 6
ENDMDL
MODEL 3
REMARK VINA RESULT:      -7.4      2.843      7.921
REMARK  Name = 
REMARK  8 active torsions:
REMARK  status: ('A' for Active; 'I' for Inactive)
REMARK    1  A    between atoms: C_1  and  O_2
REMARK    2  A    between atoms: O_2  and  C_3
REMARK    3  A    between atoms: C_6  and  N_7
REMARK    4  A    between atoms: C_8  and  C_10
REMARK    5  A    between atoms: C_15  and  N_16
REMARK    6  A    between atoms: C_17  and  C_19
REMARK    7  A    between atoms: C_24  and  O_25
REMARK    8  A    between atoms: O_25  and  C_26
REMARK                            x       y       z     vdW  Elec       q    Type
REMARK                         _______ _______ _______ _____ _____    ______ ____
ROOT
ATOM      1  C   UNL     1       0.846   9.111  20.777  0.00  0.00    +0.000 A 
ATOM      2  C   UNL     1       1.406   8.993  22.067  0.00  0.00    +0.000 A 
ATOM      3  C   UNL     1       0.756   9.516  23.183  0.00  0.00    +0.000 A 
ATOM      4  C   UNL     1      -0.468  10.145  23.023  0.00  0.00    +0.000 A 
ATOM      5  C   UNL     1      -1.034  10.263  21.751  0.00  0.00    +0.000 A 
ATOM      6  C   UNL     1      -0.395   9.765  20.601  0.00  0.00    +0.000 A 
ENDROOT
BRANCH   1   8
ATOM      7  N   UNL     1       2.334   7.333  20.045  0.00  0.00    +0.000 N 
ATOM      8  C   UNL     1       1.600   8.449  19.667  0.00  0.00    +0.000 C 
ATOM      9  O   UNL     1       1.552   8.922  18.541  0.00  0.00    +0.000 OA
ATOM     10  H   UNL     1       2.735   7.339  20.977  0.00  0.00    +0.000 HD
BRANCH   7  14
ATOM     11  C   UNL     1       3.827   4.456  17.342  0.00  0.00    +0.000 A 
ATOM     12  C   UNL     1       4.258   5.782  17.260  0.00  0.00    +0.000 A 
ATOM     13  C   UNL     1       3.819   6.734  18.189  0.00  0.00    +0.000 A 
ATOM     14  C   UNL     1       2.892   6.375  19.168  0.00  0.00    +0.000 A 
ATOM     15  C   UNL     1       2.402   5.055  19.213  0.00  0.00    +0.000 A 
ATOM     16  C   UNL     1       2.897   4.092  18.320  0.00  0.00    +0.000 A 
BRANCH  11  18
ATOM     17  C   UNL     1       5.648   3.930  15.916  0.00  0.00    +0.000 C 
ATOM     18  O   UNL     1       4.342   3.616  16.391  0.00  0.00    +0.000 OA
ENDBRANCH  11  18
BRANCH  15  19
ATOM     19  O   UNL     1       1.477   4.805  20.200  0.00  0.00    +0.000 OA
ATOM     20  C   UNL     1       0.949   3.486  20.270  0.00  0.00    +0.000 C 
ENDBRANCH  15  19
ENDBRANCH   7  14
ENDBRANCH   1   8
BRANCH   6  21
ATOM     21  N   UNL     1      -0.993   9.906  19.320  0.00  0.00    +0.000 N 
ATOM     22  C   UNL     1      -1.788  10.970  18.894  0.00  0.00    +0.000 C 
ATOM     23  O   UNL     1      -1.987  11.993  19.543  0.00  0.00    +0.000 OA
ATOM     24  H   UNL     1      -0.801   9.173  18.635  0.00  0.00    +0.000 HD
BRANCH  22  25
ATOM     25  C   UNL     1      -2.371  10.817  17.576  0.00  0.00    +0.000 A 
ATOM     26  C   UNL     1      -2.045   9.933  16.559  0.00  0.00    +0.000 A 
ATOM     27  C   UNL     1      -2.913  10.209  15.481  0.00  0.00    +0.000 A 
ATOM     28  C   UNL     1      -3.718  11.244  15.900  0.00  0.00    +0.000 A 
ATOM     29  O   UNL     1      -3.402  11.619  17.168  0.00  0.00    +0.000 OA
ENDBRANCH  22  25
ENDBRANCH   6  21
TORSDOF 6
ENDMDL
MODEL 4
REMARK VINA RESULT:      -7.3      1.912      4.900
REMARK  Name = 
REMARK  8 active torsions:
REMARK  status: ('A' for Active; 'I' for Inactive)
REMARK    1  A    between atoms: C_1  and  O_2
REMARK    2  A    between atoms: O_2  and  C_3
REMARK    3  A    between atoms: C_6  and  N_7
REMARK    4  A    between atoms: C_8  and  C_10
REMARK    5  A    between atoms: C_15  and  N_16
REMARK    6  A    between atoms: C_17  and  C_19
REMARK    7  A    between atoms: C_24  and  O_25
REMARK    8  A    between atoms: O_25  and  C_26
REMARK                            x       y       z     vdW  Elec       q    Type
REMARK                         _______ _______ _______ _____ _____    ______ ____
ROOT
ATOM      1  C   UNL     1       4.776   5.802  16.679  0.00  0.00    +0.000 A 
ATOM      2  C   UNL     1       5.368   6.276  15.490  0.00  0.00    +0.000 A 
ATOM      3  C   UNL     1       5.809   5.393  14.505  0.00  0.00    +0.000 A 
ATOM      4  C   UNL     1       5.645   4.031  14.693  0.00  0.00    +0.000 A 
ATOM      5  C   UNL     1       5.057   3.551  15.865  0.00  0.00    +0.000 A 
ATOM      6  C   UNL     1       4.619   4.412  16.887  0.00  0.00    +0.000 A 
ENDROOT
BRANCH   1   8
ATOM      7  N   UNL     1       2.924   6.763  17.926  0.00  0.00    +0.000 N 
ATOM      8  C   UNL     1       4.278   6.844  17.630  0.00  0.00    +0.000 C 
ATOM      9  O   UNL     1       5.050   7.691  18.056  0.00  0.00    +0.000 OA
ATOM     10  H   UNL     1       2.309   6.435  17.189  0.00  0.00    +0.000 HD
BRANCH   7  14
ATOM     11  C   UNL     1       0.808   8.743  20.995  0.00  0.00    +0.000 A 
ATOM     12  C   UNL     1       1.234   7.426  21.177  0.00  0.00    +0.000 A 
ATOM     13  C   UNL     1       1.991   6.778  20.194  0.00  0.00    +0.000 A 
ATOM     14  C   UNL     1       2.269   7.427  18.990  0.00  0.00    +0.000 A 
ATOM     15  C   UNL     1       1.784   8.731  18.772  0.00  0.00    +0.000 A 
ATOM     16  C   UNL     1       1.083   9.397  19.790  0.00  0.00    +0.000 A 
BRANCH  11  18
ATOM     17  C   UNL     1      -0.354  10.616  21.869  0.00  0.00    +0.000 C 
ATOM     18  O   UNL     1       0.094   9.275  22.036  0.00  0.00    +0.000 OA
ENDBRANCH  11  18
BRANCH  15  19
ATOM     19  O   UNL     1       2.092   9.277  17.548  0.00  0.00    +0.000 OA
ATOM     20  C   UNL     1       2.386  10.668  17.518  0.00  0.00    +0.000 C 
ENDBRANCH  15  19
ENDBRANCH   7  14
ENDBRANCH   1   8
BRANCH   6  21
ATOM     21  N   UNL     1       4.028   3.892  18.071  0.00  0.00    +0.000 N 
ATOM     22  C   UNL     1       2.675   3.622  18.266  0.00  0.00    +0.000 C 
ATOM     23  O   UNL     1       1.817   3.695  17.391  0.00  0.00    +0.000 OA
ATOM     24  H   UNL     1       4.659   3.668  18.843  0.00  0.00    +0.000 HD
BRANCH  22  25
ATOM     25  C   UNL     1       2.315   3.203  19.607  0.00  0.00    +0.000 A 
ATOM     26  C   UNL     1       1.068   3.136  20.209  0.00  0.00    +0.000 A 
ATOM     27  C   UNL     1       1.273   2.671  21.526  0.00  0.00    +0.000 A 
ATOM     28  C   UNL     1       2.631   2.482  21.652  0.00  0.00    +0.000 A 
ATOM     29  O   UNL     1       3.272   2.797  20.496  0.00  0.00    +0.000 OA
ENDBRANCH  22  25
ENDBRANCH   6  21
TORSDOF 6
ENDMDL
MODEL 5
REMARK VINA RESULT:      -7.3      2.279      3.177
REMARK  Name = 
REMARK  8 active torsions:
REMARK  status: ('A' for Active; 'I' for Inactive)
REMARK    1  A    between atoms: C_1  and  O_2
REMARK    2  A    between atoms: O_2  and  C_3
REMARK    3  A    between atoms: C_6  and  N_7
REMARK    4  A    between atoms: C_8  and  C_10
REMARK    5  A    between atoms: C_15  and  N_16
REMARK    6  A    between atoms: C_17  and  C_19
REMARK    7  A    between atoms: C_24  and  O_25
REMARK    8  A    between atoms: O_25  and  C_26
REMARK                            x       y       z     vdW  Elec       q    Type
REMARK                         _______ _______ _______ _____ _____    ______ ____
ROOT
ATOM      1  C   UNL     1       2.271   4.473  19.340  0.00  0.00    +0.000 A 
ATOM      2  C   UNL     1       1.181   3.577  19.299  0.00  0.00    +0.000 A 
ATOM      3  C   UNL     1       1.220   2.435  18.501  0.00  0.00    +0.000 A 
ATOM      4  C   UNL     1       2.354   2.170  17.751  0.00  0.00    +0.000 A 
ATOM      5  C   UNL     1       3.440   3.047  17.787  0.00  0.00    +0.000 A 
ATOM      6  C   UNL     1       3.426   4.219  18.566  0.00  0.00    +0.000 A 
ENDROOT
BRANCH   1   8
ATOM      7  N   UNL     1       1.932   6.856  19.682  0.00  0.00    +0.000 N 
ATOM      8  C   UNL     1       2.143   5.625  20.287  0.00  0.00    +0.000 C 
ATOM      9  O   UNL     1       2.255   5.432  21.489  0.00  0.00    +0.000 OA
ATOM     10  H   UNL     1       2.368   7.007  18.778  0.00  0.00    +0.000 HD
BRANCH   7  14
ATOM     11  C   UNL     1       0.470  10.351  21.543  0.00  0.00    +0.000 A 
ATOM     12  C   UNL     1       0.751   9.217  22.307  0.00  0.00    +0.000 A 
ATOM     13  C   UNL     1       1.295   8.072  21.713  0.00  0.00    +0.000 A 
ATOM     14  C   UNL     1       1.500   8.034  20.333  0.00  0.00    +0.000 A 
ATOM     15  C   UNL     1       1.155   9.151  19.547  0.00  0.00    +0.000 A 
ATOM     16  C   UNL     1       0.672  10.318  20.160  0.00  0.00    +0.000 A 
BRANCH  11  18
ATOM     17  C   UNL     1      -1.215  11.158  23.003  0.00  0.00    +0.000 C 
ATOM     18  O   UNL     1      -0.039  11.414  22.240  0.00  0.00    +0.000 OA
ENDBRANCH  11  18
BRANCH  15  19
ATOM     19  O   UNL     1       1.375   9.010  18.196  0.00  0.00    +0.000 OA
ATOM     20  C   UNL     1       2.341   9.870  17.607  0.00  0.00    +0.000 C 
ENDBRANCH  15  19
ENDBRANCH   7  14
ENDBRANCH   1   8
BRANCH   6  21
ATOM     21  N   UNL     1       4.545   5.095  18.578  0.00  0.00    +0.000 N 
ATOM     22  C   UNL     1       5.172   5.646  17.461  0.00  0.00    +0.000 C 
ATOM     23  O   UNL     1       4.766   5.533  16.308  0.00  0.00    +0.000 OA
ATOM     24  H   UNL     1       4.908   5.372  19.492  0.00  0.00    +0.000 HD
BRANCH  22  25
ATOM     25  C   UNL     1       6.365   6.421  17.741  0.00  0.00    +0.000 A 
ATOM     26  C   UNL     1       7.394   6.171  18.636  0.00  0.00    +0.000 A 
ATOM     27  C   UNL     1       8.307   7.242  18.521  0.00  0.00    +0.000 A 
ATOM     28  C   UNL     1       7.783   8.082  17.565  0.00  0.00    +0.000 A 
ATOM     29  O   UNL     1       6.610   7.595  17.083  0.00  0.00    +0.000 OA
ENDBRANCH  22  25
ENDBRANCH   6  21
TORSDOF 6
ENDMDL
MODEL 6
REMARK VINA RESULT:      -7.2      2.210      3.013
REMARK  Name = 
REMARK  8 active torsions:
REMARK  status: ('A' for Active; 'I' for Inactive)
REMARK    1  A    between atoms: C_1  and  O_2
REMARK    2  A    between atoms: O_2  and  C_3
REMARK    3  A    between atoms: C_6  and  N_7
REMARK    4  A    between atoms: C_8  and  C_10
REMARK    5  A    between atoms: C_15  and  N_16
REMARK    6  A    between atoms: C_17  and  C_19
REMARK    7  A    between atoms: C_24  and  O_25
REMARK    8  A    between atoms: O_25  and  C_26
REMARK                            x       y       z     vdW  Elec       q    Type
REMARK                         _______ _______ _______ _____ _____    ______ ____
ROOT
ATOM      1  C   UNL     1       2.041   4.433  19.379  0.00  0.00    +0.000 A 
ATOM      2  C   UNL     1       0.955   3.557  19.590  0.00  0.00    +0.000 A 
ATOM      3  C   UNL     1       0.841   2.369  18.871  0.00  0.00    +0.000 A 
ATOM      4  C   UNL     1       1.819   2.037  17.948  0.00  0.00    +0.000 A 
ATOM      5  C   UNL     1       2.900   2.895  17.734  0.00  0.00    +0.000 A 
ATOM      6  C   UNL     1       3.036   4.111  18.428  0.00  0.00    +0.000 A 
ENDROOT
BRANCH   1   8
ATOM      7  N   UNL     1       1.676   6.821  19.657  0.00  0.00    +0.000 N 
ATOM      8  C   UNL     1       2.095   5.642  20.259  0.00  0.00    +0.000 C 
ATOM      9  O   UNL     1       2.514   5.537  21.403  0.00  0.00    +0.000 OA
ATOM     10  H   UNL     1       1.864   6.925  18.665  0.00  0.00    +0.000 HD
BRANCH   7  14
ATOM     11  C   UNL     1       0.563  10.415  21.570  0.00  0.00    +0.000 A 
ATOM     12  C   UNL     1       0.688   9.239  22.311  0.00  0.00    +0.000 A 
ATOM     13  C   UNL     1       1.116   8.053  21.702  0.00  0.00    +0.000 A 
ATOM     14  C   UNL     1       1.360   8.025  20.328  0.00  0.00    +0.000 A 
ATOM     15  C   UNL     1       1.171   9.192  19.562  0.00  0.00    +0.000 A 
ATOM     16  C   UNL     1       0.805  10.392  20.193  0.00  0.00    +0.000 A 
BRANCH  11  18
ATOM     17  C   UNL     1      -1.128  11.424  22.891  0.00  0.00    +0.000 C 
ATOM     18  O   UNL     1       0.156  11.513  22.281  0.00  0.00    +0.000 OA
ENDBRANCH  11  18
BRANCH  15  19
ATOM     19  O   UNL     1       1.416   9.059  18.216  0.00  0.00    +0.000 OA
ATOM     20  C   UNL     1       2.289  10.011  17.622  0.00  0.00    +0.000 C 
ENDBRANCH  15  19
ENDBRANCH   7  14
ENDBRANCH   1   8
BRANCH   6  21
ATOM     21  N   UNL     1       4.146   4.966  18.184  0.00  0.00    +0.000 N 
ATOM     22  C   UNL     1       5.438   4.799  18.678  0.00  0.00    +0.000 C 
ATOM     23  O   UNL     1       5.822   3.817  19.308  0.00  0.00    +0.000 OA
ATOM     24  H   UNL     1       3.989   5.763  17.565  0.00  0.00    +0.000 HD
BRANCH  22  25
ATOM     25  C   UNL     1       6.361   5.875  18.373  0.00  0.00    +0.000 A 
ATOM     26  C   UNL     1       6.317   6.820  17.360  0.00  0.00    +0.000 A 
ATOM     27  C   UNL     1       7.462   7.632  17.506  0.00  0.00    +0.000 A 
ATOM     28  C   UNL     1       8.138   7.137  18.598  0.00  0.00    +0.000 A 
ATOM     29  O   UNL     1       7.481   6.075  19.134  0.00  0.00    +0.000 OA
ENDBRANCH  22  25
ENDBRANCH   6  21
TORSDOF 6
ENDMDL
MODEL 7
REMARK VINA RESULT:      -7.2      1.355      7.270
REMARK  Name = 
REMARK  8 active torsions:
REMARK  status: ('A' for Active; 'I' for Inactive)
REMARK    1  A    between atoms: C_1  and  O_2
REMARK    2  A    between atoms: O_2  and  C_3
REMARK    3  A    between atoms: C_6  and  N_7
REMARK    4  A    between atoms: C_8  and  C_10
REMARK    5  A    between atoms: C_15  and  N_16
REMARK    6  A    between atoms: C_17  and  C_19
REMARK    7  A    between atoms: C_24  and  O_25
REMARK    8  A    between atoms: O_25  and  C_26
REMARK                            x       y       z     vdW  Elec       q    Type
REMARK                         _______ _______ _______ _____ _____    ______ ____
ROOT
ATOM      1  C   UNL     1       3.334   4.627  19.504  0.00  0.00    +0.000 A 
ATOM      2  C   UNL     1       3.660   3.328  19.945  0.00  0.00    +0.000 A 
ATOM      3  C   UNL     1       2.888   2.682  20.909  0.00  0.00    +0.000 A 
ATOM      4  C   UNL     1       1.773   3.321  21.426  0.00  0.00    +0.000 A 
ATOM      5  C   UNL     1       1.439   4.606  20.993  0.00  0.00    +0.000 A 
ATOM      6  C   UNL     1       2.207   5.294  20.037  0.00  0.00    +0.000 A 
ENDROOT
BRANCH   1   8
ATOM      7  N   UNL     1       4.939   4.251  17.717  0.00  0.00    +0.000 N 
ATOM      8  C   UNL     1       4.193   5.190  18.415  0.00  0.00    +0.000 C 
ATOM      9  O   UNL     1       4.211   6.398  18.226  0.00  0.00    +0.000 OA
ATOM     10  H   UNL     1       5.268   3.444  18.236  0.00  0.00    +0.000 HD
BRANCH   7  14
ATOM     11  C   UNL     1       7.026   4.760  14.083  0.00  0.00    +0.000 A 
ATOM     12  C   UNL     1       5.729   4.243  14.078  0.00  0.00    +0.000 A 
ATOM     13  C   UNL     1       5.001   4.127  15.269  0.00  0.00    +0.000 A 
ATOM     14  C   UNL     1       5.596   4.468  16.484  0.00  0.00    +0.000 A 
ATOM     15  C   UNL     1       6.928   4.927  16.503  0.00  0.00    +0.000 A 
ATOM     16  C   UNL     1       7.627   5.102  15.298  0.00  0.00    +0.000 A 
BRANCH  11  18
ATOM     17  C   UNL     1       7.093   3.999  11.839  0.00  0.00    +0.000 C 
ATOM     18  O   UNL     1       7.626   4.843  12.855  0.00  0.00    +0.000 OA
ENDBRANCH  11  18
BRANCH  15  19
ATOM     19  O   UNL     1       7.432   5.218  17.749  0.00  0.00    +0.000 OA
ATOM     20  C   UNL     1       7.669   6.589  18.045  0.00  0.00    +0.000 C 
ENDBRANCH  15  19
ENDBRANCH   7  14
ENDBRANCH   1   8
BRANCH   6  21
ATOM     21  N   UNL     1       1.843   6.603  19.620  0.00  0.00    +0.000 N 
ATOM     22  C   UNL     1       1.659   7.710  20.447  0.00  0.00    +0.000 C 
ATOM     23  O   UNL     1       1.898   7.727  21.652  0.00  0.00    +0.000 OA
ATOM     24  H   UNL     1       1.734   6.757  18.615  0.00  0.00    +0.000 HD
BRANCH  22  25
ATOM     25  C   UNL     1       1.178   8.906  19.783  0.00  0.00    +0.000 A 
ATOM     26  C   UNL     1       1.510   9.424  18.541  0.00  0.00    +0.000 A 
ATOM     27  C   UNL     1       0.763  10.611  18.379  0.00  0.00    +0.000 A 
ATOM     28  C   UNL     1       0.021  10.750  19.529  0.00  0.00    +0.000 A 
ATOM     29  O   UNL     1       0.261   9.722  20.386  0.00  0.00    +0.000 OA
ENDBRANCH  22  25
ENDBRANCH   6  21
TORSDOF 6
ENDMDL
MODEL 8
REMARK VINA RESULT:      -6.9      2.297      7.820
REMARK  Name = 
REMARK  8 active torsions:
REMARK  status: ('A' for Active; 'I' for Inactive)
REMARK    1  A    between atoms: C_1  and  O_2
REMARK    2  A    between atoms: O_2  and  C_3
REMARK    3  A    between atoms: C_6  and  N_7
REMARK    4  A    between atoms: C_8  and  C_10
REMARK    5  A    between atoms: C_15  and  N_16
REMARK    6  A    between atoms: C_17  and  C_19
REMARK    7  A    between atoms: C_24  and  O_25
REMARK    8  A    between atoms: O_25  and  C_26
REMARK                            x       y       z     vdW  Elec       q    Type
REMARK                         _______ _______ _______ _____ _____    ______ ____
ROOT
ATOM      1  C   UNL     1       0.689   9.463  20.941  0.00  0.00    +0.000 A 
ATOM      2  C   UNL     1       0.020   8.598  21.833  0.00  0.00    +0.000 A 
ATOM      3  C   UNL     1      -0.760   9.103  22.872  0.00  0.00    +0.000 A 
ATOM      4  C   UNL     1      -0.894  10.474  23.017  0.00  0.00    +0.000 A 
ATOM      5  C   UNL     1      -0.240  11.338  22.136  0.00  0.00    +0.000 A 
ATOM      6  C   UNL     1       0.571  10.864  21.089  0.00  0.00    +0.000 A 
ENDROOT
BRANCH   1   8
ATOM      7  N   UNL     1       2.164   7.683  20.189  0.00  0.00    +0.000 N 
ATOM      8  C   UNL     1       1.438   8.808  19.823  0.00  0.00    +0.000 C 
ATOM      9  O   UNL     1       1.394   9.293  18.702  0.00  0.00    +0.000 OA
ATOM     10  H   UNL     1       2.565   7.675  21.122  0.00  0.00    +0.000 HD
BRANCH   7  14
ATOM     11  C   UNL     1       3.634   4.811  17.467  0.00  0.00    +0.000 A 
ATOM     12  C   UNL     1       3.990   6.154  17.327  0.00  0.00    +0.000 A 
ATOM     13  C   UNL     1       3.561   7.108  18.258  0.00  0.00    +0.000 A 
ATOM     14  C   UNL     1       2.716   6.730  19.302  0.00  0.00    +0.000 A 
ATOM     15  C   UNL     1       2.298   5.389  19.410  0.00  0.00    +0.000 A 
ATOM     16  C   UNL     1       2.786   4.428  18.510  0.00  0.00    +0.000 A 
BRANCH  11  18
ATOM     17  C   UNL     1       5.411   4.311  15.979  0.00  0.00    +0.000 C 
ATOM     18  O   UNL     1       4.132   3.972  16.506  0.00  0.00    +0.000 OA
ENDBRANCH  11  18
BRANCH  15  19
ATOM     19  O   UNL     1       1.450   5.119  20.458  0.00  0.00    +0.000 OA
ATOM     20  C   UNL     1       1.098   3.758  20.670  0.00  0.00    +0.000 C 
ENDBRANCH  15  19
ENDBRANCH   7  14
ENDBRANCH   1   8
BRANCH   6  21
ATOM     21  N   UNL     1       1.228  11.769  20.213  0.00  0.00    +0.000 N 
ATOM     22  C   UNL     1       1.765  13.008  20.559  0.00  0.00    +0.000 C 
ATOM     23  O   UNL     1       1.840  13.439  21.707  0.00  0.00    +0.000 OA
ATOM     24  H   UNL     1       1.344  11.473  19.242  0.00  0.00    +0.000 HD
BRANCH  22  25
ATOM     25  C   UNL     1       2.282  13.790  19.452  0.00  0.00    +0.000 A 
ATOM     26  C   UNL     1       2.861  13.370  18.265  0.00  0.00    +0.000 A 
ATOM     27  C   UNL     1       3.198  14.533  17.538  0.00  0.00    +0.000 A 
ATOM     28  C   UNL     1       2.806  15.593  18.323  0.00  0.00    +0.000 A 
ATOM     29  O   UNL     1       2.247  15.157  19.483  0.00  0.00    +0.000 OA
ENDBRANCH  22  25
ENDBRANCH   6  21
TORSDOF 6
ENDMDL
MODEL 9
REMARK VINA RESULT:      -6.9      1.530      6.899
REMARK  Name = 
REMARK  8 active torsions:
REMARK  status: ('A' for Active; 'I' for Inactive)
REMARK    1  A    between atoms: C_1  and  O_2
REMARK    2  A    between atoms: O_2  and  C_3
REMARK    3  A    between atoms: C_6  and  N_7
REMARK    4  A    between atoms: C_8  and  C_10
REMARK    5  A    between atoms: C_15  and  N_16
REMARK    6  A    between atoms: C_17  and  C_19
REMARK    7  A    between atoms: C_24  and  O_25
REMARK    8  A    between atoms: O_25  and  C_26
REMARK                            x       y       z     vdW  Elec       q    Type
REMARK                         _______ _______ _______ _____ _____    ______ ____
ROOT
ATOM      1  C   UNL     1       3.072   3.578  19.279  0.00  0.00    +0.000 A 
ATOM      2  C   UNL     1       3.478   2.320  19.773  0.00  0.00    +0.000 A 
ATOM      3  C   UNL     1       3.128   1.907  21.057  0.00  0.00    +0.000 A 
ATOM      4  C   UNL     1       2.355   2.738  21.851  0.00  0.00    +0.000 A 
ATOM      5  C   UNL     1       1.945   3.983  21.370  0.00  0.00    +0.000 A 
ATOM      6  C   UNL     1       2.296   4.440  20.087  0.00  0.00    +0.000 A 
ENDROOT
BRANCH   1   8
ATOM      7  N   UNL     1       4.691   4.476  17.702  0.00  0.00    +0.000 N 
ATOM      8  C   UNL     1       3.446   3.882  17.862  0.00  0.00    +0.000 C 
ATOM      9  O   UNL     1       2.658   3.628  16.963  0.00  0.00    +0.000 OA
ATOM     10  H   UNL     1       5.002   5.101  18.439  0.00  0.00    +0.000 HD
BRANCH   7  14
ATOM     11  C   UNL     1       6.904   4.704  14.116  0.00  0.00    +0.000 A 
ATOM     12  C   UNL     1       5.562   4.320  14.086  0.00  0.00    +0.000 A 
ATOM     13  C   UNL     1       4.799   4.301  15.259  0.00  0.00    +0.000 A 
ATOM     14  C   UNL     1       5.396   4.603  16.483  0.00  0.00    +0.000 A 
ATOM     15  C   UNL     1       6.767   4.925  16.530  0.00  0.00    +0.000 A 
ATOM     16  C   UNL     1       7.508   5.006  15.340  0.00  0.00    +0.000 A 
BRANCH  11  18
ATOM     17  C   UNL     1       7.021   3.805  11.925  0.00  0.00    +0.000 C 
ATOM     18  O   UNL     1       7.538   4.703  12.902  0.00  0.00    +0.000 OA
ENDBRANCH  11  18
BRANCH  15  19
ATOM     19  O   UNL     1       7.268   5.187  17.783  0.00  0.00    +0.000 OA
ATOM     20  C   UNL     1       7.574   6.542  18.085  0.00  0.00    +0.000 C 
ENDBRANCH  15  19
ENDBRANCH   7  14
ENDBRANCH   1   8
BRANCH   6  21
ATOM     21  N   UNL     1       1.867   5.715  19.628  0.00  0.00    +0.000 N 
ATOM     22  C   UNL     1       2.682   6.818  19.378  0.00  0.00    +0.000 C 
ATOM     23  O   UNL     1       3.909   6.800  19.417  0.00  0.00    +0.000 OA
ATOM     24  H   UNL     1       0.870   5.826  19.434  0.00  0.00    +0.000 HD
BRANCH  22  25
ATOM     25  C   UNL     1       1.982   8.037  19.025  0.00  0.00    +0.000 A 
ATOM     26  C   UNL     1       1.866   8.669  17.796  0.00  0.00    +0.000 A 
ATOM     27  C   UNL     1       1.085   9.826  18.001  0.00  0.00    +0.000 A 
ATOM     28  C   UNL     1       0.769   9.835  19.341  0.00  0.00    +0.000 A 
ATOM     29  O   UNL     1       1.303   8.756  19.971  0.00  0.00    +0.000 OA
ENDBRANCH  22  25
ENDBRANCH   6  21
TORSDOF 6
ENDMDL
