MODEL 1
REMARK VINA RESULT:      -8.3      0.000      0.000
REMARK  Name = 
REMARK  6 active torsions:
REMARK  status: ('A' for Active; 'I' for Inactive)
REMARK    1  A    between atoms: C_1  and  O_2
REMARK    2  A    between atoms: O_2  and  C_3
REMARK    3  A    between atoms: C_6  and  S_7
REMARK    4  A    between atoms: S_7  and  N_10
REMARK    5  A    between atoms: C_17  and  N_18
REMARK    6  A    between atoms: C_19  and  C_21
REMARK                            x       y       z     vdW  Elec       q    Type
REMARK                         _______ _______ _______ _____ _____    ______ ____
ROOT
ATOM      1  C   UNL     1       6.422   5.553  15.904  0.00  0.00    +0.000 A 
ATOM      2  C   UNL     1       5.511   4.502  15.700  0.00  0.00    +0.000 A 
ATOM      3  C   UNL     1       4.345   4.414  16.463  0.00  0.00    +0.000 A 
ATOM      4  C   UNL     1       4.080   5.388  17.424  0.00  0.00    +0.000 A 
ATOM      5  C   UNL     1       4.941   6.471  17.582  0.00  0.00    +0.000 A 
ATOM      6  C   UNL     1       6.112   6.579  16.820  0.00  0.00    +0.000 A 
ENDROOT
BRANCH   6   7
ATOM      7  N   UNL     1       6.935   7.737  16.922  0.00  0.00    +0.000 N 
ATOM      8  C   UNL     1       7.840   7.953  17.952  0.00  0.00    +0.000 C 
ATOM      9  O   UNL     1       8.246   7.087  18.724  0.00  0.00    +0.000 OA
ATOM     10  H   UNL     1       6.897   8.378  16.137  0.00  0.00    +0.000 HD
BRANCH   8  11
ATOM     11  C   UNL     1       8.401   9.317  18.133  0.00  0.00    +0.000 A 
ATOM     12  C   UNL     1       9.351   9.478  19.156  0.00  0.00    +0.000 A 
ATOM     13  C   UNL     1       9.836  10.742  19.489  0.00  0.00    +0.000 A 
ATOM     14  C   UNL     1       9.358  11.860  18.810  0.00  0.00    +0.000 A 
ATOM     15  C   UNL     1       8.403  11.705  17.805  0.00  0.00    +0.000 A 
ATOM     16 CL   UNL     1       7.792  13.107  17.010  0.00  0.00    +0.000 Cl
ATOM     17  C   UNL     1       7.917  10.439  17.456  0.00  0.00    +0.000 A 
ENDBRANCH   8  11
ENDBRANCH   6   7
BRANCH   4  18
ATOM     18  S   UNL     1       2.583   5.266  18.367  0.00  0.00    +0.000 S 
ATOM     19  O   UNL     1       2.168   6.622  18.620  0.00  0.00    +0.000 OA
ATOM     20  O   UNL     1       1.721   4.337  17.667  0.00  0.00    +0.000 OA
BRANCH  18  21
ATOM     21  N   UNL     1       3.024   4.571  19.859  0.00  0.00    +0.000 NA
ATOM     22  C   UNL     1       3.698   3.232  19.830  0.00  0.00    +0.000 C 
ATOM     23  C   UNL     1       2.676   2.100  19.648  0.00  0.00    +0.000 C 
ATOM     24  O   UNL     1       1.647   2.145  20.651  0.00  0.00    +0.000 OA
ATOM     25  C   UNL     1       0.975   3.413  20.667  0.00  0.00    +0.000 C 
ATOM     26  C   UNL     1       1.959   4.560  20.907  0.00  0.00    +0.000 C 
ENDBRANCH  18  21
ENDBRANCH   4  18
BRANCH   1  28
ATOM     27  C   UNL     1       7.575   5.169  13.885  0.00  0.00    +0.000 C 
ATOM     28  O   UNL     1       7.629   5.620  15.245  0.00  0.00    +0.000 OA
ENDBRANCH   1  28
TORSDOF 5
ENDMDL
MODEL 2
REMARK VINA RESULT:      -8.1      1.198      1.657
REMARK  Name = 
REMARK  6 active torsions:
REMARK  status: ('A' for Active; 'I' for Inactive)
REMARK    1  A    between atoms: C_1  and  O_2
REMARK    2  A    between atoms: O_2  and  C_3
REMARK    3  A    between atoms: C_6  and  S_7
REMARK    4  A    between atoms: S_7  and  N_10
REMARK    5  A    between atoms: C_17  and  N_18
REMARK    6  A    between atoms: C_19  and  C_21
REMARK                            x       y       z     vdW  Elec       q    Type
REMARK                         _______ _______ _______ _____ _____    ______ ____
ROOT
ATOM      1  C   UNL     1       6.560   5.557  15.913  0.00  0.00    +0.000 A 
ATOM      2  C   UNL     1       5.717   4.450  15.714  0.00  0.00    +0.000 A 
ATOM      3  C   UNL     1       4.620   4.232  16.549  0.00  0.00    +0.000 A 
ATOM      4  C   UNL     1       4.354   5.132  17.580  0.00  0.00    +0.000 A 
ATOM      5  C   UNL     1       5.142   6.269  17.740  0.00  0.00    +0.000 A 
ATOM      6  C   UNL     1       6.243   6.507  16.906  0.00  0.00    +0.000 A 
ENDROOT
BRANCH   6   7
ATOM      7  N   UNL     1       6.982   7.719  17.016  0.00  0.00    +0.000 N 
ATOM      8  C   UNL     1       7.889   7.980  18.034  0.00  0.00    +0.000 C 
ATOM      9  O   UNL     1       8.371   7.131  18.782  0.00  0.00    +0.000 OA
ATOM     10  H   UNL     1       6.885   8.370  16.246  0.00  0.00    +0.000 HD
BRANCH   8  11
ATOM     11  C   UNL     1       8.355   9.377  18.233  0.00  0.00    +0.000 A 
ATOM     12  C   UNL     1       7.802  10.354  17.388  0.00  0.00    +0.000 A 
ATOM     13  C   UNL     1       8.271  11.666  17.408  0.00  0.00    +0.000 A 
ATOM     14  C   UNL     1       9.313  12.008  18.265  0.00  0.00    +0.000 A 
ATOM     15  C   UNL     1       9.875  11.037  19.095  0.00  0.00    +0.000 A 
ATOM     16 CL   UNL     1      11.195  11.472  20.114  0.00  0.00    +0.000 Cl
ATOM     17  C   UNL     1       9.405   9.718  19.089  0.00  0.00    +0.000 A 
ENDBRANCH   8  11
ENDBRANCH   6   7
BRANCH   4  18
ATOM     18  S   UNL     1       2.944   4.844  18.616  0.00  0.00    +0.000 S 
ATOM     19  O   UNL     1       3.179   5.606  19.816  0.00  0.00    +0.000 OA
ATOM     20  O   UNL     1       1.770   5.073  17.800  0.00  0.00    +0.000 OA
BRANCH  18  21
ATOM     21  N   UNL     1       2.997   3.192  19.031  0.00  0.00    +0.000 NA
ATOM     22  C   UNL     1       1.757   2.380  18.812  0.00  0.00    +0.000 C 
ATOM     23  C   UNL     1       0.745   2.594  19.948  0.00  0.00    +0.000 C 
ATOM     24  O   UNL     1       1.324   2.324  21.235  0.00  0.00    +0.000 OA
ATOM     25  C   UNL     1       2.496   3.120  21.468  0.00  0.00    +0.000 C 
ATOM     26  C   UNL     1       3.551   2.884  20.385  0.00  0.00    +0.000 C 
ENDBRANCH  18  21
ENDBRANCH   4  18
BRANCH   1  28
ATOM     27  C   UNL     1       7.701   5.092  13.905  0.00  0.00    +0.000 C 
ATOM     28  O   UNL     1       7.707   5.753  15.177  0.00  0.00    +0.000 OA
ENDBRANCH   1  28
TORSDOF 5
ENDMDL
MODEL 3
REMARK VINA RESULT:      -8.0      1.717      2.202
REMARK  Name = 
REMARK  6 active torsions:
REMARK  status: ('A' for Active; 'I' for Inactive)
REMARK    1  A    between atoms: C_1  and  O_2
REMARK    2  A    between atoms: O_2  and  C_3
REMARK    3  A    between atoms: C_6  and  S_7
REMARK    4  A    between atoms: S_7  and  N_10
REMARK    5  A    between atoms: C_17  and  N_18
REMARK    6  A    between atoms: C_19  and  C_21
REMARK                            x       y       z     vdW  Elec       q    Type
REMARK                         _______ _______ _______ _____ _____    ______ ____
ROOT
ATOM      1  C   UNL     1       7.033   5.270  15.344  0.00  0.00    +0.000 A 
ATOM      2  C   UNL     1       6.296   4.108  15.058  0.00  0.00    +0.000 A 
ATOM      3  C   UNL     1       5.437   3.559  16.011  0.00  0.00    +0.000 A 
ATOM      4  C   UNL     1       5.301   4.180  17.251  0.00  0.00    +0.000 A 
ATOM      5  C   UNL     1       5.972   5.371  17.516  0.00  0.00    +0.000 A 
ATOM      6  C   UNL     1       6.833   5.941  16.568  0.00  0.00    +0.000 A 
ENDROOT
BRANCH   6   7
ATOM      7  N   UNL     1       7.439   7.206  16.813  0.00  0.00    +0.000 N 
ATOM      8  C   UNL     1       7.994   7.574  18.030  0.00  0.00    +0.000 C 
ATOM      9  O   UNL     1       8.284   6.794  18.936  0.00  0.00    +0.000 OA
ATOM     10  H   UNL     1       7.533   7.815  16.008  0.00  0.00    +0.000 HD
BRANCH   8  11
ATOM     11  C   UNL     1       8.302   9.008  18.269  0.00  0.00    +0.000 A 
ATOM     12  C   UNL     1       7.761   9.931  17.357  0.00  0.00    +0.000 A 
ATOM     13  C   UNL     1       8.101  11.281  17.419  0.00  0.00    +0.000 A 
ATOM     14  C   UNL     1       9.002  11.717  18.387  0.00  0.00    +0.000 A 
ATOM     15  C   UNL     1       9.552  10.801  19.284  0.00  0.00    +0.000 A 
ATOM     16 CL   UNL     1      10.701  11.356  20.444  0.00  0.00    +0.000 Cl
ATOM     17  C   UNL     1       9.210   9.444  19.236  0.00  0.00    +0.000 A 
ENDBRANCH   8  11
ENDBRANCH   6   7
BRANCH   4  18
ATOM     18  S   UNL     1       4.189   3.474  18.438  0.00  0.00    +0.000 S 
ATOM     19  O   UNL     1       3.676   2.275  17.828  0.00  0.00    +0.000 OA
ATOM     20  O   UNL     1       4.896   3.430  19.701  0.00  0.00    +0.000 OA
BRANCH  18  21
ATOM     21  N   UNL     1       2.898   4.577  18.584  0.00  0.00    +0.000 NA
ATOM     22  C   UNL     1       2.814   5.387  19.842  0.00  0.00    +0.000 C 
ATOM     23  C   UNL     1       2.197   4.572  20.988  0.00  0.00    +0.000 C 
ATOM     24  O   UNL     1       0.914   4.033  20.628  0.00  0.00    +0.000 OA
ATOM     25  C   UNL     1       0.988   3.229  19.441  0.00  0.00    +0.000 C 
ATOM     26  C   UNL     1       1.543   4.032  18.262  0.00  0.00    +0.000 C 
ENDBRANCH  18  21
ENDBRANCH   4  18
BRANCH   1  28
ATOM     27  C   UNL     1       7.901   5.225  13.154  0.00  0.00    +0.000 C 
ATOM     28  O   UNL     1       7.965   5.786  14.472  0.00  0.00    +0.000 OA
ENDBRANCH   1  28
TORSDOF 5
ENDMDL
MODEL 4
REMARK VINA RESULT:      -8.0      0.842      1.273
REMARK  Name = 
REMARK  6 active torsions:
REMARK  status: ('A' for Active; 'I' for Inactive)
REMARK    1  A    between atoms: C_1  and  O_2
REMARK    2  A    between atoms: O_2  and  C_3
REMARK    3  A    between atoms: C_6  and  S_7
REMARK    4  A    between atoms: S_7  and  N_10
REMARK    5  A    between atoms: C_17  and  N_18
REMARK    6  A    between atoms: C_19  and  C_21
REMARK                            x       y       z     vdW  Elec       q    Type
REMARK                         _______ _______ _______ _____ _____    ______ ____
ROOT
ATOM      1  C   UNL     1       6.346   5.345  15.884  0.00  0.00    +0.000 A 
ATOM      2  C   UNL     1       5.459   4.271  15.700  0.00  0.00    +0.000 A 
ATOM      3  C   UNL     1       4.354   4.110  16.537  0.00  0.00    +0.000 A 
ATOM      4  C   UNL     1       4.124   5.034  17.555  0.00  0.00    +0.000 A 
ATOM      5  C   UNL     1       4.957   6.141  17.699  0.00  0.00    +0.000 A 
ATOM      6  C   UNL     1       6.067   6.322  16.863  0.00  0.00    +0.000 A 
ENDROOT
BRANCH   6   7
ATOM      7  N   UNL     1       6.856   7.504  16.956  0.00  0.00    +0.000 N 
ATOM      8  C   UNL     1       7.793   7.730  17.955  0.00  0.00    +0.000 C 
ATOM      9  O   UNL     1       8.258   6.862  18.693  0.00  0.00    +0.000 OA
ATOM     10  H   UNL     1       6.767   8.158  16.188  0.00  0.00    +0.000 HD
BRANCH   8  11
ATOM     11  C   UNL     1       8.317   9.107  18.142  0.00  0.00    +0.000 A 
ATOM     12  C   UNL     1       9.215   9.303  19.206  0.00  0.00    +0.000 A 
ATOM     13  C   UNL     1       9.657  10.581  19.543  0.00  0.00    +0.000 A 
ATOM     14  C   UNL     1       9.188  11.679  18.827  0.00  0.00    +0.000 A 
ATOM     15  C   UNL     1       8.285  11.490  17.781  0.00  0.00    +0.000 A 
ATOM     16 CL   UNL     1       7.682  12.868  16.940  0.00  0.00    +0.000 Cl
ATOM     17  C   UNL     1       7.842  10.210  17.428  0.00  0.00    +0.000 A 
ENDBRANCH   8  11
ENDBRANCH   6   7
BRANCH   4  18
ATOM     18  S   UNL     1       2.703   4.819  18.593  0.00  0.00    +0.000 S 
ATOM     19  O   UNL     1       3.027   5.468  19.838  0.00  0.00    +0.000 OA
ATOM     20  O   UNL     1       1.550   5.223  17.815  0.00  0.00    +0.000 OA
BRANCH  18  21
ATOM     21  N   UNL     1       2.590   3.146  18.893  0.00  0.00    +0.000 NA
ATOM     22  C   UNL     1       1.541   2.680  19.857  0.00  0.00    +0.000 C 
ATOM     23  C   UNL     1       1.999   2.872  21.311  0.00  0.00    +0.000 C 
ATOM     24  O   UNL     1       3.259   2.228  21.562  0.00  0.00    +0.000 OA
ATOM     25  C   UNL     1       4.280   2.689  20.663  0.00  0.00    +0.000 C 
ATOM     26  C   UNL     1       3.880   2.457  19.204  0.00  0.00    +0.000 C 
ENDBRANCH  18  21
ENDBRANCH   4  18
BRANCH   1  28
ATOM     27  C   UNL     1       7.385   5.021  13.794  0.00  0.00    +0.000 C 
ATOM     28  O   UNL     1       7.501   5.484  15.147  0.00  0.00    +0.000 OA
ENDBRANCH   1  28
TORSDOF 5
ENDMDL
MODEL 5
REMARK VINA RESULT:      -8.0      1.475      1.829
REMARK  Name = 
REMARK  6 active torsions:
REMARK  status: ('A' for Active; 'I' for Inactive)
REMARK    1  A    between atoms: C_1  and  O_2
REMARK    2  A    between atoms: O_2  and  C_3
REMARK    3  A    between atoms: C_6  and  S_7
REMARK    4  A    between atoms: S_7  and  N_10
REMARK    5  A    between atoms: C_17  and  N_18
REMARK    6  A    between atoms: C_19  and  C_21
REMARK                            x       y       z     vdW  Elec       q    Type
REMARK                         _______ _______ _______ _____ _____    ______ ____
ROOT
ATOM      1  C   UNL     1       6.973   5.175  15.261  0.00  0.00    +0.000 A 
ATOM      2  C   UNL     1       6.165   4.060  14.980  0.00  0.00    +0.000 A 
ATOM      3  C   UNL     1       5.288   3.557  15.941  0.00  0.00    +0.000 A 
ATOM      4  C   UNL     1       5.204   4.178  17.185  0.00  0.00    +0.000 A 
ATOM      5  C   UNL     1       5.948   5.326  17.448  0.00  0.00    +0.000 A 
ATOM      6  C   UNL     1       6.829   5.849  16.492  0.00  0.00    +0.000 A 
ENDROOT
BRANCH   6   7
ATOM      7  N   UNL     1       7.511   7.075  16.735  0.00  0.00    +0.000 N 
ATOM      8  C   UNL     1       7.991   7.458  17.979  0.00  0.00    +0.000 C 
ATOM      9  O   UNL     1       8.143   6.703  18.938  0.00  0.00    +0.000 OA
ATOM     10  H   UNL     1       7.720   7.636  15.916  0.00  0.00    +0.000 HD
BRANCH   8  11
ATOM     11  C   UNL     1       8.392   8.875  18.183  0.00  0.00    +0.000 A 
ATOM     12  C   UNL     1       9.213   9.145  19.291  0.00  0.00    +0.000 A 
ATOM     13  C   UNL     1       9.533  10.456  19.642  0.00  0.00    +0.000 A 
ATOM     14  C   UNL     1       9.017  11.511  18.893  0.00  0.00    +0.000 A 
ATOM     15  C   UNL     1       8.188  11.246  17.802  0.00  0.00    +0.000 A 
ATOM     16 CL   UNL     1       7.523  12.568  16.919  0.00  0.00    +0.000 Cl
ATOM     17  C   UNL     1       7.869   9.932  17.436  0.00  0.00    +0.000 A 
ENDBRANCH   8  11
ENDBRANCH   6   7
BRANCH   4  18
ATOM     18  S   UNL     1       4.067   3.533  18.384  0.00  0.00    +0.000 S 
ATOM     19  O   UNL     1       3.677   2.236  17.893  0.00  0.00    +0.000 OA
ATOM     20  O   UNL     1       4.692   3.688  19.680  0.00  0.00    +0.000 OA
BRANCH  18  21
ATOM     21  N   UNL     1       2.697   4.544  18.322  0.00  0.00    +0.000 NA
ATOM     22  C   UNL     1       2.595   5.640  19.340  0.00  0.00    +0.000 C 
ATOM     23  C   UNL     1       2.090   5.101  20.687  0.00  0.00    +0.000 C 
ATOM     24  O   UNL     1       0.842   4.401  20.547  0.00  0.00    +0.000 OA
ATOM     25  C   UNL     1       0.937   3.330  19.596  0.00  0.00    +0.000 C 
ATOM     26  C   UNL     1       1.380   3.843  18.224  0.00  0.00    +0.000 C 
ENDBRANCH  18  21
ENDBRANCH   4  18
BRANCH   1  28
ATOM     27  C   UNL     1       7.824   5.073  13.067  0.00  0.00    +0.000 C 
ATOM     28  O   UNL     1       7.923   5.640  14.380  0.00  0.00    +0.000 OA
ENDBRANCH   1  28
TORSDOF 5
ENDMDL
MODEL 6
REMARK VINA RESULT:      -7.6      1.316      1.731
REMARK  Name = 
REMARK  6 active torsions:
REMARK  status: ('A' for Active; 'I' for Inactive)
REMARK    1  A    between atoms: C_1  and  O_2
REMARK    2  A    between atoms: O_2  and  C_3
REMARK    3  A    between atoms: C_6  and  S_7
REMARK    4  A    between atoms: S_7  and  N_10
REMARK    5  A    between atoms: C_17  and  N_18
REMARK    6  A    between atoms: C_19  and  C_21
REMARK                            x       y       z     vdW  Elec       q    Type
REMARK                         _______ _______ _______ _____ _____    ______ ____
ROOT
ATOM      1  C   UNL     1       6.880   5.414  15.765  0.00  0.00    +0.000 A 
ATOM      2  C   UNL     1       6.079   4.266  15.636  0.00  0.00    +0.000 A 
ATOM      3  C   UNL     1       5.280   3.834  16.696  0.00  0.00    +0.000 A 
ATOM      4  C   UNL     1       5.268   4.559  17.886  0.00  0.00    +0.000 A 
ATOM      5  C   UNL     1       6.003   5.737  17.997  0.00  0.00    +0.000 A 
ATOM      6  C   UNL     1       6.805   6.189  16.941  0.00  0.00    +0.000 A 
ENDROOT
BRANCH   6   7
ATOM      7  N   UNL     1       7.476   7.442  17.030  0.00  0.00    +0.000 N 
ATOM      8  C   UNL     1       8.179   7.863  18.150  0.00  0.00    +0.000 C 
ATOM      9  O   UNL     1       8.546   7.131  19.068  0.00  0.00    +0.000 OA
ATOM     10  H   UNL     1       7.497   7.995  16.181  0.00  0.00    +0.000 HD
BRANCH   8  11
ATOM     11  C   UNL     1       8.559   9.296  18.256  0.00  0.00    +0.000 A 
ATOM     12  C   UNL     1       9.466   9.635  19.275  0.00  0.00    +0.000 A 
ATOM     13  C   UNL     1       9.781  10.967  19.538  0.00  0.00    +0.000 A 
ATOM     14  C   UNL     1       9.175  11.975  18.791  0.00  0.00    +0.000 A 
ATOM     15  C   UNL     1       8.262  11.642  17.790  0.00  0.00    +0.000 A 
ATOM     16 CL   UNL     1       7.488  12.907  16.912  0.00  0.00    +0.000 Cl
ATOM     17  C   UNL     1       7.946  10.307  17.512  0.00  0.00    +0.000 A 
ENDBRANCH   8  11
ENDBRANCH   6   7
BRANCH   4  18
ATOM     18  S   UNL     1       4.230   4.002  19.211  0.00  0.00    +0.000 S 
ATOM     19  O   UNL     1       4.909   2.872  19.790  0.00  0.00    +0.000 OA
ATOM     20  O   UNL     1       3.901   5.167  20.004  0.00  0.00    +0.000 OA
BRANCH  18  21
ATOM     21  N   UNL     1       2.802   3.429  18.478  0.00  0.00    +0.000 NA
ATOM     22  C   UNL     1       1.601   4.326  18.501  0.00  0.00    +0.000 C 
ATOM     23  C   UNL     1       0.885   4.261  19.858  0.00  0.00    +0.000 C 
ATOM     24  O   UNL     1       0.536   2.913  20.213  0.00  0.00    +0.000 OA
ATOM     25  C   UNL     1       1.685   2.051  20.224  0.00  0.00    +0.000 C 
ATOM     26  C   UNL     1       2.387   2.046  18.864  0.00  0.00    +0.000 C 
ENDBRANCH  18  21
ENDBRANCH   4  18
BRANCH   1  28
ATOM     27  C   UNL     1       7.596   5.120  13.540  0.00  0.00    +0.000 C 
ATOM     28  O   UNL     1       7.757   5.816  14.783  0.00  0.00    +0.000 OA
ENDBRANCH   1  28
TORSDOF 5
ENDMDL
MODEL 7
REMARK VINA RESULT:      -7.5      1.754      2.231
REMARK  Name = 
REMARK  6 active torsions:
REMARK  status: ('A' for Active; 'I' for Inactive)
REMARK    1  A    between atoms: C_1  and  O_2
REMARK    2  A    between atoms: O_2  and  C_3
REMARK    3  A    between atoms: C_6  and  S_7
REMARK    4  A    between atoms: S_7  and  N_10
REMARK    5  A    between atoms: C_17  and  N_18
REMARK    6  A    between atoms: C_19  and  C_21
REMARK                            x       y       z     vdW  Elec       q    Type
REMARK                         _______ _______ _______ _____ _____    ______ ____
ROOT
ATOM      1  C   UNL     1       7.010   5.403  15.679  0.00  0.00    +0.000 A 
ATOM      2  C   UNL     1       6.282   4.214  15.500  0.00  0.00    +0.000 A 
ATOM      3  C   UNL     1       5.488   3.704  16.528  0.00  0.00    +0.000 A 
ATOM      4  C   UNL     1       5.407   4.393  17.737  0.00  0.00    +0.000 A 
ATOM      5  C   UNL     1       6.068   5.608  17.899  0.00  0.00    +0.000 A 
ATOM      6  C   UNL     1       6.864   6.137  16.874  0.00  0.00    +0.000 A 
ENDROOT
BRANCH   6   7
ATOM      7  N   UNL     1       7.457   7.425  17.014  0.00  0.00    +0.000 N 
ATOM      8  C   UNL     1       8.144   7.840  18.146  0.00  0.00    +0.000 C 
ATOM      9  O   UNL     1       8.567   7.092  19.026  0.00  0.00    +0.000 OA
ATOM     10  H   UNL     1       7.434   8.015  16.190  0.00  0.00    +0.000 HD
BRANCH   8  11
ATOM     11  C   UNL     1       8.436   9.287  18.312  0.00  0.00    +0.000 A 
ATOM     12  C   UNL     1       7.831  10.163  17.395  0.00  0.00    +0.000 A 
ATOM     13  C   UNL     1       8.146  11.521  17.387  0.00  0.00    +0.000 A 
ATOM     14  C   UNL     1       9.087  12.011  18.290  0.00  0.00    +0.000 A 
ATOM     15  C   UNL     1       9.701  11.141  19.191  0.00  0.00    +0.000 A 
ATOM     16 CL   UNL     1      10.897  11.761  20.267  0.00  0.00    +0.000 Cl
ATOM     17  C   UNL     1       9.384   9.777  19.213  0.00  0.00    +0.000 A 
ENDBRANCH   8  11
ENDBRANCH   6   7
BRANCH   4  18
ATOM     18  S   UNL     1       4.376   3.736  19.022  0.00  0.00    +0.000 S 
ATOM     19  O   UNL     1       5.232   2.896  19.819  0.00  0.00    +0.000 OA
ATOM     20  O   UNL     1       3.670   4.857  19.606  0.00  0.00    +0.000 OA
BRANCH  18  21
ATOM     21  N   UNL     1       3.241   2.731  18.244  0.00  0.00    +0.000 NA
ATOM     22  C   UNL     1       2.149   3.393  17.459  0.00  0.00    +0.000 C 
ATOM     23  C   UNL     1       1.023   3.886  18.382  0.00  0.00    +0.000 C 
ATOM     24  O   UNL     1       0.506   2.827  19.205  0.00  0.00    +0.000 OA
ATOM     25  C   UNL     1       1.540   2.206  19.984  0.00  0.00    +0.000 C 
ATOM     26  C   UNL     1       2.650   1.649  19.089  0.00  0.00    +0.000 C 
ENDBRANCH  18  21
ENDBRANCH   4  18
BRANCH   1  28
ATOM     27  C   UNL     1       7.774   5.232  13.457  0.00  0.00    +0.000 C 
ATOM     28  O   UNL     1       7.882   5.885  14.729  0.00  0.00    +0.000 OA
ENDBRANCH   1  28
TORSDOF 5
ENDMDL
MODEL 8
REMARK VINA RESULT:      -7.5      1.283      1.646
REMARK  Name = 
REMARK  6 active torsions:
REMARK  status: ('A' for Active; 'I' for Inactive)
REMARK    1  A    between atoms: C_1  and  O_2
REMARK    2  A    between atoms: O_2  and  C_3
REMARK    3  A    between atoms: C_6  and  S_7
REMARK    4  A    between atoms: S_7  and  N_10
REMARK    5  A    between atoms: C_17  and  N_18
REMARK    6  A    between atoms: C_19  and  C_21
REMARK                            x       y       z     vdW  Elec       q    Type
REMARK                         _______ _______ _______ _____ _____    ______ ____
ROOT
ATOM      1  C   UNL     1       6.873   5.366  15.342  0.00  0.00    +0.000 A 
ATOM      2  C   UNL     1       6.094   4.249  14.993  0.00  0.00    +0.000 A 
ATOM      3  C   UNL     1       4.988   3.885  15.763  0.00  0.00    +0.000 A 
ATOM      4  C   UNL     1       4.647   4.649  16.878  0.00  0.00    +0.000 A 
ATOM      5  C   UNL     1       5.370   5.798  17.189  0.00  0.00    +0.000 A 
ATOM      6  C   UNL     1       6.479   6.182  16.423  0.00  0.00    +0.000 A 
ENDROOT
BRANCH   6   7
ATOM      7  N   UNL     1       7.152   7.408  16.692  0.00  0.00    +0.000 N 
ATOM      8  C   UNL     1       7.808   7.683  17.884  0.00  0.00    +0.000 C 
ATOM      9  O   UNL     1       8.132   6.842  18.720  0.00  0.00    +0.000 OA
ATOM     10  H   UNL     1       7.212   8.059  15.918  0.00  0.00    +0.000 HD
BRANCH   8  11
ATOM     11  C   UNL     1       8.190   9.089  18.179  0.00  0.00    +0.000 A 
ATOM     12  C   UNL     1       7.642  10.080  17.346  0.00  0.00    +0.000 A 
ATOM     13  C   UNL     1       8.043  11.411  17.459  0.00  0.00    +0.000 A 
ATOM     14  C   UNL     1       9.012  11.757  18.398  0.00  0.00    +0.000 A 
ATOM     15  C   UNL     1       9.569  10.772  19.215  0.00  0.00    +0.000 A 
ATOM     16 CL   UNL     1      10.800  11.216  20.336  0.00  0.00    +0.000 Cl
ATOM     17  C   UNL     1       9.166   9.435  19.116  0.00  0.00    +0.000 A 
ENDBRANCH   8  11
ENDBRANCH   6   7
BRANCH   4  18
ATOM     18  S   UNL     1       3.226   4.178  17.829  0.00  0.00    +0.000 S 
ATOM     19  O   UNL     1       2.272   5.243  17.658  0.00  0.00    +0.000 OA
ATOM     20  O   UNL     1       2.905   2.816  17.456  0.00  0.00    +0.000 OA
BRANCH  18  21
ATOM     21  N   UNL     1       3.728   4.186  19.457  0.00  0.00    +0.000 NA
ATOM     22  C   UNL     1       3.696   2.886  20.201  0.00  0.00    +0.000 C 
ATOM     23  C   UNL     1       2.275   2.556  20.681  0.00  0.00    +0.000 C 
ATOM     24  O   UNL     1       1.717   3.621  21.468  0.00  0.00    +0.000 OA
ATOM     25  C   UNL     1       1.715   4.866  20.753  0.00  0.00    +0.000 C 
ATOM     26  C   UNL     1       3.128   5.255  20.313  0.00  0.00    +0.000 C 
ENDBRANCH  18  21
ENDBRANCH   4  18
BRANCH   1  28
ATOM     27  C   UNL     1       7.993   5.395  13.269  0.00  0.00    +0.000 C 
ATOM     28  O   UNL     1       8.027   5.699  14.670  0.00  0.00    +0.000 OA
ENDBRANCH   1  28
TORSDOF 5
ENDMDL
MODEL 9
REMARK VINA RESULT:      -7.5      1.040      1.192
REMARK  Name = 
REMARK  6 active torsions:
REMARK  status: ('A' for Active; 'I' for Inactive)
REMARK    1  A    between atoms: C_1  and  O_2
REMARK    2  A    between atoms: O_2  and  C_3
REMARK    3  A    between atoms: C_6  and  S_7
REMARK    4  A    between atoms: S_7  and  N_10
REMARK    5  A    between atoms: C_17  and  N_18
REMARK    6  A    between atoms: C_19  and  C_21
REMARK                            x       y       z     vdW  Elec       q    Type
REMARK                         _______ _______ _______ _____ _____    ______ ____
ROOT
ATOM      1  C   UNL     1       6.911   5.099  15.185  0.00  0.00    +0.000 A 
ATOM      2  C   UNL     1       6.066   4.031  14.833  0.00  0.00    +0.000 A 
ATOM      3  C   UNL     1       4.993   3.674  15.651  0.00  0.00    +0.000 A 
ATOM      4  C   UNL     1       4.751   4.396  16.818  0.00  0.00    +0.000 A 
ATOM      5  C   UNL     1       5.538   5.499  17.138  0.00  0.00    +0.000 A 
ATOM      6  C   UNL     1       6.616   5.876  16.324  0.00  0.00    +0.000 A 
ENDROOT
BRANCH   6   7
ATOM      7  N   UNL     1       7.354   7.060  16.608  0.00  0.00    +0.000 N 
ATOM      8  C   UNL     1       7.803   7.405  17.875  0.00  0.00    +0.000 C 
ATOM      9  O   UNL     1       7.875   6.634  18.830  0.00  0.00    +0.000 OA
ATOM     10  H   UNL     1       7.625   7.616  15.805  0.00  0.00    +0.000 HD
BRANCH   8  11
ATOM     11  C   UNL     1       8.272   8.795  18.111  0.00  0.00    +0.000 A 
ATOM     12  C   UNL     1       9.127   8.996  19.208  0.00  0.00    +0.000 A 
ATOM     13  C   UNL     1       9.513  10.280  19.589  0.00  0.00    +0.000 A 
ATOM     14  C   UNL     1       9.030  11.379  18.882  0.00  0.00    +0.000 A 
ATOM     15  C   UNL     1       8.168  11.184  17.802  0.00  0.00    +0.000 A 
ATOM     16 CL   UNL     1       7.544  12.560  16.973  0.00  0.00    +0.000 Cl
ATOM     17  C   UNL     1       7.782   9.898  17.406  0.00  0.00    +0.000 A 
ENDBRANCH   8  11
ENDBRANCH   6   7
BRANCH   4  18
ATOM     18  S   UNL     1       3.369   3.936  17.831  0.00  0.00    +0.000 S 
ATOM     19  O   UNL     1       2.345   4.912  17.561  0.00  0.00    +0.000 OA
ATOM     20  O   UNL     1       3.138   2.524  17.608  0.00  0.00    +0.000 OA
BRANCH  18  21
ATOM     21  N   UNL     1       3.879   4.149  19.443  0.00  0.00    +0.000 NA
ATOM     22  C   UNL     1       3.868   2.949  20.340  0.00  0.00    +0.000 C 
ATOM     23  C   UNL     1       2.453   2.661  20.865  0.00  0.00    +0.000 C 
ATOM     24  O   UNL     1       1.884   3.806  21.520  0.00  0.00    +0.000 OA
ATOM     25  C   UNL     1       1.862   4.955  20.659  0.00  0.00    +0.000 C 
ATOM     26  C   UNL     1       3.267   5.306  20.166  0.00  0.00    +0.000 C 
ENDBRANCH  18  21
ENDBRANCH   4  18
BRANCH   1  28
ATOM     27  C   UNL     1       7.853   5.350  13.040  0.00  0.00    +0.000 C 
ATOM     28  O   UNL     1       8.037   5.418  14.461  0.00  0.00    +0.000 OA
ENDBRANCH   1  28
TORSDOF 5
ENDMDL
