MODEL 1
REMARK VINA RESULT:      -8.1      0.000      0.000
REMARK  Name = 
REMARK  8 active torsions:
REMARK  status: ('A' for Active; 'I' for Inactive)
REMARK    1  A    between atoms: C_1  and  C_2
REMARK    2  A    between atoms: C_7  and  N_8
REMARK    3  A    between atoms: N_8  and  C_9
REMARK    4  A    between atoms: N_12  and  N_13
REMARK    5  A    between atoms: N_13  and  C_14
REMARK    6  A    between atoms: C_14  and  N_15
REMARK    7  A    between atoms: N_21  and  C_22
REMARK    8  A    between atoms: C_27  and  C_28
REMARK                            x       y       z     vdW  Elec       q    Type
REMARK                         _______ _______ _______ _____ _____    ______ ____
ROOT
ATOM      1  C   UNL     1       3.175   7.627  17.721  0.00  0.00    +0.000 C 
ATOM      2  C   UNL     1       2.723   8.885  17.585  0.00  0.00    +0.000 C 
ATOM      3  C   UNL     1       1.814   9.501  18.580  0.00  0.00    +0.000 C 
ATOM      4  N   UNL     1       1.352  10.709  18.379  0.00  0.00    +0.000 NA
ATOM      5  C   UNL     1       1.480   8.603  19.769  0.00  0.00    +0.000 C 
ATOM      6  O   UNL     1       0.650   9.022  20.573  0.00  0.00    +0.000 OA
ATOM      7  N   UNL     1       2.049   7.375  19.926  0.00  0.00    +0.000 NA
ATOM      8  C   UNL     1       2.805   6.863  18.995  0.00  0.00    +0.000 C 
ATOM      9  N   UNL     1       3.298   5.576  19.193  0.00  0.00    +0.000 N 
ATOM     10  H   UNL     1       3.873   5.206  18.442  0.00  0.00    +0.000 HD
ENDROOT
BRANCH   9  11
ATOM     11  C   UNL     1       2.553   4.559  19.856  0.00  0.00    +0.000 A 
ATOM     12  C   UNL     1       2.780   4.279  21.219  0.00  0.00    +0.000 A 
ATOM     13  C   UNL     1       2.094   3.267  21.889  0.00  0.00    +0.000 A 
ATOM     14  C   UNL     1       1.142   2.519  21.212  0.00  0.00    +0.000 A 
ATOM     15  C   UNL     1       0.884   2.786  19.868  0.00  0.00    +0.000 A 
ATOM     16  C   UNL     1       1.573   3.807  19.179  0.00  0.00    +0.000 A 
ATOM     17  C   UNL     1       1.312   3.960  17.707  0.00  0.00    +0.000 C 
ENDBRANCH   9  11
BRANCH   1  18
ATOM     18  N   UNL     1       3.989   6.979  16.779  0.00  0.00    +0.000 N 
ATOM     19  H   UNL     1       3.483   6.168  16.414  0.00  0.00    +0.000 HD
BRANCH  18  26
ATOM     20  C   UNL     1       4.692   4.105  16.371  0.00  0.00    +0.000 C 
ATOM     21  C   UNL     1       5.620   5.109  17.002  0.00  0.00    +0.000 A 
ATOM     22  C   UNL     1       6.873   4.648  17.451  0.00  0.00    +0.000 A 
ATOM     23  C   UNL     1       7.810   5.525  17.989  0.00  0.00    +0.000 A 
ATOM     24  C   UNL     1       7.516   6.879  18.069  0.00  0.00    +0.000 A 
ATOM     25  C   UNL     1       6.267   7.349  17.659  0.00  0.00    +0.000 A 
ATOM     26  C   UNL     1       5.278   6.475  17.176  0.00  0.00    +0.000 A 
ENDBRANCH  18  26
ENDBRANCH   1  18
BRANCH   4  27
ATOM     27  N   UNL     1       0.480  11.209  19.316  0.00  0.00    +0.000 N 
ATOM     28  H   UNL     1       0.591  10.940  20.305  0.00  0.00    +0.000 HD
BRANCH  27  29
ATOM     29  C   UNL     1      -0.583  12.003  19.004  0.00  0.00    +0.000 C 
ATOM     30  S   UNL     1      -1.877  12.201  20.021  0.00  0.00    +0.000 S 
BRANCH  29  31
ATOM     31  N   UNL     1      -0.521  12.631  17.810  0.00  0.00    +0.000 N 
ATOM     32  H   UNL     1      -0.406  12.064  16.985  0.00  0.00    +0.000 HD
ATOM     33  H   UNL     1      -0.658  13.631  17.740  0.00  0.00    +0.000 HD
ENDBRANCH  29  31
ENDBRANCH  27  29
ENDBRANCH   4  27
TORSDOF 6
ENDMDL
MODEL 2
REMARK VINA RESULT:      -7.8      0.854      1.012
REMARK  Name = 
REMARK  8 active torsions:
REMARK  status: ('A' for Active; 'I' for Inactive)
REMARK    1  A    between atoms: C_1  and  C_2
REMARK    2  A    between atoms: C_7  and  N_8
REMARK    3  A    between atoms: N_8  and  C_9
REMARK    4  A    between atoms: N_12  and  N_13
REMARK    5  A    between atoms: N_13  and  C_14
REMARK    6  A    between atoms: C_14  and  N_15
REMARK    7  A    between atoms: N_21  and  C_22
REMARK    8  A    between atoms: C_27  and  C_28
REMARK                            x       y       z     vdW  Elec       q    Type
REMARK                         _______ _______ _______ _____ _____    ______ ____
ROOT
ATOM      1  C   UNL     1       3.242   7.586  17.674  0.00  0.00    +0.000 C 
ATOM      2  C   UNL     1       2.794   8.841  17.508  0.00  0.00    +0.000 C 
ATOM      3  C   UNL     1       1.865   9.473  18.474  0.00  0.00    +0.000 C 
ATOM      4  N   UNL     1       1.407  10.678  18.244  0.00  0.00    +0.000 NA
ATOM      5  C   UNL     1       1.505   8.595  19.671  0.00  0.00    +0.000 C 
ATOM      6  O   UNL     1       0.660   9.027  20.450  0.00  0.00    +0.000 OA
ATOM      7  N   UNL     1       2.071   7.369  19.859  0.00  0.00    +0.000 NA
ATOM      8  C   UNL     1       2.846   6.843  18.952  0.00  0.00    +0.000 C 
ATOM      9  N   UNL     1       3.334   5.559  19.182  0.00  0.00    +0.000 N 
ATOM     10  H   UNL     1       3.924   5.177  18.448  0.00  0.00    +0.000 HD
ENDROOT
BRANCH   9  11
ATOM     11  C   UNL     1       2.576   4.552  19.845  0.00  0.00    +0.000 A 
ATOM     12  C   UNL     1       2.794   4.275  21.210  0.00  0.00    +0.000 A 
ATOM     13  C   UNL     1       2.093   3.273  21.880  0.00  0.00    +0.000 A 
ATOM     14  C   UNL     1       1.137   2.534  21.203  0.00  0.00    +0.000 A 
ATOM     15  C   UNL     1       0.886   2.799  19.857  0.00  0.00    +0.000 A 
ATOM     16  C   UNL     1       1.589   3.809  19.167  0.00  0.00    +0.000 A 
ATOM     17  C   UNL     1       1.336   3.960  17.693  0.00  0.00    +0.000 C 
ENDBRANCH   9  11
BRANCH   1  18
ATOM     18  N   UNL     1       4.076   6.922  16.760  0.00  0.00    +0.000 N 
ATOM     19  H   UNL     1       3.575   6.108  16.395  0.00  0.00    +0.000 HD
BRANCH  18  26
ATOM     20  C   UNL     1       4.788   4.047  16.386  0.00  0.00    +0.000 C 
ATOM     21  C   UNL     1       5.700   5.054  17.036  0.00  0.00    +0.000 A 
ATOM     22  C   UNL     1       6.941   4.595  17.519  0.00  0.00    +0.000 A 
ATOM     23  C   UNL     1       7.863   5.474  18.077  0.00  0.00    +0.000 A 
ATOM     24  C   UNL     1       7.569   6.829  18.141  0.00  0.00    +0.000 A 
ATOM     25  C   UNL     1       6.331   7.297  17.697  0.00  0.00    +0.000 A 
ATOM     26  C   UNL     1       5.354   6.420  17.192  0.00  0.00    +0.000 A 
ENDBRANCH  18  26
ENDBRANCH   1  18
BRANCH   4  27
ATOM     27  N   UNL     1       0.517  11.193  19.155  0.00  0.00    +0.000 N 
ATOM     28  H   UNL     1      -0.410  10.756  19.260  0.00  0.00    +0.000 HD
BRANCH  27  29
ATOM     29  C   UNL     1       0.763  12.311  19.896  0.00  0.00    +0.000 C 
ATOM     30  S   UNL     1       1.200  13.756  19.212  0.00  0.00    +0.000 S 
BRANCH  29  31
ATOM     31  N   UNL     1       0.624  12.176  21.232  0.00  0.00    +0.000 N 
ATOM     32  H   UNL     1      -0.293  12.313  21.626  0.00  0.00    +0.000 HD
ATOM     33  H   UNL     1       1.399  11.875  21.809  0.00  0.00    +0.000 HD
ENDBRANCH  29  31
ENDBRANCH  27  29
ENDBRANCH   4  27
TORSDOF 6
ENDMDL
MODEL 3
REMARK VINA RESULT:      -7.8      3.869      7.077
REMARK  Name = 
REMARK  8 active torsions:
REMARK  status: ('A' for Active; 'I' for Inactive)
REMARK    1  A    between atoms: C_1  and  C_2
REMARK    2  A    between atoms: C_7  and  N_8
REMARK    3  A    between atoms: N_8  and  C_9
REMARK    4  A    between atoms: N_12  and  N_13
REMARK    5  A    between atoms: N_13  and  C_14
REMARK    6  A    between atoms: C_14  and  N_15
REMARK    7  A    between atoms: N_21  and  C_22
REMARK    8  A    between atoms: C_27  and  C_28
REMARK                            x       y       z     vdW  Elec       q    Type
REMARK                         _______ _______ _______ _____ _____    ______ ____
ROOT
ATOM      1  C   UNL     1       3.493   4.256  17.302  0.00  0.00    +0.000 C 
ATOM      2  C   UNL     1       4.452   3.833  16.460  0.00  0.00    +0.000 C 
ATOM      3  C   UNL     1       5.531   4.734  15.990  0.00  0.00    +0.000 C 
ATOM      4  N   UNL     1       6.411   4.298  15.125  0.00  0.00    +0.000 NA
ATOM      5  C   UNL     1       5.474   6.144  16.573  0.00  0.00    +0.000 C 
ATOM      6  O   UNL     1       6.283   6.963  16.142  0.00  0.00    +0.000 OA
ATOM      7  N   UNL     1       4.551   6.498  17.511  0.00  0.00    +0.000 NA
ATOM      8  C   UNL     1       3.595   5.680  17.853  0.00  0.00    +0.000 C 
ATOM      9  N   UNL     1       2.648   6.134  18.767  0.00  0.00    +0.000 N 
ATOM     10  H   UNL     1       1.912   5.473  19.000  0.00  0.00    +0.000 HD
ENDROOT
BRANCH   9  11
ATOM     11  C   UNL     1       2.196   7.484  18.803  0.00  0.00    +0.000 A 
ATOM     12  C   UNL     1       2.378   8.330  17.691  0.00  0.00    +0.000 A 
ATOM     13  C   UNL     1       1.978   9.666  17.706  0.00  0.00    +0.000 A 
ATOM     14  C   UNL     1       1.363  10.185  18.835  0.00  0.00    +0.000 A 
ATOM     15  C   UNL     1       1.153   9.366  19.944  0.00  0.00    +0.000 A 
ATOM     16  C   UNL     1       1.555   8.013  19.941  0.00  0.00    +0.000 A 
ATOM     17  C   UNL     1       1.389   7.229  21.213  0.00  0.00    +0.000 C 
ENDBRANCH   9  11
BRANCH   1  18
ATOM     18  N   UNL     1       2.418   3.461  17.730  0.00  0.00    +0.000 N 
ATOM     19  H   UNL     1       1.547   3.892  17.409  0.00  0.00    +0.000 HD
BRANCH  18  26
ATOM     20  C   UNL     1       4.579   2.206  19.365  0.00  0.00    +0.000 C 
ATOM     21  C   UNL     1       3.238   2.606  19.921  0.00  0.00    +0.000 A 
ATOM     22  C   UNL     1       2.989   2.337  21.281  0.00  0.00    +0.000 A 
ATOM     23  C   UNL     1       1.799   2.731  21.884  0.00  0.00    +0.000 A 
ATOM     24  C   UNL     1       0.847   3.416  21.142  0.00  0.00    +0.000 A 
ATOM     25  C   UNL     1       1.063   3.662  19.785  0.00  0.00    +0.000 A 
ATOM     26  C   UNL     1       2.227   3.215  19.135  0.00  0.00    +0.000 A 
ENDBRANCH  18  26
ENDBRANCH   1  18
BRANCH   4  27
ATOM     27  N   UNL     1       7.363   5.192  14.696  0.00  0.00    +0.000 N 
ATOM     28  H   UNL     1       7.708   5.913  15.346  0.00  0.00    +0.000 HD
BRANCH  27  29
ATOM     29  C   UNL     1       7.838   5.227  13.419  0.00  0.00    +0.000 C 
ATOM     30  S   UNL     1       7.163   4.342  12.192  0.00  0.00    +0.000 S 
BRANCH  29  31
ATOM     31  N   UNL     1       8.898   6.036  13.206  0.00  0.00    +0.000 N 
ATOM     32  H   UNL     1       9.368   6.419  14.011  0.00  0.00    +0.000 HD
ATOM     33  H   UNL     1       9.254   6.193  12.272  0.00  0.00    +0.000 HD
ENDBRANCH  29  31
ENDBRANCH  27  29
ENDBRANCH   4  27
TORSDOF 6
ENDMDL
MODEL 4
REMARK VINA RESULT:      -7.5      3.853      7.088
REMARK  Name = 
REMARK  8 active torsions:
REMARK  status: ('A' for Active; 'I' for Inactive)
REMARK    1  A    between atoms: C_1  and  C_2
REMARK    2  A    between atoms: C_7  and  N_8
REMARK    3  A    between atoms: N_8  and  C_9
REMARK    4  A    between atoms: N_12  and  N_13
REMARK    5  A    between atoms: N_13  and  C_14
REMARK    6  A    between atoms: C_14  and  N_15
REMARK    7  A    between atoms: N_21  and  C_22
REMARK    8  A    between atoms: C_27  and  C_28
REMARK                            x       y       z     vdW  Elec       q    Type
REMARK                         _______ _______ _______ _____ _____    ______ ____
ROOT
ATOM      1  C   UNL     1       3.613   4.344  17.428  0.00  0.00    +0.000 C 
ATOM      2  C   UNL     1       4.563   3.921  16.577  0.00  0.00    +0.000 C 
ATOM      3  C   UNL     1       5.596   4.837  16.042  0.00  0.00    +0.000 C 
ATOM      4  N   UNL     1       6.468   4.397  15.170  0.00  0.00    +0.000 NA
ATOM      5  C   UNL     1       5.505   6.268  16.569  0.00  0.00    +0.000 C 
ATOM      6  O   UNL     1       6.272   7.096  16.082  0.00  0.00    +0.000 OA
ATOM      7  N   UNL     1       4.596   6.628  17.517  0.00  0.00    +0.000 NA
ATOM      8  C   UNL     1       3.679   5.792  17.919  0.00  0.00    +0.000 C 
ATOM      9  N   UNL     1       2.742   6.250  18.840  0.00  0.00    +0.000 N 
ATOM     10  H   UNL     1       2.035   5.575  19.120  0.00  0.00    +0.000 HD
ENDROOT
BRANCH   9  11
ATOM     11  C   UNL     1       2.242   7.584  18.835  0.00  0.00    +0.000 A 
ATOM     12  C   UNL     1       2.448   8.421  17.720  0.00  0.00    +0.000 A 
ATOM     13  C   UNL     1       2.003   9.743  17.696  0.00  0.00    +0.000 A 
ATOM     14  C   UNL     1       1.318  10.255  18.787  0.00  0.00    +0.000 A 
ATOM     15  C   UNL     1       1.084   9.444  19.897  0.00  0.00    +0.000 A 
ATOM     16  C   UNL     1       1.531   8.107  19.934  0.00  0.00    +0.000 A 
ATOM     17  C   UNL     1       1.332   7.334  21.208  0.00  0.00    +0.000 C 
ENDBRANCH   9  11
BRANCH   1  18
ATOM     18  N   UNL     1       2.579   3.530  17.918  0.00  0.00    +0.000 N 
ATOM     19  H   UNL     1       1.698   4.047  17.848  0.00  0.00    +0.000 HD
BRANCH  18  26
ATOM     20  C   UNL     1       0.124   3.503  19.617  0.00  0.00    +0.000 C 
ATOM     21  C   UNL     1       1.475   3.045  20.098  0.00  0.00    +0.000 A 
ATOM     22  C   UNL     1       1.581   2.613  21.434  0.00  0.00    +0.000 A 
ATOM     23  C   UNL     1       2.781   2.118  21.936  0.00  0.00    +0.000 A 
ATOM     24  C   UNL     1       3.888   2.028  21.103  0.00  0.00    +0.000 A 
ATOM     25  C   UNL     1       3.810   2.482  19.785  0.00  0.00    +0.000 A 
ATOM     26  C   UNL     1       2.630   3.049  19.274  0.00  0.00    +0.000 A 
ENDBRANCH  18  26
ENDBRANCH   1  18
BRANCH   4  27
ATOM     27  N   UNL     1       7.375   5.305  14.679  0.00  0.00    +0.000 N 
ATOM     28  H   UNL     1       7.686   6.084  15.278  0.00  0.00    +0.000 HD
BRANCH  27  29
ATOM     29  C   UNL     1       7.848   5.277  13.401  0.00  0.00    +0.000 C 
ATOM     30  S   UNL     1       7.122   4.394  12.201  0.00  0.00    +0.000 S 
BRANCH  29  31
ATOM     31  N   UNL     1       8.948   6.022  13.161  0.00  0.00    +0.000 N 
ATOM     32  H   UNL     1       9.497   6.319  13.953  0.00  0.00    +0.000 HD
ATOM     33  H   UNL     1       9.252   6.214  12.216  0.00  0.00    +0.000 HD
ENDBRANCH  29  31
ENDBRANCH  27  29
ENDBRANCH   4  27
TORSDOF 6
ENDMDL
MODEL 5
REMARK VINA RESULT:      -7.5      3.769      6.998
REMARK  Name = 
REMARK  8 active torsions:
REMARK  status: ('A' for Active; 'I' for Inactive)
REMARK    1  A    between atoms: C_1  and  C_2
REMARK    2  A    between atoms: C_7  and  N_8
REMARK    3  A    between atoms: N_8  and  C_9
REMARK    4  A    between atoms: N_12  and  N_13
REMARK    5  A    between atoms: N_13  and  C_14
REMARK    6  A    between atoms: C_14  and  N_15
REMARK    7  A    between atoms: N_21  and  C_22
REMARK    8  A    between atoms: C_27  and  C_28
REMARK                            x       y       z     vdW  Elec       q    Type
REMARK                         _______ _______ _______ _____ _____    ______ ____
ROOT
ATOM      1  C   UNL     1       4.891   4.672  18.763  0.00  0.00    +0.000 C 
ATOM      2  C   UNL     1       5.812   4.206  17.902  0.00  0.00    +0.000 C 
ATOM      3  C   UNL     1       6.326   5.033  16.786  0.00  0.00    +0.000 C 
ATOM      4  N   UNL     1       7.179   4.520  15.935  0.00  0.00    +0.000 NA
ATOM      5  C   UNL     1       5.755   6.448  16.733  0.00  0.00    +0.000 C 
ATOM      6  O   UNL     1       6.067   7.145  15.770  0.00  0.00    +0.000 OA
ATOM      7  N   UNL     1       4.908   6.918  17.692  0.00  0.00    +0.000 NA
ATOM      8  C   UNL     1       4.451   6.131  18.626  0.00  0.00    +0.000 C 
ATOM      9  N   UNL     1       3.538   6.662  19.532  0.00  0.00    +0.000 N 
ATOM     10  H   UNL     1       3.193   6.016  20.238  0.00  0.00    +0.000 HD
ENDROOT
BRANCH   9  11
ATOM     11  C   UNL     1       2.562   7.633  19.166  0.00  0.00    +0.000 A 
ATOM     12  C   UNL     1       2.483   8.102  17.839  0.00  0.00    +0.000 A 
ATOM     13  C   UNL     1       1.562   9.077  17.455  0.00  0.00    +0.000 A 
ATOM     14  C   UNL     1       0.679   9.593  18.390  0.00  0.00    +0.000 A 
ATOM     15  C   UNL     1       0.722   9.134  19.706  0.00  0.00    +0.000 A 
ATOM     16  C   UNL     1       1.649   8.150  20.108  0.00  0.00    +0.000 A 
ATOM     17  C   UNL     1       1.702   7.786  21.565  0.00  0.00    +0.000 C 
ENDBRANCH   9  11
BRANCH   1  18
ATOM     18  N   UNL     1       4.330   3.910  19.800  0.00  0.00    +0.000 N 
ATOM     19  H   UNL     1       4.874   3.049  19.903  0.00  0.00    +0.000 HD
BRANCH  18  26
ATOM     20  C   UNL     1       3.584   1.500  18.203  0.00  0.00    +0.000 C 
ATOM     21  C   UNL     1       2.587   2.351  18.944  0.00  0.00    +0.000 A 
ATOM     22  C   UNL     1       1.226   1.999  18.843  0.00  0.00    +0.000 A 
ATOM     23  C   UNL     1       0.250   2.698  19.546  0.00  0.00    +0.000 A 
ATOM     24  C   UNL     1       0.621   3.747  20.376  0.00  0.00    +0.000 A 
ATOM     25  C   UNL     1       1.960   4.130  20.463  0.00  0.00    +0.000 A 
ATOM     26  C   UNL     1       2.957   3.484  19.711  0.00  0.00    +0.000 A 
ENDBRANCH  18  26
ENDBRANCH   1  18
BRANCH   4  27
ATOM     27  N   UNL     1       7.588   5.323  14.898  0.00  0.00    +0.000 N 
ATOM     28  H   UNL     1       8.007   6.242  15.104  0.00  0.00    +0.000 HD
BRANCH  27  29
ATOM     29  C   UNL     1       7.410   5.003  13.585  0.00  0.00    +0.000 C 
ATOM     30  S   UNL     1       6.333   3.846  13.088  0.00  0.00    +0.000 S 
BRANCH  29  31
ATOM     31  N   UNL     1       8.163   5.692  12.701  0.00  0.00    +0.000 N 
ATOM     32  H   UNL     1       8.249   6.688  12.832  0.00  0.00    +0.000 HD
ATOM     33  H   UNL     1       8.683   5.215  11.976  0.00  0.00    +0.000 HD
ENDBRANCH  29  31
ENDBRANCH  27  29
ENDBRANCH   4  27
TORSDOF 6
ENDMDL
MODEL 6
REMARK VINA RESULT:      -7.3      1.611      4.876
REMARK  Name = 
REMARK  8 active torsions:
REMARK  status: ('A' for Active; 'I' for Inactive)
REMARK    1  A    between atoms: C_1  and  C_2
REMARK    2  A    between atoms: C_7  and  N_8
REMARK    3  A    between atoms: N_8  and  C_9
REMARK    4  A    between atoms: N_12  and  N_13
REMARK    5  A    between atoms: N_13  and  C_14
REMARK    6  A    between atoms: C_14  and  N_15
REMARK    7  A    between atoms: N_21  and  C_22
REMARK    8  A    between atoms: C_27  and  C_28
REMARK                            x       y       z     vdW  Elec       q    Type
REMARK                         _______ _______ _______ _____ _____    ______ ____
ROOT
ATOM      1  C   UNL     1       2.454   6.236  19.888  0.00  0.00    +0.000 C 
ATOM      2  C   UNL     1       1.769   7.313  20.307  0.00  0.00    +0.000 C 
ATOM      3  C   UNL     1       1.714   8.561  19.510  0.00  0.00    +0.000 C 
ATOM      4  N   UNL     1       1.083   9.607  19.982  0.00  0.00    +0.000 NA
ATOM      5  C   UNL     1       2.459   8.494  18.178  0.00  0.00    +0.000 C 
ATOM      6  O   UNL     1       2.533   9.530  17.523  0.00  0.00    +0.000 OA
ATOM      7  N   UNL     1       3.046   7.344  17.740  0.00  0.00    +0.000 NA
ATOM      8  C   UNL     1       3.105   6.289  18.504  0.00  0.00    +0.000 C 
ATOM      9  N   UNL     1       3.779   5.172  18.016  0.00  0.00    +0.000 N 
ATOM     10  H   UNL     1       3.815   4.374  18.644  0.00  0.00    +0.000 HD
ENDROOT
BRANCH   9  11
ATOM     11  C   UNL     1       4.939   5.269  17.195  0.00  0.00    +0.000 A 
ATOM     12  C   UNL     1       4.833   5.165  15.793  0.00  0.00    +0.000 A 
ATOM     13  C   UNL     1       5.953   5.220  14.963  0.00  0.00    +0.000 A 
ATOM     14  C   UNL     1       7.210   5.402  15.518  0.00  0.00    +0.000 A 
ATOM     15  C   UNL     1       7.342   5.526  16.901  0.00  0.00    +0.000 A 
ATOM     16  C   UNL     1       6.218   5.471  17.751  0.00  0.00    +0.000 A 
ATOM     17  C   UNL     1       6.456   5.506  19.235  0.00  0.00    +0.000 C 
ENDBRANCH   9  11
BRANCH   1  18
ATOM     18  N   UNL     1       2.586   5.052  20.631  0.00  0.00    +0.000 N 
ATOM     19  H   UNL     1       3.577   4.910  20.844  0.00  0.00    +0.000 HD
BRANCH  18  26
ATOM     20  C   UNL     1       4.430   2.711  20.446  0.00  0.00    +0.000 C 
ATOM     21  C   UNL     1       3.004   2.689  19.964  0.00  0.00    +0.000 A 
ATOM     22  C   UNL     1       2.535   1.503  19.365  0.00  0.00    +0.000 A 
ATOM     23  C   UNL     1       1.213   1.383  18.949  0.00  0.00    +0.000 A 
ATOM     24  C   UNL     1       0.333   2.438  19.144  0.00  0.00    +0.000 A 
ATOM     25  C   UNL     1       0.788   3.632  19.707  0.00  0.00    +0.000 A 
ATOM     26  C   UNL     1       2.134   3.804  20.073  0.00  0.00    +0.000 A 
ENDBRANCH  18  26
ENDBRANCH   1  18
BRANCH   4  27
ATOM     27  N   UNL     1       1.102  10.747  19.215  0.00  0.00    +0.000 N 
ATOM     28  H   UNL     1       1.988  11.259  19.091  0.00  0.00    +0.000 HD
BRANCH  27  29
ATOM     29  C   UNL     1      -0.014  11.292  18.653  0.00  0.00    +0.000 C 
ATOM     30  S   UNL     1      -0.534  12.825  19.009  0.00  0.00    +0.000 S 
BRANCH  29  31
ATOM     31  N   UNL     1      -0.676  10.508  17.775  0.00  0.00    +0.000 N 
ATOM     32  H   UNL     1      -0.327   9.574  17.622  0.00  0.00    +0.000 HD
ATOM     33  H   UNL     1      -1.534  10.821  17.341  0.00  0.00    +0.000 HD
ENDBRANCH  29  31
ENDBRANCH  27  29
ENDBRANCH   4  27
TORSDOF 6
ENDMDL
MODEL 7
REMARK VINA RESULT:      -7.3      3.751      7.094
REMARK  Name = 
REMARK  8 active torsions:
REMARK  status: ('A' for Active; 'I' for Inactive)
REMARK    1  A    between atoms: C_1  and  C_2
REMARK    2  A    between atoms: C_7  and  N_8
REMARK    3  A    between atoms: N_8  and  C_9
REMARK    4  A    between atoms: N_12  and  N_13
REMARK    5  A    between atoms: N_13  and  C_14
REMARK    6  A    between atoms: C_14  and  N_15
REMARK    7  A    between atoms: N_21  and  C_22
REMARK    8  A    between atoms: C_27  and  C_28
REMARK                            x       y       z     vdW  Elec       q    Type
REMARK                         _______ _______ _______ _____ _____    ______ ____
ROOT
ATOM      1  C   UNL     1       4.873   4.628  18.741  0.00  0.00    +0.000 C 
ATOM      2  C   UNL     1       5.808   4.182  17.886  0.00  0.00    +0.000 C 
ATOM      3  C   UNL     1       6.345   5.036  16.800  0.00  0.00    +0.000 C 
ATOM      4  N   UNL     1       7.213   4.544  15.953  0.00  0.00    +0.000 NA
ATOM      5  C   UNL     1       5.775   6.453  16.772  0.00  0.00    +0.000 C 
ATOM      6  O   UNL     1       6.107   7.173  15.834  0.00  0.00    +0.000 OA
ATOM      7  N   UNL     1       4.911   6.900  17.727  0.00  0.00    +0.000 NA
ATOM      8  C   UNL     1       4.436   6.090  18.632  0.00  0.00    +0.000 C 
ATOM      9  N   UNL     1       3.506   6.600  19.534  0.00  0.00    +0.000 N 
ATOM     10  H   UNL     1       3.148   5.937  20.217  0.00  0.00    +0.000 HD
ENDROOT
BRANCH   9  11
ATOM     11  C   UNL     1       2.538   7.581  19.174  0.00  0.00    +0.000 A 
ATOM     12  C   UNL     1       2.416   8.008  17.836  0.00  0.00    +0.000 A 
ATOM     13  C   UNL     1       1.503   8.992  17.456  0.00  0.00    +0.000 A 
ATOM     14  C   UNL     1       0.670   9.559  18.408  0.00  0.00    +0.000 A 
ATOM     15  C   UNL     1       0.755   9.141  19.735  0.00  0.00    +0.000 A 
ATOM     16  C   UNL     1       1.676   8.149  20.133  0.00  0.00    +0.000 A 
ATOM     17  C   UNL     1       1.778   7.833  21.599  0.00  0.00    +0.000 C 
ENDBRANCH   9  11
BRANCH   1  18
ATOM     18  N   UNL     1       4.291   3.841  19.747  0.00  0.00    +0.000 N 
ATOM     19  H   UNL     1       4.889   3.026  19.910  0.00  0.00    +0.000 HD
BRANCH  18  26
ATOM     20  C   UNL     1       2.234   4.099  21.897  0.00  0.00    +0.000 C 
ATOM     21  C   UNL     1       1.983   3.411  20.581  0.00  0.00    +0.000 A 
ATOM     22  C   UNL     1       0.715   2.833  20.378  0.00  0.00    +0.000 A 
ATOM     23  C   UNL     1       0.386   2.233  19.167  0.00  0.00    +0.000 A 
ATOM     24  C   UNL     1       1.311   2.219  18.133  0.00  0.00    +0.000 A 
ATOM     25  C   UNL     1       2.584   2.759  18.327  0.00  0.00    +0.000 A 
ATOM     26  C   UNL     1       2.966   3.310  19.563  0.00  0.00    +0.000 A 
ENDBRANCH  18  26
ENDBRANCH   1  18
BRANCH   4  27
ATOM     27  N   UNL     1       7.642   5.373  14.945  0.00  0.00    +0.000 N 
ATOM     28  H   UNL     1       8.040   6.293  15.181  0.00  0.00    +0.000 HD
BRANCH  27  29
ATOM     29  C   UNL     1       7.510   5.074  13.621  0.00  0.00    +0.000 C 
ATOM     30  S   UNL     1       6.435   3.942  13.065  0.00  0.00    +0.000 S 
BRANCH  29  31
ATOM     31  N   UNL     1       8.308   5.764  12.778  0.00  0.00    +0.000 N 
ATOM     32  H   UNL     1       8.338   6.767  12.873  0.00  0.00    +0.000 HD
ATOM     33  H   UNL     1       8.911   5.285  12.122  0.00  0.00    +0.000 HD
ENDBRANCH  29  31
ENDBRANCH  27  29
ENDBRANCH   4  27
TORSDOF 6
ENDMDL
MODEL 8
REMARK VINA RESULT:      -7.1      3.868      7.077
REMARK  Name = 
REMARK  8 active torsions:
REMARK  status: ('A' for Active; 'I' for Inactive)
REMARK    1  A    between atoms: C_1  and  C_2
REMARK    2  A    between atoms: C_7  and  N_8
REMARK    3  A    between atoms: N_8  and  C_9
REMARK    4  A    between atoms: N_12  and  N_13
REMARK    5  A    between atoms: N_13  and  C_14
REMARK    6  A    between atoms: C_14  and  N_15
REMARK    7  A    between atoms: N_21  and  C_22
REMARK    8  A    between atoms: C_27  and  C_28
REMARK                            x       y       z     vdW  Elec       q    Type
REMARK                         _______ _______ _______ _____ _____    ______ ____
ROOT
ATOM      1  C   UNL     1       0.457  11.440  20.079  0.00  0.00    +0.000 C 
ATOM      2  C   UNL     1       1.360  12.397  20.351  0.00  0.00    +0.000 C 
ATOM      3  C   UNL     1       1.208  13.780  19.842  0.00  0.00    +0.000 C 
ATOM      4  N   UNL     1       2.141  14.667  20.081  0.00  0.00    +0.000 NA
ATOM      5  C   UNL     1      -0.065  14.019  19.033  0.00  0.00    +0.000 C 
ATOM      6  O   UNL     1      -0.193  15.119  18.500  0.00  0.00    +0.000 OA
ATOM      7  N   UNL     1      -1.010  13.050  18.876  0.00  0.00    +0.000 NA
ATOM      8  C   UNL     1      -0.803  11.836  19.305  0.00  0.00    +0.000 C 
ATOM      9  N   UNL     1      -1.784  10.882  19.051  0.00  0.00    +0.000 N 
ATOM     10  H   UNL     1      -1.582   9.945  19.388  0.00  0.00    +0.000 HD
ENDROOT
BRANCH   9  11
ATOM     11  C   UNL     1      -2.559  10.871  17.856  0.00  0.00    +0.000 A 
ATOM     12  C   UNL     1      -2.031  10.330  16.666  0.00  0.00    +0.000 A 
ATOM     13  C   UNL     1      -2.750  10.335  15.471  0.00  0.00    +0.000 A 
ATOM     14  C   UNL     1      -4.030  10.866  15.442  0.00  0.00    +0.000 A 
ATOM     15  C   UNL     1      -4.584  11.391  16.609  0.00  0.00    +0.000 A 
ATOM     16  C   UNL     1      -3.867  11.394  17.824  0.00  0.00    +0.000 A 
ATOM     17  C   UNL     1      -4.494  12.073  19.009  0.00  0.00    +0.000 C 
ENDBRANCH   9  11
BRANCH   1  18
ATOM     18  N   UNL     1       0.583  10.102  20.488  0.00  0.00    +0.000 N 
ATOM     19  H   UNL     1       1.036  10.084  21.405  0.00  0.00    +0.000 HD
BRANCH  18  26
ATOM     20  C   UNL     1       1.240   7.374  21.508  0.00  0.00    +0.000 C 
ATOM     21  C   UNL     1       1.661   7.882  20.155  0.00  0.00    +0.000 A 
ATOM     22  C   UNL     1       2.435   7.025  19.348  0.00  0.00    +0.000 A 
ATOM     23  C   UNL     1       2.812   7.397  18.061  0.00  0.00    +0.000 A 
ATOM     24  C   UNL     1       2.404   8.623  17.554  0.00  0.00    +0.000 A 
ATOM     25  C   UNL     1       1.664   9.498  18.350  0.00  0.00    +0.000 A 
ATOM     26  C   UNL     1       1.328   9.175  19.677  0.00  0.00    +0.000 A 
ENDBRANCH  18  26
ENDBRANCH   1  18
BRANCH   4  27
ATOM     27  N   UNL     1       1.963  15.922  19.549  0.00  0.00    +0.000 N 
ATOM     28  H   UNL     1       1.089  16.433  19.739  0.00  0.00    +0.000 HD
BRANCH  27  29
ATOM     29  C   UNL     1       2.861  16.516  18.712  0.00  0.00    +0.000 C 
ATOM     30  S   UNL     1       4.479  16.601  19.056  0.00  0.00    +0.000 S 
BRANCH  29  31
ATOM     31  N   UNL     1       2.353  17.031  17.571  0.00  0.00    +0.000 N 
ATOM     32  H   UNL     1       1.652  16.495  17.084  0.00  0.00    +0.000 HD
ATOM     33  H   UNL     1       2.615  17.955  17.256  0.00  0.00    +0.000 HD
ENDBRANCH  29  31
ENDBRANCH  27  29
ENDBRANCH   4  27
TORSDOF 6
ENDMDL
MODEL 9
REMARK VINA RESULT:      -7.0      8.469     10.551
REMARK  Name = 
REMARK  8 active torsions:
REMARK  status: ('A' for Active; 'I' for Inactive)
REMARK    1  A    between atoms: C_1  and  C_2
REMARK    2  A    between atoms: C_7  and  N_8
REMARK    3  A    between atoms: N_8  and  C_9
REMARK    4  A    between atoms: N_12  and  N_13
REMARK    5  A    between atoms: N_13  and  C_14
REMARK    6  A    between atoms: C_14  and  N_15
REMARK    7  A    between atoms: N_21  and  C_22
REMARK    8  A    between atoms: C_27  and  C_28
REMARK                            x       y       z     vdW  Elec       q    Type
REMARK                         _______ _______ _______ _____ _____    ______ ____
ROOT
ATOM      1  C   UNL     1       7.049  14.501  21.324  0.00  0.00    +0.000 C 
ATOM      2  C   UNL     1       6.189  14.104  22.277  0.00  0.00    +0.000 C 
ATOM      3  C   UNL     1       6.454  12.919  23.125  0.00  0.00    +0.000 C 
ATOM      4  N   UNL     1       5.562  12.533  24.002  0.00  0.00    +0.000 NA
ATOM      5  C   UNL     1       7.788  12.230  22.847  0.00  0.00    +0.000 C 
ATOM      6  O   UNL     1       8.016  11.182  23.448  0.00  0.00    +0.000 OA
ATOM      7  N   UNL     1       8.683  12.731  21.949  0.00  0.00    +0.000 NA
ATOM      8  C   UNL     1       8.377  13.751  21.196  0.00  0.00    +0.000 C 
ATOM      9  N   UNL     1       9.314  14.166  20.254  0.00  0.00    +0.000 N 
ATOM     10  H   UNL     1       9.036  14.955  19.677  0.00  0.00    +0.000 HD
ENDROOT
BRANCH   9  11
ATOM     11  C   UNL     1      10.163  13.258  19.557  0.00  0.00    +0.000 A 
ATOM     12  C   UNL     1      11.446  12.955  20.053  0.00  0.00    +0.000 A 
ATOM     13  C   UNL     1      12.315  12.098  19.377  0.00  0.00    +0.000 A 
ATOM     14  C   UNL     1      11.908  11.504  18.192  0.00  0.00    +0.000 A 
ATOM     15  C   UNL     1      10.636  11.772  17.688  0.00  0.00    +0.000 A 
ATOM     16  C   UNL     1       9.749  12.638  18.361  0.00  0.00    +0.000 A 
ATOM     17  C   UNL     1       8.439  12.957  17.697  0.00  0.00    +0.000 C 
ENDBRANCH   9  11
BRANCH   1  18
ATOM     18  N   UNL     1       6.818  15.580  20.457  0.00  0.00    +0.000 N 
ATOM     19  H   UNL     1       6.852  16.447  21.000  0.00  0.00    +0.000 HD
BRANCH  18  26
ATOM     20  C   UNL     1       4.722  17.589  21.156  0.00  0.00    +0.000 C 
ATOM     21  C   UNL     1       4.577  16.586  20.042  0.00  0.00    +0.000 A 
ATOM     22  C   UNL     1       3.368  16.583  19.319  0.00  0.00    +0.000 A 
ATOM     23  C   UNL     1       3.181  15.728  18.237  0.00  0.00    +0.000 A 
ATOM     24  C   UNL     1       4.206  14.877  17.849  0.00  0.00    +0.000 A 
ATOM     25  C   UNL     1       5.399  14.844  18.574  0.00  0.00    +0.000 A 
ATOM     26  C   UNL     1       5.588  15.647  19.712  0.00  0.00    +0.000 A 
ENDBRANCH  18  26
ENDBRANCH   1  18
BRANCH   4  27
ATOM     27  N   UNL     1       5.847  11.403  24.729  0.00  0.00    +0.000 N 
ATOM     28  H   UNL     1       5.887  10.490  24.252  0.00  0.00    +0.000 HD
BRANCH  27  29
ATOM     29  C   UNL     1       6.019  11.404  26.082  0.00  0.00    +0.000 C 
ATOM     30  S   UNL     1       4.774  11.120  27.139  0.00  0.00    +0.000 S 
BRANCH  29  31
ATOM     31  N   UNL     1       7.274  11.645  26.518  0.00  0.00    +0.000 N 
ATOM     32  H   UNL     1       7.383  12.159  27.378  0.00  0.00    +0.000 HD
ATOM     33  H   UNL     1       8.076  11.261  26.036  0.00  0.00    +0.000 HD
ENDBRANCH  29  31
ENDBRANCH  27  29
ENDBRANCH   4  27
TORSDOF 6
ENDMDL
