MODEL 1
REMARK VINA RESULT:      -7.7      0.000      0.000
REMARK  Name = 
REMARK  14 active torsions:
REMARK  status: ('A' for Active; 'I' for Inactive)
REMARK    1  A    between atoms: C_1  and  N_2
REMARK    2  A    between atoms: N_2  and  C_3
REMARK    3  A    between atoms: N_2  and  C_29
REMARK    4  A    between atoms: C_3  and  C_4
REMARK    5  A    between atoms: C_4  and  C_5
REMARK    6  A    between atoms: C_5  and  C_6
REMARK    7  A    between atoms: C_6  and  C_7
REMARK    8  A    between atoms: C_7  and  C_8
REMARK    9  A    between atoms: C_8  and  O_9
REMARK   10  A    between atoms: O_9  and  C_10
REMARK   11  A    between atoms: C_12  and  O_13
REMARK   12  A    between atoms: C_17  and  C_18
REMARK   13  A    between atoms: C_21  and  O_22
REMARK   14  A    between atoms: C_29  and  C_30
REMARK                            x       y       z     vdW  Elec       q    Type
REMARK                         _______ _______ _______ _____ _____    ______ ____
ROOT
ATOM      1  C   UNL     1      -0.113  10.368  21.092  0.00  0.00    +0.000 A 
ATOM      2  C   UNL     1       0.234  10.930  19.861  0.00  0.00    +0.000 A 
ATOM      3  C   UNL     1       1.011  10.210  18.955  0.00  0.00    +0.000 A 
ATOM      4  C   UNL     1       1.459   8.923  19.272  0.00  0.00    +0.000 A 
ATOM      5  C   UNL     1       2.293   8.114  18.353  0.00  0.00    +0.000 A 
ATOM      6  O   UNL     1       2.632   8.497  17.239  0.00  0.00    +0.000 OA
ATOM      7  C   UNL     1       2.713   6.778  18.851  0.00  0.00    +0.000 A 
ATOM      8  C   UNL     1       2.292   6.391  20.062  0.00  0.00    +0.000 A 
ATOM      9  O   UNL     1       1.498   7.115  20.912  0.00  0.00    +0.000 OA
ATOM     10  C   UNL     1       1.112   8.370  20.509  0.00  0.00    +0.000 A 
ATOM     11  C   UNL     1       0.337   9.091  21.419  0.00  0.00    +0.000 A 
ENDROOT
BRANCH   7  12
ATOM     12  C   UNL     1       3.575   5.904  18.054  0.00  0.00    +0.000 A 
ATOM     13  C   UNL     1       3.130   4.633  17.670  0.00  0.00    +0.000 A 
ATOM     14  C   UNL     1       3.953   3.800  16.908  0.00  0.00    +0.000 A 
ATOM     15  C   UNL     1       5.217   4.246  16.533  0.00  0.00    +0.000 A 
ATOM     16  C   UNL     1       5.670   5.507  16.905  0.00  0.00    +0.000 A 
ATOM     17  C   UNL     1       4.849   6.338  17.667  0.00  0.00    +0.000 A 
BRANCH  15  18
ATOM     18  O   UNL     1       6.051   3.467  15.790  0.00  0.00    +0.000 OA
ATOM     19  H   UNL     1       6.241   3.926  14.956  0.00  0.00    +0.000 HD
ENDBRANCH  15  18
ENDBRANCH   7  12
BRANCH   3  20
ATOM     20  O   UNL     1       1.331  10.799  17.765  0.00  0.00    +0.000 OA
ATOM     21  H   UNL     1       2.190  11.245  17.818  0.00  0.00    +0.000 HD
ENDBRANCH   3  20
BRANCH   1  22
ATOM     22  O   UNL     1      -0.852  10.996  22.056  0.00  0.00    +0.000 OA
BRANCH  22  23
ATOM     23  C   UNL     1      -0.446  12.332  22.335  0.00  0.00    +0.000 C 
BRANCH  23  24
ATOM     24  C   UNL     1      -1.482  12.983  23.234  0.00  0.00    +0.000 C 
BRANCH  24  25
ATOM     25  C   UNL     1      -2.793  12.224  23.097  0.00  0.00    +0.000 C 
BRANCH  25  26
ATOM     26  C   UNL     1      -3.972  13.166  22.913  0.00  0.00    +0.000 C 
BRANCH  26  27
ATOM     27  C   UNL     1      -4.003  13.785  21.517  0.00  0.00    +0.000 C 
BRANCH  27  28
ATOM     28  C   UNL     1      -3.666  12.781  20.401  0.00  0.00    +0.000 C 
BRANCH  28  30
ATOM     29  C   UNL     1      -5.954  13.321  19.810  0.00  0.00    +0.000 C 
ATOM     30  N   UNL     1      -4.710  12.681  19.367  0.00  0.00    +0.000 NA
BRANCH  30  31
ATOM     31  C   UNL     1      -4.931  11.260  19.018  0.00  0.00    +0.000 C 
BRANCH  31  32
ATOM     32  C   UNL     1      -4.128  10.818  17.811  0.00  0.00    +0.000 A 
ATOM     33  C   UNL     1      -2.941  10.089  17.976  0.00  0.00    +0.000 A 
ATOM     34  C   UNL     1      -2.128   9.806  16.877  0.00  0.00    +0.000 A 
ATOM     35  C   UNL     1      -2.497  10.243  15.606  0.00  0.00    +0.000 A 
ATOM     36  C   UNL     1      -3.697  10.930  15.426  0.00  0.00    +0.000 A 
ATOM     37  C   UNL     1      -4.515  11.208  16.521  0.00  0.00    +0.000 A 
ENDBRANCH  31  32
ENDBRANCH  30  31
ENDBRANCH  28  30
ENDBRANCH  27  28
ENDBRANCH  26  27
ENDBRANCH  25  26
ENDBRANCH  24  25
ENDBRANCH  23  24
ENDBRANCH  22  23
ENDBRANCH   1  22
TORSDOF 13
ENDMDL
MODEL 2
REMARK VINA RESULT:      -7.6      3.563     10.045
REMARK  Name = 
REMARK  14 active torsions:
REMARK  status: ('A' for Active; 'I' for Inactive)
REMARK    1  A    between atoms: C_1  and  N_2
REMARK    2  A    between atoms: N_2  and  C_3
REMARK    3  A    between atoms: N_2  and  C_29
REMARK    4  A    between atoms: C_3  and  C_4
REMARK    5  A    between atoms: C_4  and  C_5
REMARK    6  A    between atoms: C_5  and  C_6
REMARK    7  A    between atoms: C_6  and  C_7
REMARK    8  A    between atoms: C_7  and  C_8
REMARK    9  A    between atoms: C_8  and  O_9
REMARK   10  A    between atoms: O_9  and  C_10
REMARK   11  A    between atoms: C_12  and  O_13
REMARK   12  A    between atoms: C_17  and  C_18
REMARK   13  A    between atoms: C_21  and  O_22
REMARK   14  A    between atoms: C_29  and  C_30
REMARK                            x       y       z     vdW  Elec       q    Type
REMARK                         _______ _______ _______ _____ _____    ______ ____
ROOT
ATOM      1  C   UNL     1       1.586   8.640  19.448  0.00  0.00    +0.000 A 
ATOM      2  C   UNL     1       1.223   9.697  18.609  0.00  0.00    +0.000 A 
ATOM      3  C   UNL     1       0.459  10.753  19.103  0.00  0.00    +0.000 A 
ATOM      4  C   UNL     1       0.042  10.763  20.439  0.00  0.00    +0.000 A 
ATOM      5  C   UNL     1      -0.777  11.854  21.017  0.00  0.00    +0.000 A 
ATOM      6  O   UNL     1      -1.128  12.841  20.380  0.00  0.00    +0.000 OA
ATOM      7  C   UNL     1      -1.163  11.700  22.443  0.00  0.00    +0.000 A 
ATOM      8  C   UNL     1      -0.730  10.620  23.106  0.00  0.00    +0.000 A 
ATOM      9  O   UNL     1       0.050   9.616  22.594  0.00  0.00    +0.000 OA
ATOM     10  C   UNL     1       0.406   9.698  21.269  0.00  0.00    +0.000 A 
ATOM     11  C   UNL     1       1.167   8.638  20.776  0.00  0.00    +0.000 A 
ENDROOT
BRANCH   7  12
ATOM     12  C   UNL     1      -2.008  12.689  23.115  0.00  0.00    +0.000 A 
ATOM     13  C   UNL     1      -1.452  13.879  23.601  0.00  0.00    +0.000 A 
ATOM     14  C   UNL     1      -2.259  14.823  24.241  0.00  0.00    +0.000 A 
ATOM     15  C   UNL     1      -3.620  14.570  24.389  0.00  0.00    +0.000 A 
ATOM     16  C   UNL     1      -4.185  13.394  23.908  0.00  0.00    +0.000 A 
ATOM     17  C   UNL     1      -3.379  12.451  23.271  0.00  0.00    +0.000 A 
BRANCH  15  18
ATOM     18  O   UNL     1      -4.443  15.463  25.005  0.00  0.00    +0.000 OA
ATOM     19  H   UNL     1      -4.684  15.110  25.877  0.00  0.00    +0.000 HD
ENDBRANCH  15  18
ENDBRANCH   7  12
BRANCH   3  20
ATOM     20  O   UNL     1       0.121  11.763  18.248  0.00  0.00    +0.000 OA
ATOM     21  H   UNL     1      -0.612  12.289  18.603  0.00  0.00    +0.000 HD
ENDBRANCH   3  20
BRANCH   1  22
ATOM     22  O   UNL     1       2.314   7.551  19.058  0.00  0.00    +0.000 OA
BRANCH  22  23
ATOM     23  C   UNL     1       2.262   6.451  19.963  0.00  0.00    +0.000 C 
BRANCH  23  24
ATOM     24  C   UNL     1       1.446   5.336  19.334  0.00  0.00    +0.000 C 
BRANCH  24  25
ATOM     25  C   UNL     1       1.385   4.168  20.307  0.00  0.00    +0.000 C 
BRANCH  25  26
ATOM     26  C   UNL     1       0.853   2.909  19.642  0.00  0.00    +0.000 C 
BRANCH  26  27
ATOM     27  C   UNL     1       1.964   1.909  19.329  0.00  0.00    +0.000 C 
BRANCH  27  28
ATOM     28  C   UNL     1       2.974   2.429  18.292  0.00  0.00    +0.000 C 
BRANCH  28  30
ATOM     29  C   UNL     1       4.446   2.026  20.177  0.00  0.00    +0.000 C 
ATOM     30  N   UNL     1       4.331   2.610  18.835  0.00  0.00    +0.000 NA
BRANCH  30  31
ATOM     31  C   UNL     1       4.675   4.050  18.844  0.00  0.00    +0.000 C 
BRANCH  31  32
ATOM     32  C   UNL     1       5.087   4.565  17.480  0.00  0.00    +0.000 A 
ATOM     33  C   UNL     1       4.947   5.924  17.162  0.00  0.00    +0.000 A 
ATOM     34  C   UNL     1       5.190   6.374  15.863  0.00  0.00    +0.000 A 
ATOM     35  C   UNL     1       5.581   5.473  14.875  0.00  0.00    +0.000 A 
ATOM     36  C   UNL     1       5.765   4.128  15.191  0.00  0.00    +0.000 A 
ATOM     37  C   UNL     1       5.530   3.676  16.490  0.00  0.00    +0.000 A 
ENDBRANCH  31  32
ENDBRANCH  30  31
ENDBRANCH  28  30
ENDBRANCH  27  28
ENDBRANCH  26  27
ENDBRANCH  25  26
ENDBRANCH  24  25
ENDBRANCH  23  24
ENDBRANCH  22  23
ENDBRANCH   1  22
TORSDOF 13
ENDMDL
MODEL 3
REMARK VINA RESULT:      -7.6      3.636     10.038
REMARK  Name = 
REMARK  14 active torsions:
REMARK  status: ('A' for Active; 'I' for Inactive)
REMARK    1  A    between atoms: C_1  and  N_2
REMARK    2  A    between atoms: N_2  and  C_3
REMARK    3  A    between atoms: N_2  and  C_29
REMARK    4  A    between atoms: C_3  and  C_4
REMARK    5  A    between atoms: C_4  and  C_5
REMARK    6  A    between atoms: C_5  and  C_6
REMARK    7  A    between atoms: C_6  and  C_7
REMARK    8  A    between atoms: C_7  and  C_8
REMARK    9  A    between atoms: C_8  and  O_9
REMARK   10  A    between atoms: O_9  and  C_10
REMARK   11  A    between atoms: C_12  and  O_13
REMARK   12  A    between atoms: C_17  and  C_18
REMARK   13  A    between atoms: C_21  and  O_22
REMARK   14  A    between atoms: C_29  and  C_30
REMARK                            x       y       z     vdW  Elec       q    Type
REMARK                         _______ _______ _______ _____ _____    ______ ____
ROOT
ATOM      1  C   UNL     1       1.659   8.217  19.768  0.00  0.00    +0.000 A 
ATOM      2  C   UNL     1       1.365   9.250  18.875  0.00  0.00    +0.000 A 
ATOM      3  C   UNL     1       0.614  10.347  19.294  0.00  0.00    +0.000 A 
ATOM      4  C   UNL     1       0.140  10.422  20.609  0.00  0.00    +0.000 A 
ATOM      5  C   UNL     1      -0.668  11.558  21.109  0.00  0.00    +0.000 A 
ATOM      6  O   UNL     1      -0.960  12.529  20.420  0.00  0.00    +0.000 OA
ATOM      7  C   UNL     1      -1.120  11.471  22.521  0.00  0.00    +0.000 A 
ATOM      8  C   UNL     1      -0.749  10.406  23.243  0.00  0.00    +0.000 A 
ATOM      9  O   UNL     1       0.020   9.361  22.804  0.00  0.00    +0.000 OA
ATOM     10  C   UNL     1       0.435   9.380  21.494  0.00  0.00    +0.000 A 
ATOM     11  C   UNL     1       1.183   8.279  21.076  0.00  0.00    +0.000 A 
ENDROOT
BRANCH   7  12
ATOM     12  C   UNL     1      -1.961  12.510  23.117  0.00  0.00    +0.000 A 
ATOM     13  C   UNL     1      -3.336  12.299  23.282  0.00  0.00    +0.000 A 
ATOM     14  C   UNL     1      -4.137  13.290  23.852  0.00  0.00    +0.000 A 
ATOM     15  C   UNL     1      -3.557  14.489  24.256  0.00  0.00    +0.000 A 
ATOM     16  C   UNL     1      -2.193  14.711  24.102  0.00  0.00    +0.000 A 
ATOM     17  C   UNL     1      -1.393  13.721  23.531  0.00  0.00    +0.000 A 
BRANCH  15  18
ATOM     18  O   UNL     1      -4.301  15.482  24.818  0.00  0.00    +0.000 OA
ATOM     19  H   UNL     1      -4.209  15.429  25.783  0.00  0.00    +0.000 HD
ENDBRANCH  15  18
ENDBRANCH   7  12
BRANCH   3  20
ATOM     20  O   UNL     1       0.345  11.332  18.387  0.00  0.00    +0.000 OA
ATOM     21  H   UNL     1       0.760  12.168  18.649  0.00  0.00    +0.000 HD
ENDBRANCH   3  20
BRANCH   1  22
ATOM     22  O   UNL     1       2.369   7.092  19.453  0.00  0.00    +0.000 OA
BRANCH  22  23
ATOM     23  C   UNL     1       2.084   5.964  20.275  0.00  0.00    +0.000 C 
BRANCH  23  24
ATOM     24  C   UNL     1       1.587   4.829  19.397  0.00  0.00    +0.000 C 
BRANCH  24  25
ATOM     25  C   UNL     1       0.907   3.792  20.278  0.00  0.00    +0.000 C 
BRANCH  25  26
ATOM     26  C   UNL     1       1.737   2.524  20.398  0.00  0.00    +0.000 C 
BRANCH  26  27
ATOM     27  C   UNL     1       3.190   2.818  20.768  0.00  0.00    +0.000 C 
BRANCH  27  28
ATOM     28  C   UNL     1       4.203   2.116  19.848  0.00  0.00    +0.000 C 
BRANCH  28  30
ATOM     29  C   UNL     1       5.210   4.312  19.645  0.00  0.00    +0.000 C 
ATOM     30  N   UNL     1       4.933   3.041  18.965  0.00  0.00    +0.000 NA
BRANCH  30  31
ATOM     31  C   UNL     1       4.161   3.254  17.721  0.00  0.00    +0.000 C 
BRANCH  31  32
ATOM     32  C   UNL     1       4.916   4.070  16.691  0.00  0.00    +0.000 A 
ATOM     33  C   UNL     1       4.680   5.446  16.563  0.00  0.00    +0.000 A 
ATOM     34  C   UNL     1       5.267   6.169  15.523  0.00  0.00    +0.000 A 
ATOM     35  C   UNL     1       6.098   5.525  14.608  0.00  0.00    +0.000 A 
ATOM     36  C   UNL     1       6.374   4.166  14.753  0.00  0.00    +0.000 A 
ATOM     37  C   UNL     1       5.794   3.442  15.795  0.00  0.00    +0.000 A 
ENDBRANCH  31  32
ENDBRANCH  30  31
ENDBRANCH  28  30
ENDBRANCH  27  28
ENDBRANCH  26  27
ENDBRANCH  25  26
ENDBRANCH  24  25
ENDBRANCH  23  24
ENDBRANCH  22  23
ENDBRANCH   1  22
TORSDOF 13
ENDMDL
MODEL 4
REMARK VINA RESULT:      -7.6      3.192     10.060
REMARK  Name = 
REMARK  14 active torsions:
REMARK  status: ('A' for Active; 'I' for Inactive)
REMARK    1  A    between atoms: C_1  and  N_2
REMARK    2  A    between atoms: N_2  and  C_3
REMARK    3  A    between atoms: N_2  and  C_29
REMARK    4  A    between atoms: C_3  and  C_4
REMARK    5  A    between atoms: C_4  and  C_5
REMARK    6  A    between atoms: C_5  and  C_6
REMARK    7  A    between atoms: C_6  and  C_7
REMARK    8  A    between atoms: C_7  and  C_8
REMARK    9  A    between atoms: C_8  and  O_9
REMARK   10  A    between atoms: O_9  and  C_10
REMARK   11  A    between atoms: C_12  and  O_13
REMARK   12  A    between atoms: C_17  and  C_18
REMARK   13  A    between atoms: C_21  and  O_22
REMARK   14  A    between atoms: C_29  and  C_30
REMARK                            x       y       z     vdW  Elec       q    Type
REMARK                         _______ _______ _______ _____ _____    ______ ____
ROOT
ATOM      1  C   UNL     1       1.151   9.575  19.522  0.00  0.00    +0.000 A 
ATOM      2  C   UNL     1       0.462  10.298  18.546  0.00  0.00    +0.000 A 
ATOM      3  C   UNL     1      -0.536  11.199  18.914  0.00  0.00    +0.000 A 
ATOM      4  C   UNL     1      -0.864  11.381  20.263  0.00  0.00    +0.000 A 
ATOM      5  C   UNL     1      -1.920  12.318  20.714  0.00  0.00    +0.000 A 
ATOM      6  O   UNL     1      -2.567  13.022  19.946  0.00  0.00    +0.000 OA
ATOM      7  C   UNL     1      -2.168  12.373  22.177  0.00  0.00    +0.000 A 
ATOM      8  C   UNL     1      -1.414  11.609  22.979  0.00  0.00    +0.000 A 
ATOM      9  O   UNL     1      -0.416  10.759  22.580  0.00  0.00    +0.000 OA
ATOM     10  C   UNL     1      -0.172  10.649  21.233  0.00  0.00    +0.000 A 
ATOM     11  C   UNL     1       0.824   9.745  20.866  0.00  0.00    +0.000 A 
ENDROOT
BRANCH   7  12
ATOM     12  C   UNL     1      -3.215  13.227  22.742  0.00  0.00    +0.000 A 
ATOM     13  C   UNL     1      -4.448  12.679  23.115  0.00  0.00    +0.000 A 
ATOM     14  C   UNL     1      -5.446  13.493  23.655  0.00  0.00    +0.000 A 
ATOM     15  C   UNL     1      -5.202  14.854  23.819  0.00  0.00    +0.000 A 
ATOM     16  C   UNL     1      -3.981  15.411  23.455  0.00  0.00    +0.000 A 
ATOM     17  C   UNL     1      -2.985  14.597  22.915  0.00  0.00    +0.000 A 
BRANCH  15  18
ATOM     18  O   UNL     1      -6.146  15.685  24.342  0.00  0.00    +0.000 OA
ATOM     19  H   UNL     1      -7.016  15.414  24.007  0.00  0.00    +0.000 HD
ENDBRANCH  15  18
ENDBRANCH   7  12
BRANCH   3  20
ATOM     20  O   UNL     1      -1.190  11.881  17.928  0.00  0.00    +0.000 OA
ATOM     21  H   UNL     1      -1.000  11.501  17.057  0.00  0.00    +0.000 HD
ENDBRANCH   3  20
BRANCH   1  22
ATOM     22  O   UNL     1       2.131   8.656  19.266  0.00  0.00    +0.000 OA
BRANCH  22  23
ATOM     23  C   UNL     1       1.971   7.949  18.040  0.00  0.00    +0.000 C 
BRANCH  23  24
ATOM     24  C   UNL     1       2.367   6.499  18.253  0.00  0.00    +0.000 C 
BRANCH  24  25
ATOM     25  C   UNL     1       2.710   6.298  19.721  0.00  0.00    +0.000 C 
BRANCH  25  26
ATOM     26  C   UNL     1       1.660   5.462  20.435  0.00  0.00    +0.000 C 
BRANCH  26  27
ATOM     27  C   UNL     1       2.282   4.329  21.250  0.00  0.00    +0.000 C 
BRANCH  27  28
ATOM     28  C   UNL     1       1.999   2.936  20.664  0.00  0.00    +0.000 C 
BRANCH  28  30
ATOM     29  C   UNL     1       0.780   2.198  18.703  0.00  0.00    +0.000 C 
ATOM     30  N   UNL     1       1.964   2.914  19.192  0.00  0.00    +0.000 NA
BRANCH  30  31
ATOM     31  C   UNL     1       3.211   2.308  18.674  0.00  0.00    +0.000 C 
BRANCH  31  32
ATOM     32  C   UNL     1       4.168   3.333  18.098  0.00  0.00    +0.000 A 
ATOM     33  C   UNL     1       4.104   3.680  16.741  0.00  0.00    +0.000 A 
ATOM     34  C   UNL     1       5.073   4.512  16.179  0.00  0.00    +0.000 A 
ATOM     35  C   UNL     1       6.109   5.009  16.968  0.00  0.00    +0.000 A 
ATOM     36  C   UNL     1       6.156   4.705  18.328  0.00  0.00    +0.000 A 
ATOM     37  C   UNL     1       5.185   3.879  18.894  0.00  0.00    +0.000 A 
ENDBRANCH  31  32
ENDBRANCH  30  31
ENDBRANCH  28  30
ENDBRANCH  27  28
ENDBRANCH  26  27
ENDBRANCH  25  26
ENDBRANCH  24  25
ENDBRANCH  23  24
ENDBRANCH  22  23
ENDBRANCH   1  22
TORSDOF 13
ENDMDL
MODEL 5
REMARK VINA RESULT:      -7.5      3.541      9.991
REMARK  Name = 
REMARK  14 active torsions:
REMARK  status: ('A' for Active; 'I' for Inactive)
REMARK    1  A    between atoms: C_1  and  N_2
REMARK    2  A    between atoms: N_2  and  C_3
REMARK    3  A    between atoms: N_2  and  C_29
REMARK    4  A    between atoms: C_3  and  C_4
REMARK    5  A    between atoms: C_4  and  C_5
REMARK    6  A    between atoms: C_5  and  C_6
REMARK    7  A    between atoms: C_6  and  C_7
REMARK    8  A    between atoms: C_7  and  C_8
REMARK    9  A    between atoms: C_8  and  O_9
REMARK   10  A    between atoms: O_9  and  C_10
REMARK   11  A    between atoms: C_12  and  O_13
REMARK   12  A    between atoms: C_17  and  C_18
REMARK   13  A    between atoms: C_21  and  O_22
REMARK   14  A    between atoms: C_29  and  C_30
REMARK                            x       y       z     vdW  Elec       q    Type
REMARK                         _______ _______ _______ _____ _____    ______ ____
ROOT
ATOM      1  C   UNL     1       1.707   8.477  19.058  0.00  0.00    +0.000 A 
ATOM      2  C   UNL     1       1.307   9.562  18.274  0.00  0.00    +0.000 A 
ATOM      3  C   UNL     1       0.572  10.603  18.840  0.00  0.00    +0.000 A 
ATOM      4  C   UNL     1       0.221  10.568  20.194  0.00  0.00    +0.000 A 
ATOM      5  C   UNL     1      -0.564  11.641  20.849  0.00  0.00    +0.000 A 
ATOM      6  O   UNL     1      -0.943  12.649  20.264  0.00  0.00    +0.000 OA
ATOM      7  C   UNL     1      -0.882  11.439  22.286  0.00  0.00    +0.000 A 
ATOM      8  C   UNL     1      -0.420  10.336  22.890  0.00  0.00    +0.000 A 
ATOM      9  O   UNL     1       0.330   9.349  22.306  0.00  0.00    +0.000 OA
ATOM     10  C   UNL     1       0.621   9.475  20.970  0.00  0.00    +0.000 A 
ATOM     11  C   UNL     1       1.353   8.431  20.404  0.00  0.00    +0.000 A 
ENDROOT
BRANCH   7  12
ATOM     12  C   UNL     1      -1.688  12.406  23.032  0.00  0.00    +0.000 A 
ATOM     13  C   UNL     1      -1.141  13.638  23.413  0.00  0.00    +0.000 A 
ATOM     14  C   UNL     1      -1.912  14.561  24.123  0.00  0.00    +0.000 A 
ATOM     15  C   UNL     1      -3.229  14.245  24.447  0.00  0.00    +0.000 A 
ATOM     16  C   UNL     1      -3.786  13.028  24.072  0.00  0.00    +0.000 A 
ATOM     17  C   UNL     1      -3.015  12.106  23.364  0.00  0.00    +0.000 A 
BRANCH  15  18
ATOM     18  O   UNL     1      -4.017  15.116  25.137  0.00  0.00    +0.000 OA
ATOM     19  H   UNL     1      -4.940  14.973  24.874  0.00  0.00    +0.000 HD
ENDBRANCH  15  18
ENDBRANCH   7  12
BRANCH   3  20
ATOM     20  O   UNL     1       0.196  11.642  18.037  0.00  0.00    +0.000 OA
ATOM     21  H   UNL     1      -0.762  11.779  18.071  0.00  0.00    +0.000 HD
ENDBRANCH   3  20
BRANCH   1  22
ATOM     22  O   UNL     1       2.411   7.400  18.596  0.00  0.00    +0.000 OA
BRANCH  22  23
ATOM     23  C   UNL     1       3.676   7.721  18.026  0.00  0.00    +0.000 C 
BRANCH  23  24
ATOM     24  C   UNL     1       3.724   7.189  16.605  0.00  0.00    +0.000 C 
BRANCH  24  25
ATOM     25  C   UNL     1       5.169   6.880  16.247  0.00  0.00    +0.000 C 
BRANCH  25  26
ATOM     26  C   UNL     1       5.275   5.681  15.320  0.00  0.00    +0.000 C 
BRANCH  26  27
ATOM     27  C   UNL     1       5.145   4.357  16.072  0.00  0.00    +0.000 C 
BRANCH  27  28
ATOM     28  C   UNL     1       6.069   4.263  17.297  0.00  0.00    +0.000 C 
BRANCH  28  30
ATOM     29  C   UNL     1       6.341   5.335  19.454  0.00  0.00    +0.000 C 
ATOM     30  N   UNL     1       5.410   4.637  18.559  0.00  0.00    +0.000 NA
BRANCH  30  31
ATOM     31  C   UNL     1       4.848   3.429  19.204  0.00  0.00    +0.000 C 
BRANCH  31  32
ATOM     32  C   UNL     1       3.351   3.522  19.424  0.00  0.00    +0.000 A 
ATOM     33  C   UNL     1       2.823   4.450  20.334  0.00  0.00    +0.000 A 
ATOM     34  C   UNL     1       1.462   4.438  20.643  0.00  0.00    +0.000 A 
ATOM     35  C   UNL     1       0.618   3.506  20.043  0.00  0.00    +0.000 A 
ATOM     36  C   UNL     1       1.126   2.609  19.105  0.00  0.00    +0.000 A 
ATOM     37  C   UNL     1       2.484   2.622  18.788  0.00  0.00    +0.000 A 
ENDBRANCH  31  32
ENDBRANCH  30  31
ENDBRANCH  28  30
ENDBRANCH  27  28
ENDBRANCH  26  27
ENDBRANCH  25  26
ENDBRANCH  24  25
ENDBRANCH  23  24
ENDBRANCH  22  23
ENDBRANCH   1  22
TORSDOF 13
ENDMDL
MODEL 6
REMARK VINA RESULT:      -7.5      3.435     10.180
REMARK  Name = 
REMARK  14 active torsions:
REMARK  status: ('A' for Active; 'I' for Inactive)
REMARK    1  A    between atoms: C_1  and  N_2
REMARK    2  A    between atoms: N_2  and  C_3
REMARK    3  A    between atoms: N_2  and  C_29
REMARK    4  A    between atoms: C_3  and  C_4
REMARK    5  A    between atoms: C_4  and  C_5
REMARK    6  A    between atoms: C_5  and  C_6
REMARK    7  A    between atoms: C_6  and  C_7
REMARK    8  A    between atoms: C_7  and  C_8
REMARK    9  A    between atoms: C_8  and  O_9
REMARK   10  A    between atoms: O_9  and  C_10
REMARK   11  A    between atoms: C_12  and  O_13
REMARK   12  A    between atoms: C_17  and  C_18
REMARK   13  A    between atoms: C_21  and  O_22
REMARK   14  A    between atoms: C_29  and  C_30
REMARK                            x       y       z     vdW  Elec       q    Type
REMARK                         _______ _______ _______ _____ _____    ______ ____
ROOT
ATOM      1  C   UNL     1       1.024   9.080  19.770  0.00  0.00    +0.000 A 
ATOM      2  C   UNL     1       0.575   9.994  18.814  0.00  0.00    +0.000 A 
ATOM      3  C   UNL     1      -0.291  11.023  19.179  0.00  0.00    +0.000 A 
ATOM      4  C   UNL     1      -0.727  11.146  20.503  0.00  0.00    +0.000 A 
ATOM      5  C   UNL     1      -1.653  12.214  20.949  0.00  0.00    +0.000 A 
ATOM      6  O   UNL     1      -2.086  13.084  20.201  0.00  0.00    +0.000 OA
ATOM      7  C   UNL     1      -2.045  12.187  22.382  0.00  0.00    +0.000 A 
ATOM      8  C   UNL     1      -1.521  11.237  23.166  0.00  0.00    +0.000 A 
ATOM      9  O   UNL     1      -0.643  10.260  22.776  0.00  0.00    +0.000 OA
ATOM     10  C   UNL     1      -0.277  10.223  21.453  0.00  0.00    +0.000 A 
ATOM     11  C   UNL     1       0.587   9.190  21.088  0.00  0.00    +0.000 A 
ENDROOT
BRANCH   7  12
ATOM     12  C   UNL     1      -2.988  13.162  22.932  0.00  0.00    +0.000 A 
ATOM     13  C   UNL     1      -4.363  13.017  22.711  0.00  0.00    +0.000 A 
ATOM     14  C   UNL     1      -5.262  13.947  23.238  0.00  0.00    +0.000 A 
ATOM     15  C   UNL     1      -4.779  15.017  23.985  0.00  0.00    +0.000 A 
ATOM     16  C   UNL     1      -3.416  15.172  24.214  0.00  0.00    +0.000 A 
ATOM     17  C   UNL     1      -2.518  14.244  23.687  0.00  0.00    +0.000 A 
BRANCH  15  18
ATOM     18  O   UNL     1      -5.620  15.947  24.518  0.00  0.00    +0.000 OA
ATOM     19  H   UNL     1      -5.746  16.658  23.869  0.00  0.00    +0.000 HD
ENDBRANCH  15  18
ENDBRANCH   7  12
BRANCH   3  20
ATOM     20  O   UNL     1      -0.710  11.892  18.212  0.00  0.00    +0.000 OA
ATOM     21  H   UNL     1      -0.994  12.733  18.600  0.00  0.00    +0.000 HD
ENDBRANCH   3  20
BRANCH   1  22
ATOM     22  O   UNL     1       1.857   8.027  19.512  0.00  0.00    +0.000 OA
BRANCH  22  23
ATOM     23  C   UNL     1       1.990   7.101  20.586  0.00  0.00    +0.000 C 
BRANCH  23  24
ATOM     24  C   UNL     1       2.263   5.721  20.015  0.00  0.00    +0.000 C 
BRANCH  24  25
ATOM     25  C   UNL     1       1.219   4.755  20.554  0.00  0.00    +0.000 C 
BRANCH  25  26
ATOM     26  C   UNL     1       1.125   3.498  19.705  0.00  0.00    +0.000 C 
BRANCH  26  27
ATOM     27  C   UNL     1       1.697   3.705  18.303  0.00  0.00    +0.000 C 
BRANCH  27  28
ATOM     28  C   UNL     1       2.212   2.406  17.661  0.00  0.00    +0.000 C 
BRANCH  28  30
ATOM     29  C   UNL     1       3.900   1.094  18.806  0.00  0.00    +0.000 C 
ATOM     30  N   UNL     1       3.655   2.187  17.857  0.00  0.00    +0.000 NA
BRANCH  30  31
ATOM     31  C   UNL     1       4.292   3.445  18.309  0.00  0.00    +0.000 C 
BRANCH  31  32
ATOM     32  C   UNL     1       4.831   4.277  17.162  0.00  0.00    +0.000 A 
ATOM     33  C   UNL     1       4.766   5.677  17.210  0.00  0.00    +0.000 A 
ATOM     34  C   UNL     1       5.129   6.439  16.098  0.00  0.00    +0.000 A 
ATOM     35  C   UNL     1       5.565   5.808  14.934  0.00  0.00    +0.000 A 
ATOM     36  C   UNL     1       5.674   4.420  14.891  0.00  0.00    +0.000 A 
ATOM     37  C   UNL     1       5.319   3.656  16.004  0.00  0.00    +0.000 A 
ENDBRANCH  31  32
ENDBRANCH  30  31
ENDBRANCH  28  30
ENDBRANCH  27  28
ENDBRANCH  26  27
ENDBRANCH  25  26
ENDBRANCH  24  25
ENDBRANCH  23  24
ENDBRANCH  22  23
ENDBRANCH   1  22
TORSDOF 13
ENDMDL
MODEL 7
REMARK VINA RESULT:      -7.4      5.316      8.291
REMARK  Name = 
REMARK  14 active torsions:
REMARK  status: ('A' for Active; 'I' for Inactive)
REMARK    1  A    between atoms: C_1  and  N_2
REMARK    2  A    between atoms: N_2  and  C_3
REMARK    3  A    between atoms: N_2  and  C_29
REMARK    4  A    between atoms: C_3  and  C_4
REMARK    5  A    between atoms: C_4  and  C_5
REMARK    6  A    between atoms: C_5  and  C_6
REMARK    7  A    between atoms: C_6  and  C_7
REMARK    8  A    between atoms: C_7  and  C_8
REMARK    9  A    between atoms: C_8  and  O_9
REMARK   10  A    between atoms: O_9  and  C_10
REMARK   11  A    between atoms: C_12  and  O_13
REMARK   12  A    between atoms: C_17  and  C_18
REMARK   13  A    between atoms: C_21  and  O_22
REMARK   14  A    between atoms: C_29  and  C_30
REMARK                            x       y       z     vdW  Elec       q    Type
REMARK                         _______ _______ _______ _____ _____    ______ ____
ROOT
ATOM      1  C   UNL     1       1.148  11.122  19.193  0.00  0.00    +0.000 A 
ATOM      2  C   UNL     1       0.729  10.455  20.347  0.00  0.00    +0.000 A 
ATOM      3  C   UNL     1       0.992   9.096  20.506  0.00  0.00    +0.000 A 
ATOM      4  C   UNL     1       1.670   8.383  19.510  0.00  0.00    +0.000 A 
ATOM      5  C   UNL     1       1.971   6.937  19.620  0.00  0.00    +0.000 A 
ATOM      6  O   UNL     1       1.674   6.261  20.599  0.00  0.00    +0.000 OA
ATOM      7  C   UNL     1       2.669   6.322  18.462  0.00  0.00    +0.000 A 
ATOM      8  C   UNL     1       3.001   7.107  17.429  0.00  0.00    +0.000 A 
ATOM      9  O   UNL     1       2.754   8.451  17.324  0.00  0.00    +0.000 OA
ATOM     10  C   UNL     1       2.081   9.058  18.356  0.00  0.00    +0.000 A 
ATOM     11  C   UNL     1       1.815  10.418  18.193  0.00  0.00    +0.000 A 
ENDROOT
BRANCH   7  12
ATOM     12  C   UNL     1       2.982   4.892  18.432  0.00  0.00    +0.000 A 
ATOM     13  C   UNL     1       2.179   4.008  17.701  0.00  0.00    +0.000 A 
ATOM     14  C   UNL     1       2.479   2.644  17.672  0.00  0.00    +0.000 A 
ATOM     15  C   UNL     1       3.584   2.173  18.376  0.00  0.00    +0.000 A 
ATOM     16  C   UNL     1       4.391   3.040  19.103  0.00  0.00    +0.000 A 
ATOM     17  C   UNL     1       4.091   4.401  19.133  0.00  0.00    +0.000 A 
BRANCH  15  18
ATOM     18  O   UNL     1       3.913   0.851  18.374  0.00  0.00    +0.000 OA
ATOM     19  H   UNL     1       3.680   0.476  17.510  0.00  0.00    +0.000 HD
ENDBRANCH  15  18
ENDBRANCH   7  12
BRANCH   3  20
ATOM     20  O   UNL     1       0.560   8.481  21.647  0.00  0.00    +0.000 OA
ATOM     21  H   UNL     1       1.146   7.749  21.890  0.00  0.00    +0.000 HD
ENDBRANCH   3  20
BRANCH   1  22
ATOM     22  O   UNL     1       0.924  12.445  18.933  0.00  0.00    +0.000 OA
BRANCH  22  23
ATOM     23  C   UNL     1       2.088  13.181  18.567  0.00  0.00    +0.000 C 
BRANCH  23  24
ATOM     24  C   UNL     1       2.670  13.829  19.811  0.00  0.00    +0.000 C 
BRANCH  24  25
ATOM     25  C   UNL     1       3.738  14.826  19.389  0.00  0.00    +0.000 C 
BRANCH  25  26
ATOM     26  C   UNL     1       4.152  14.627  17.940  0.00  0.00    +0.000 C 
BRANCH  26  27
ATOM     27  C   UNL     1       5.665  14.717  17.755  0.00  0.00    +0.000 C 
BRANCH  27  28
ATOM     28  C   UNL     1       6.424  14.945  19.074  0.00  0.00    +0.000 C 
BRANCH  28  30
ATOM     29  C   UNL     1       8.482  15.931  18.254  0.00  0.00    +0.000 C 
ATOM     30  N   UNL     1       7.882  14.784  18.947  0.00  0.00    +0.000 NA
BRANCH  30  31
ATOM     31  C   UNL     1       8.183  13.515  18.247  0.00  0.00    +0.000 C 
BRANCH  31  32
ATOM     32  C   UNL     1       9.533  12.939  18.626  0.00  0.00    +0.000 A 
ATOM     33  C   UNL     1      10.455  12.577  17.633  0.00  0.00    +0.000 A 
ATOM     34  C   UNL     1      11.636  11.916  17.974  0.00  0.00    +0.000 A 
ATOM     35  C   UNL     1      11.909  11.619  19.308  0.00  0.00    +0.000 A 
ATOM     36  C   UNL     1      11.020  12.014  20.306  0.00  0.00    +0.000 A 
ATOM     37  C   UNL     1       9.841  12.680  19.969  0.00  0.00    +0.000 A 
ENDBRANCH  31  32
ENDBRANCH  30  31
ENDBRANCH  28  30
ENDBRANCH  27  28
ENDBRANCH  26  27
ENDBRANCH  25  26
ENDBRANCH  24  25
ENDBRANCH  23  24
ENDBRANCH  22  23
ENDBRANCH   1  22
TORSDOF 13
ENDMDL
MODEL 8
REMARK VINA RESULT:      -7.4      3.634     10.322
REMARK  Name = 
REMARK  14 active torsions:
REMARK  status: ('A' for Active; 'I' for Inactive)
REMARK    1  A    between atoms: C_1  and  N_2
REMARK    2  A    between atoms: N_2  and  C_3
REMARK    3  A    between atoms: N_2  and  C_29
REMARK    4  A    between atoms: C_3  and  C_4
REMARK    5  A    between atoms: C_4  and  C_5
REMARK    6  A    between atoms: C_5  and  C_6
REMARK    7  A    between atoms: C_6  and  C_7
REMARK    8  A    between atoms: C_7  and  C_8
REMARK    9  A    between atoms: C_8  and  O_9
REMARK   10  A    between atoms: O_9  and  C_10
REMARK   11  A    between atoms: C_12  and  O_13
REMARK   12  A    between atoms: C_17  and  C_18
REMARK   13  A    between atoms: C_21  and  O_22
REMARK   14  A    between atoms: C_29  and  C_30
REMARK                            x       y       z     vdW  Elec       q    Type
REMARK                         _______ _______ _______ _____ _____    ______ ____
ROOT
ATOM      1  C   UNL     1       1.675   8.112  19.358  0.00  0.00    +0.000 A 
ATOM      2  C   UNL     1       1.449   9.238  18.562  0.00  0.00    +0.000 A 
ATOM      3  C   UNL     1       0.761  10.335  19.078  0.00  0.00    +0.000 A 
ATOM      4  C   UNL     1       0.283  10.317  20.393  0.00  0.00    +0.000 A 
ATOM      5  C   UNL     1      -0.460  11.449  20.994  0.00  0.00    +0.000 A 
ATOM      6  O   UNL     1      -0.690  12.495  20.396  0.00  0.00    +0.000 OA
ATOM      7  C   UNL     1      -0.927  11.261  22.391  0.00  0.00    +0.000 A 
ATOM      8  C   UNL     1      -0.624  10.114  23.014  0.00  0.00    +0.000 A 
ATOM      9  O   UNL     1       0.085   9.070  22.482  0.00  0.00    +0.000 OA
ATOM     10  C   UNL     1       0.510   9.183  21.181  0.00  0.00    +0.000 A 
ATOM     11  C   UNL     1       1.195   8.083  20.665  0.00  0.00    +0.000 A 
ENDROOT
BRANCH   7  12
ATOM     12  C   UNL     1      -1.710  12.290  23.079  0.00  0.00    +0.000 A 
ATOM     13  C   UNL     1      -3.032  12.034  23.460  0.00  0.00    +0.000 A 
ATOM     14  C   UNL     1      -3.778  13.015  24.117  0.00  0.00    +0.000 A 
ATOM     15  C   UNL     1      -3.193  14.248  24.390  0.00  0.00    +0.000 A 
ATOM     16  C   UNL     1      -1.880  14.515  24.020  0.00  0.00    +0.000 A 
ATOM     17  C   UNL     1      -1.136  13.535  23.363  0.00  0.00    +0.000 A 
BRANCH  15  18
ATOM     18  O   UNL     1      -3.884  15.234  25.029  0.00  0.00    +0.000 OA
ATOM     19  H   UNL     1      -3.808  15.092  25.987  0.00  0.00    +0.000 HD
ENDBRANCH  15  18
ENDBRANCH   7  12
BRANCH   3  20
ATOM     20  O   UNL     1       0.557  11.412  18.265  0.00  0.00    +0.000 OA
ATOM     21  H   UNL     1       0.954  11.270  17.392  0.00  0.00    +0.000 HD
ENDBRANCH   3  20
BRANCH   1  22
ATOM     22  O   UNL     1       2.320   6.980  18.942  0.00  0.00    +0.000 OA
BRANCH  22  23
ATOM     23  C   UNL     1       3.046   6.304  19.965  0.00  0.00    +0.000 C 
BRANCH  23  24
ATOM     24  C   UNL     1       4.240   5.605  19.339  0.00  0.00    +0.000 C 
BRANCH  24  25
ATOM     25  C   UNL     1       4.050   4.102  19.470  0.00  0.00    +0.000 C 
BRANCH  25  26
ATOM     26  C   UNL     1       2.918   3.599  18.589  0.00  0.00    +0.000 C 
BRANCH  26  27
ATOM     27  C   UNL     1       3.079   4.042  17.136  0.00  0.00    +0.000 C 
BRANCH  27  28
ATOM     28  C   UNL     1       4.272   3.377  16.428  0.00  0.00    +0.000 C 
BRANCH  28  30
ATOM     29  C   UNL     1       5.260   4.341  14.435  0.00  0.00    +0.000 C 
ATOM     30  N   UNL     1       5.254   4.340  15.903  0.00  0.00    +0.000 NA
BRANCH  30  31
ATOM     31  C   UNL     1       6.595   4.030  16.446  0.00  0.00    +0.000 C 
BRANCH  31  32
ATOM     32  C   UNL     1       7.213   5.196  17.192  0.00  0.00    +0.000 A 
ATOM     33  C   UNL     1       7.719   5.022  18.488  0.00  0.00    +0.000 A 
ATOM     34  C   UNL     1       8.156   6.122  19.229  0.00  0.00    +0.000 A 
ATOM     35  C   UNL     1       8.097   7.401  18.678  0.00  0.00    +0.000 A 
ATOM     36  C   UNL     1       7.637   7.578  17.375  0.00  0.00    +0.000 A 
ATOM     37  C   UNL     1       7.206   6.481  16.629  0.00  0.00    +0.000 A 
ENDBRANCH  31  32
ENDBRANCH  30  31
ENDBRANCH  28  30
ENDBRANCH  27  28
ENDBRANCH  26  27
ENDBRANCH  25  26
ENDBRANCH  24  25
ENDBRANCH  23  24
ENDBRANCH  22  23
ENDBRANCH   1  22
TORSDOF 13
ENDMDL
MODEL 9
REMARK VINA RESULT:      -7.4      1.186      1.504
REMARK  Name = 
REMARK  14 active torsions:
REMARK  status: ('A' for Active; 'I' for Inactive)
REMARK    1  A    between atoms: C_1  and  N_2
REMARK    2  A    between atoms: N_2  and  C_3
REMARK    3  A    between atoms: N_2  and  C_29
REMARK    4  A    between atoms: C_3  and  C_4
REMARK    5  A    between atoms: C_4  and  C_5
REMARK    6  A    between atoms: C_5  and  C_6
REMARK    7  A    between atoms: C_6  and  C_7
REMARK    8  A    between atoms: C_7  and  C_8
REMARK    9  A    between atoms: C_8  and  O_9
REMARK   10  A    between atoms: O_9  and  C_10
REMARK   11  A    between atoms: C_12  and  O_13
REMARK   12  A    between atoms: C_17  and  C_18
REMARK   13  A    between atoms: C_21  and  O_22
REMARK   14  A    between atoms: C_29  and  C_30
REMARK                            x       y       z     vdW  Elec       q    Type
REMARK                         _______ _______ _______ _____ _____    ______ ____
ROOT
ATOM      1  C   UNL     1       0.316  11.522  20.584  0.00  0.00    +0.000 A 
ATOM      2  C   UNL     1       0.902  11.682  19.326  0.00  0.00    +0.000 A 
ATOM      3  C   UNL     1       1.485  10.593  18.680  0.00  0.00    +0.000 A 
ATOM      4  C   UNL     1       1.497   9.332  19.287  0.00  0.00    +0.000 A 
ATOM      5  C   UNL     1       2.108   8.140  18.653  0.00  0.00    +0.000 A 
ATOM      6  O   UNL     1       2.625   8.161  17.541  0.00  0.00    +0.000 OA
ATOM      7  C   UNL     1       2.066   6.882  19.442  0.00  0.00    +0.000 A 
ATOM      8  C   UNL     1       1.464   6.902  20.637  0.00  0.00    +0.000 A 
ATOM      9  O   UNL     1       0.870   7.987  21.226  0.00  0.00    +0.000 OA
ATOM     10  C   UNL     1       0.913   9.182  20.549  0.00  0.00    +0.000 A 
ATOM     11  C   UNL     1       0.332  10.272  21.199  0.00  0.00    +0.000 A 
ENDROOT
BRANCH   7  12
ATOM     12  C   UNL     1       2.675   5.648  18.942  0.00  0.00    +0.000 A 
ATOM     13  C   UNL     1       1.933   4.766  18.147  0.00  0.00    +0.000 A 
ATOM     14  C   UNL     1       2.515   3.590  17.669  0.00  0.00    +0.000 A 
ATOM     15  C   UNL     1       3.840   3.305  17.989  0.00  0.00    +0.000 A 
ATOM     16  C   UNL     1       4.589   4.174  18.774  0.00  0.00    +0.000 A 
ATOM     17  C   UNL     1       4.007   5.348  19.252  0.00  0.00    +0.000 A 
BRANCH  15  18
ATOM     18  O   UNL     1       4.448   2.170  17.543  0.00  0.00    +0.000 OA
ATOM     19  H   UNL     1       5.050   1.850  18.234  0.00  0.00    +0.000 HD
ENDBRANCH  15  18
ENDBRANCH   7  12
BRANCH   3  20
ATOM     20  O   UNL     1       2.051  10.794  17.454  0.00  0.00    +0.000 OA
ATOM     21  H   UNL     1       2.471  11.666  17.404  0.00  0.00    +0.000 HD
ENDBRANCH   3  20
BRANCH   1  22
ATOM     22  O   UNL     1      -0.263  12.526  21.308  0.00  0.00    +0.000 OA
BRANCH  22  23
ATOM     23  C   UNL     1      -0.783  12.121  22.571  0.00  0.00    +0.000 C 
BRANCH  23  24
ATOM     24  C   UNL     1      -2.281  11.912  22.443  0.00  0.00    +0.000 C 
BRANCH  24  25
ATOM     25  C   UNL     1      -2.984  12.771  23.483  0.00  0.00    +0.000 C 
BRANCH  25  26
ATOM     26  C   UNL     1      -4.365  13.201  23.017  0.00  0.00    +0.000 C 
BRANCH  26  27
ATOM     27  C   UNL     1      -4.384  13.573  21.535  0.00  0.00    +0.000 C 
BRANCH  27  28
ATOM     28  C   UNL     1      -5.652  13.099  20.807  0.00  0.00    +0.000 C 
BRANCH  28  30
ATOM     29  C   UNL     1      -6.578  14.098  18.801  0.00  0.00    +0.000 C 
ATOM     30  N   UNL     1      -5.557  13.192  19.340  0.00  0.00    +0.000 NA
BRANCH  30  31
ATOM     31  C   UNL     1      -5.669  11.840  18.748  0.00  0.00    +0.000 C 
BRANCH  31  32
ATOM     32  C   UNL     1      -4.462  11.461  17.913  0.00  0.00    +0.000 A 
ATOM     33  C   UNL     1      -4.581  11.299  16.525  0.00  0.00    +0.000 A 
ATOM     34  C   UNL     1      -3.509  10.811  15.777  0.00  0.00    +0.000 A 
ATOM     35  C   UNL     1      -2.308  10.489  16.408  0.00  0.00    +0.000 A 
ATOM     36  C   UNL     1      -2.166  10.688  17.780  0.00  0.00    +0.000 A 
ATOM     37  C   UNL     1      -3.234  11.182  18.529  0.00  0.00    +0.000 A 
ENDBRANCH  31  32
ENDBRANCH  30  31
ENDBRANCH  28  30
ENDBRANCH  27  28
ENDBRANCH  26  27
ENDBRANCH  25  26
ENDBRANCH  24  25
ENDBRANCH  23  24
ENDBRANCH  22  23
ENDBRANCH   1  22
TORSDOF 13
ENDMDL
