MODEL 1
REMARK VINA RESULT:      -6.5      0.000      0.000
REMARK  Name = 
REMARK  4 active torsions:
REMARK  status: ('A' for Active; 'I' for Inactive)
REMARK    1  A    between atoms: C_1  and  S_2
REMARK    2  A    between atoms: S_2  and  C_3
REMARK    3  A    between atoms: C_8  and  C_9
REMARK    4  A    between atoms: N_11  and  C_12
REMARK                            x       y       z     vdW  Elec       q    Type
REMARK                         _______ _______ _______ _____ _____    ______ ____
ROOT
ATOM      1  C   UNL     1       3.596   4.058  18.609  0.00  0.00    +0.000 A 
ATOM      2  N   UNL     1       3.882   2.779  18.303  0.00  0.00    +0.000 NA
ATOM      3  N   UNL     1       4.550   2.855  17.121  0.00  0.00    +0.000 N 
ATOM      4  C   UNL     1       4.674   4.128  16.687  0.00  0.00    +0.000 A 
ATOM      5  C   UNL     1       4.076   4.886  17.615  0.00  0.00    +0.000 A 
ATOM      6  C   UNL     1       4.164   6.205  17.227  0.00  0.00    +0.000 A 
ATOM      7  C   UNL     1       3.625   7.434  17.852  0.00  0.00    +0.000 C 
ATOM      8  N   UNL     1       4.865   6.276  16.070  0.00  0.00    +0.000 NA
ATOM      9  N   UNL     1       5.155   4.969  15.730  0.00  0.00    +0.000 N 
ATOM     10  H   UNL     1       4.882   1.992  16.705  0.00  0.00    +0.000 HD
ENDROOT
BRANCH   9  11
ATOM     11  C   UNL     1       5.847   4.643  14.534  0.00  0.00    +0.000 A 
ATOM     12  C   UNL     1       7.079   5.249  14.252  0.00  0.00    +0.000 A 
ATOM     13  C   UNL     1       7.759   4.939  13.069  0.00  0.00    +0.000 A 
ATOM     14  C   UNL     1       7.212   4.034  12.162  0.00  0.00    +0.000 A 
ATOM     15  C   UNL     1       5.988   3.429  12.435  0.00  0.00    +0.000 A 
ATOM     16  C   UNL     1       5.307   3.727  13.618  0.00  0.00    +0.000 A 
ENDBRANCH   9  11
BRANCH   1  18
ATOM     17  C   UNL     1       1.258   3.541  19.942  0.00  0.00    +0.000 C 
ATOM     18  S   UNL     1       2.780   4.506  20.079  0.00  0.00    +0.000 S 
ENDBRANCH   1  18
TORSDOF 2
ENDMDL
MODEL 2
REMARK VINA RESULT:      -6.5      0.078      1.174
REMARK  Name = 
REMARK  4 active torsions:
REMARK  status: ('A' for Active; 'I' for Inactive)
REMARK    1  A    between atoms: C_1  and  S_2
REMARK    2  A    between atoms: S_2  and  C_3
REMARK    3  A    between atoms: C_8  and  C_9
REMARK    4  A    between atoms: N_11  and  C_12
REMARK                            x       y       z     vdW  Elec       q    Type
REMARK                         _______ _______ _______ _____ _____    ______ ____
ROOT
ATOM      1  C   UNL     1       3.671   4.069  18.614  0.00  0.00    +0.000 A 
ATOM      2  N   UNL     1       3.987   2.795  18.316  0.00  0.00    +0.000 NA
ATOM      3  N   UNL     1       4.641   2.878  17.126  0.00  0.00    +0.000 N 
ATOM      4  C   UNL     1       4.727   4.149  16.681  0.00  0.00    +0.000 A 
ATOM      5  C   UNL     1       4.120   4.900  17.608  0.00  0.00    +0.000 A 
ATOM      6  C   UNL     1       4.169   6.217  17.208  0.00  0.00    +0.000 A 
ATOM      7  C   UNL     1       3.606   7.438  17.828  0.00  0.00    +0.000 C 
ATOM      8  N   UNL     1       4.857   6.297  16.043  0.00  0.00    +0.000 NA
ATOM      9  N   UNL     1       5.177   4.995  15.711  0.00  0.00    +0.000 N 
ATOM     10  H   UNL     1       4.990   2.020  16.715  0.00  0.00    +0.000 HD
ENDROOT
BRANCH   9  11
ATOM     11  C   UNL     1       5.865   4.676  14.511  0.00  0.00    +0.000 A 
ATOM     12  C   UNL     1       5.299   3.771  13.602  0.00  0.00    +0.000 A 
ATOM     13  C   UNL     1       5.977   3.445  12.423  0.00  0.00    +0.000 A 
ATOM     14  C   UNL     1       7.221   4.011  12.149  0.00  0.00    +0.000 A 
ATOM     15  C   UNL     1       7.789   4.910  13.048  0.00  0.00    +0.000 A 
ATOM     16  C   UNL     1       7.113   5.246  14.224  0.00  0.00    +0.000 A 
ENDBRANCH   9  11
BRANCH   1  18
ATOM     17  C   UNL     1       1.242   3.741  19.840  0.00  0.00    +0.000 C 
ATOM     18  S   UNL     1       2.858   4.508  20.089  0.00  0.00    +0.000 S 
ENDBRANCH   1  18
TORSDOF 2
ENDMDL
MODEL 3
REMARK VINA RESULT:      -6.4      2.684      6.561
REMARK  Name = 
REMARK  4 active torsions:
REMARK  status: ('A' for Active; 'I' for Inactive)
REMARK    1  A    between atoms: C_1  and  S_2
REMARK    2  A    between atoms: S_2  and  C_3
REMARK    3  A    between atoms: C_8  and  C_9
REMARK    4  A    between atoms: N_11  and  C_12
REMARK                            x       y       z     vdW  Elec       q    Type
REMARK                         _______ _______ _______ _____ _____    ______ ____
ROOT
ATOM      1  C   UNL     1       5.500   5.362  16.368  0.00  0.00    +0.000 A 
ATOM      2  N   UNL     1       5.978   6.619  16.298  0.00  0.00    +0.000 NA
ATOM      3  N   UNL     1       5.083   7.361  17.002  0.00  0.00    +0.000 N 
ATOM      4  C   UNL     1       4.072   6.610  17.491  0.00  0.00    +0.000 A 
ATOM      5  C   UNL     1       4.328   5.357  17.095  0.00  0.00    +0.000 A 
ATOM      6  C   UNL     1       3.324   4.536  17.560  0.00  0.00    +0.000 A 
ATOM      7  C   UNL     1       3.091   3.088  17.362  0.00  0.00    +0.000 C 
ATOM      8  N   UNL     1       2.458   5.275  18.294  0.00  0.00    +0.000 NA
ATOM      9  N   UNL     1       2.923   6.574  18.221  0.00  0.00    +0.000 N 
ATOM     10  H   UNL     1       5.258   8.355  17.095  0.00  0.00    +0.000 HD
ENDROOT
BRANCH   9  11
ATOM     11  C   UNL     1       2.233   7.651  18.837  0.00  0.00    +0.000 A 
ATOM     12  C   UNL     1       1.884   7.574  20.193  0.00  0.00    +0.000 A 
ATOM     13  C   UNL     1       1.196   8.628  20.801  0.00  0.00    +0.000 A 
ATOM     14  C   UNL     1       0.845   9.756  20.063  0.00  0.00    +0.000 A 
ATOM     15  C   UNL     1       1.188   9.840  18.716  0.00  0.00    +0.000 A 
ATOM     16  C   UNL     1       1.883   8.794  18.103  0.00  0.00    +0.000 A 
ENDBRANCH   9  11
BRANCH   1  18
ATOM     17  C   UNL     1       6.925   4.734  14.112  0.00  0.00    +0.000 C 
ATOM     18  S   UNL     1       6.330   4.007  15.656  0.00  0.00    +0.000 S 
ENDBRANCH   1  18
TORSDOF 2
ENDMDL
MODEL 4
REMARK VINA RESULT:      -6.4      2.670      6.504
REMARK  Name = 
REMARK  4 active torsions:
REMARK  status: ('A' for Active; 'I' for Inactive)
REMARK    1  A    between atoms: C_1  and  S_2
REMARK    2  A    between atoms: S_2  and  C_3
REMARK    3  A    between atoms: C_8  and  C_9
REMARK    4  A    between atoms: N_11  and  C_12
REMARK                            x       y       z     vdW  Elec       q    Type
REMARK                         _______ _______ _______ _____ _____    ______ ____
ROOT
ATOM      1  C   UNL     1       5.549   5.328  16.403  0.00  0.00    +0.000 A 
ATOM      2  N   UNL     1       6.037   6.581  16.346  0.00  0.00    +0.000 NA
ATOM      3  N   UNL     1       5.125   7.331  17.020  0.00  0.00    +0.000 N 
ATOM      4  C   UNL     1       4.094   6.588  17.478  0.00  0.00    +0.000 A 
ATOM      5  C   UNL     1       4.354   5.333  17.093  0.00  0.00    +0.000 A 
ATOM      6  C   UNL     1       3.331   4.519  17.527  0.00  0.00    +0.000 A 
ATOM      7  C   UNL     1       3.094   3.072  17.325  0.00  0.00    +0.000 C 
ATOM      8  N   UNL     1       2.447   5.265  18.233  0.00  0.00    +0.000 NA
ATOM      9  N   UNL     1       2.922   6.561  18.172  0.00  0.00    +0.000 N 
ATOM     10  H   UNL     1       5.303   8.324  17.117  0.00  0.00    +0.000 HD
ENDROOT
BRANCH   9  11
ATOM     11  C   UNL     1       2.221   7.644  18.764  0.00  0.00    +0.000 A 
ATOM     12  C   UNL     1       1.869   8.756  17.987  0.00  0.00    +0.000 A 
ATOM     13  C   UNL     1       1.187   9.831  18.567  0.00  0.00    +0.000 A 
ATOM     14  C   UNL     1       0.862   9.806  19.922  0.00  0.00    +0.000 A 
ATOM     15  C   UNL     1       1.209   8.705  20.700  0.00  0.00    +0.000 A 
ATOM     16  C   UNL     1       1.883   7.624  20.125  0.00  0.00    +0.000 A 
ENDBRANCH   9  11
BRANCH   1  18
ATOM     17  C   UNL     1       6.597   4.505  14.008  0.00  0.00    +0.000 C 
ATOM     18  S   UNL     1       6.391   3.967  15.721  0.00  0.00    +0.000 S 
ENDBRANCH   1  18
TORSDOF 2
ENDMDL
MODEL 5
REMARK VINA RESULT:      -6.4      2.514      6.297
REMARK  Name = 
REMARK  4 active torsions:
REMARK  status: ('A' for Active; 'I' for Inactive)
REMARK    1  A    between atoms: C_1  and  S_2
REMARK    2  A    between atoms: S_2  and  C_3
REMARK    3  A    between atoms: C_8  and  C_9
REMARK    4  A    between atoms: N_11  and  C_12
REMARK                            x       y       z     vdW  Elec       q    Type
REMARK                         _______ _______ _______ _____ _____    ______ ____
ROOT
ATOM      1  C   UNL     1       6.018   4.575  16.107  0.00  0.00    +0.000 A 
ATOM      2  N   UNL     1       4.938   4.008  15.538  0.00  0.00    +0.000 NA
ATOM      3  N   UNL     1       4.099   3.759  16.579  0.00  0.00    +0.000 N 
ATOM      4  C   UNL     1       4.627   4.141  17.761  0.00  0.00    +0.000 A 
ATOM      5  C   UNL     1       5.830   4.651  17.471  0.00  0.00    +0.000 A 
ATOM      6  C   UNL     1       6.428   5.058  18.644  0.00  0.00    +0.000 A 
ATOM      7  C   UNL     1       7.769   5.632  18.897  0.00  0.00    +0.000 C 
ATOM      8  N   UNL     1       5.571   4.844  19.671  0.00  0.00    +0.000 NA
ATOM      9  N   UNL     1       4.459   4.247  19.109  0.00  0.00    +0.000 N 
ATOM     10  H   UNL     1       3.198   3.340  16.374  0.00  0.00    +0.000 HD
ENDROOT
BRANCH   9  11
ATOM     11  C   UNL     1       3.356   3.826  19.897  0.00  0.00    +0.000 A 
ATOM     12  C   UNL     1       3.516   2.784  20.822  0.00  0.00    +0.000 A 
ATOM     13  C   UNL     1       2.430   2.359  21.593  0.00  0.00    +0.000 A 
ATOM     14  C   UNL     1       1.183   2.961  21.442  0.00  0.00    +0.000 A 
ATOM     15  C   UNL     1       1.016   3.996  20.525  0.00  0.00    +0.000 A 
ATOM     16  C   UNL     1       2.099   4.432  19.757  0.00  0.00    +0.000 A 
ENDBRANCH   9  11
BRANCH   1  18
ATOM     17  C   UNL     1       6.925   4.567  13.520  0.00  0.00    +0.000 C 
ATOM     18  S   UNL     1       7.377   5.135  15.175  0.00  0.00    +0.000 S 
ENDBRANCH   1  18
TORSDOF 2
ENDMDL
MODEL 6
REMARK VINA RESULT:      -6.3      2.506      6.288
REMARK  Name = 
REMARK  4 active torsions:
REMARK  status: ('A' for Active; 'I' for Inactive)
REMARK    1  A    between atoms: C_1  and  S_2
REMARK    2  A    between atoms: S_2  and  C_3
REMARK    3  A    between atoms: C_8  and  C_9
REMARK    4  A    between atoms: N_11  and  C_12
REMARK                            x       y       z     vdW  Elec       q    Type
REMARK                         _______ _______ _______ _____ _____    ______ ____
ROOT
ATOM      1  C   UNL     1       6.005   4.594  16.073  0.00  0.00    +0.000 A 
ATOM      2  N   UNL     1       4.962   3.944  15.524  0.00  0.00    +0.000 NA
ATOM      3  N   UNL     1       4.128   3.699  16.570  0.00  0.00    +0.000 N 
ATOM      4  C   UNL     1       4.624   4.162  17.736  0.00  0.00    +0.000 A 
ATOM      5  C   UNL     1       5.801   4.723  17.431  0.00  0.00    +0.000 A 
ATOM      6  C   UNL     1       6.366   5.214  18.588  0.00  0.00    +0.000 A 
ATOM      7  C   UNL     1       7.672   5.870  18.823  0.00  0.00    +0.000 C 
ATOM      8  N   UNL     1       5.512   5.002  19.618  0.00  0.00    +0.000 NA
ATOM      9  N   UNL     1       4.439   4.321  19.077  0.00  0.00    +0.000 N 
ATOM     10  H   UNL     1       3.253   3.223  16.378  0.00  0.00    +0.000 HD
ENDROOT
BRANCH   9  11
ATOM     11  C   UNL     1       3.353   3.878  19.877  0.00  0.00    +0.000 A 
ATOM     12  C   UNL     1       2.117   4.535  19.802  0.00  0.00    +0.000 A 
ATOM     13  C   UNL     1       1.047   4.110  20.595  0.00  0.00    +0.000 A 
ATOM     14  C   UNL     1       1.206   3.037  21.471  0.00  0.00    +0.000 A 
ATOM     15  C   UNL     1       2.431   2.380  21.552  0.00  0.00    +0.000 A 
ATOM     16  C   UNL     1       3.502   2.795  20.755  0.00  0.00    +0.000 A 
ENDBRANCH   9  11
BRANCH   1  18
ATOM     17  C   UNL     1       6.938   4.511  13.497  0.00  0.00    +0.000 C 
ATOM     18  S   UNL     1       7.341   5.183  15.126  0.00  0.00    +0.000 S 
ENDBRANCH   1  18
TORSDOF 2
ENDMDL
MODEL 7
REMARK VINA RESULT:      -6.3      1.479      2.101
REMARK  Name = 
REMARK  4 active torsions:
REMARK  status: ('A' for Active; 'I' for Inactive)
REMARK    1  A    between atoms: C_1  and  S_2
REMARK    2  A    between atoms: S_2  and  C_3
REMARK    3  A    between atoms: C_8  and  C_9
REMARK    4  A    between atoms: N_11  and  C_12
REMARK                            x       y       z     vdW  Elec       q    Type
REMARK                         _______ _______ _______ _____ _____    ______ ____
ROOT
ATOM      1  C   UNL     1       1.995   3.302  18.996  0.00  0.00    +0.000 A 
ATOM      2  N   UNL     1       2.247   2.149  18.349  0.00  0.00    +0.000 NA
ATOM      3  N   UNL     1       3.210   2.472  17.445  0.00  0.00    +0.000 N 
ATOM      4  C   UNL     1       3.548   3.777  17.506  0.00  0.00    +0.000 A 
ATOM      5  C   UNL     1       2.788   4.303  18.475  0.00  0.00    +0.000 A 
ATOM      6  C   UNL     1       3.083   5.644  18.585  0.00  0.00    +0.000 A 
ATOM      7  C   UNL     1       2.499   6.694  19.450  0.00  0.00    +0.000 C 
ATOM      8  N   UNL     1       4.071   5.950  17.709  0.00  0.00    +0.000 NA
ATOM      9  N   UNL     1       4.333   4.780  17.023  0.00  0.00    +0.000 N 
ATOM     10  H   UNL     1       3.569   1.735  16.849  0.00  0.00    +0.000 HD
ENDROOT
BRANCH   9  11
ATOM     11  C   UNL     1       5.290   4.727  15.975  0.00  0.00    +0.000 A 
ATOM     12  C   UNL     1       4.974   4.076  14.774  0.00  0.00    +0.000 A 
ATOM     13  C   UNL     1       5.916   4.011  13.743  0.00  0.00    +0.000 A 
ATOM     14  C   UNL     1       7.176   4.584  13.906  0.00  0.00    +0.000 A 
ATOM     15  C   UNL     1       7.497   5.231  15.096  0.00  0.00    +0.000 A 
ATOM     16  C   UNL     1       6.557   5.308  16.127  0.00  0.00    +0.000 A 
ENDBRANCH   9  11
BRANCH   1  18
ATOM     17  C   UNL     1       1.915   3.025  21.722  0.00  0.00    +0.000 C 
ATOM     18  S   UNL     1       0.856   3.406  20.308  0.00  0.00    +0.000 S 
ENDBRANCH   1  18
TORSDOF 2
ENDMDL
MODEL 8
REMARK VINA RESULT:      -6.2      3.273      6.449
REMARK  Name = 
REMARK  4 active torsions:
REMARK  status: ('A' for Active; 'I' for Inactive)
REMARK    1  A    between atoms: C_1  and  S_2
REMARK    2  A    between atoms: S_2  and  C_3
REMARK    3  A    between atoms: C_8  and  C_9
REMARK    4  A    between atoms: N_11  and  C_12
REMARK                            x       y       z     vdW  Elec       q    Type
REMARK                         _______ _______ _______ _____ _____    ______ ____
ROOT
ATOM      1  C   UNL     1       3.312   3.887  19.951  0.00  0.00    +0.000 A 
ATOM      2  N   UNL     1       2.552   4.057  21.049  0.00  0.00    +0.000 NA
ATOM      3  N   UNL     1       2.067   5.322  20.932  0.00  0.00    +0.000 N 
ATOM      4  C   UNL     1       2.508   5.935  19.813  0.00  0.00    +0.000 A 
ATOM      5  C   UNL     1       3.290   5.041  19.195  0.00  0.00    +0.000 A 
ATOM      6  C   UNL     1       3.779   5.610  18.039  0.00  0.00    +0.000 A 
ATOM      7  C   UNL     1       4.723   5.084  17.028  0.00  0.00    +0.000 C 
ATOM      8  N   UNL     1       3.260   6.854  17.909  0.00  0.00    +0.000 NA
ATOM      9  N   UNL     1       2.488   7.055  19.037  0.00  0.00    +0.000 N 
ATOM     10  H   UNL     1       1.445   5.661  21.657  0.00  0.00    +0.000 HD
ENDROOT
BRANCH   9  11
ATOM     11  C   UNL     1       1.818   8.284  19.277  0.00  0.00    +0.000 A 
ATOM     12  C   UNL     1       1.329   8.574  20.558  0.00  0.00    +0.000 A 
ATOM     13  C   UNL     1       0.659   9.778  20.797  0.00  0.00    +0.000 A 
ATOM     14  C   UNL     1       0.466  10.691  19.762  0.00  0.00    +0.000 A 
ATOM     15  C   UNL     1       0.948  10.409  18.487  0.00  0.00    +0.000 A 
ATOM     16  C   UNL     1       1.626   9.212  18.243  0.00  0.00    +0.000 A 
ENDBRANCH   9  11
BRANCH   1  18
ATOM     17  C   UNL     1       3.225   1.838  18.132  0.00  0.00    +0.000 C 
ATOM     18  S   UNL     1       4.124   2.388  19.601  0.00  0.00    +0.000 S 
ENDBRANCH   1  18
TORSDOF 2
ENDMDL
MODEL 9
REMARK VINA RESULT:      -6.2      1.392      1.627
REMARK  Name = 
REMARK  4 active torsions:
REMARK  status: ('A' for Active; 'I' for Inactive)
REMARK    1  A    between atoms: C_1  and  S_2
REMARK    2  A    between atoms: S_2  and  C_3
REMARK    3  A    between atoms: C_8  and  C_9
REMARK    4  A    between atoms: N_11  and  C_12
REMARK                            x       y       z     vdW  Elec       q    Type
REMARK                         _______ _______ _______ _____ _____    ______ ____
ROOT
ATOM      1  C   UNL     1       2.165   3.430  19.083  0.00  0.00    +0.000 A 
ATOM      2  N   UNL     1       2.473   2.234  18.548  0.00  0.00    +0.000 NA
ATOM      3  N   UNL     1       3.404   2.518  17.598  0.00  0.00    +0.000 N 
ATOM      4  C   UNL     1       3.669   3.839  17.524  0.00  0.00    +0.000 A 
ATOM      5  C   UNL     1       2.894   4.416  18.451  0.00  0.00    +0.000 A 
ATOM      6  C   UNL     1       3.115   5.776  18.423  0.00  0.00    +0.000 A 
ATOM      7  C   UNL     1       2.485   6.873  19.192  0.00  0.00    +0.000 C 
ATOM      8  N   UNL     1       4.072   6.046  17.504  0.00  0.00    +0.000 NA
ATOM      9  N   UNL     1       4.391   4.831  16.931  0.00  0.00    +0.000 N 
ATOM     10  H   UNL     1       3.795   1.746  17.071  0.00  0.00    +0.000 HD
ENDROOT
BRANCH   9  11
ATOM     11  C   UNL     1       5.335   4.725  15.875  0.00  0.00    +0.000 A 
ATOM     12  C   UNL     1       6.605   5.301  16.014  0.00  0.00    +0.000 A 
ATOM     13  C   UNL     1       7.535   5.209  14.973  0.00  0.00    +0.000 A 
ATOM     14  C   UNL     1       7.201   4.553  13.791  0.00  0.00    +0.000 A 
ATOM     15  C   UNL     1       5.941   3.979  13.645  0.00  0.00    +0.000 A 
ATOM     16  C   UNL     1       5.010   4.060  14.684  0.00  0.00    +0.000 A 
ENDBRANCH   9  11
BRANCH   1  18
ATOM     17  C   UNL     1       1.803   2.548  21.652  0.00  0.00    +0.000 C 
ATOM     18  S   UNL     1       1.039   3.602  20.399  0.00  0.00    +0.000 S 
ENDBRANCH   1  18
TORSDOF 2
ENDMDL
