MODEL 1
REMARK VINA RESULT:      -9.2      0.000      0.000
REMARK  Name = 
REMARK  7 active torsions:
REMARK  status: ('A' for Active; 'I' for Inactive)
REMARK    1  A    between atoms: C_2  and  C_26
REMARK    2  A    between atoms: N_3  and  C_4
REMARK    3  A    between atoms: C_4  and  C_5
REMARK    4  A    between atoms: C_10  and  C_11
REMARK    5  A    between atoms: C_11  and  N_12
REMARK    6  A    between atoms: N_12  and  C_13
REMARK    7  A    between atoms: C_13  and  C_14
REMARK                            x       y       z     vdW  Elec       q    Type
REMARK                         _______ _______ _______ _____ _____    ______ ____
ROOT
ATOM      1  C   UNL     1      -0.819  10.682  18.575  0.00  0.00    +0.000 A 
ATOM      2  C   UNL     1      -1.030   9.857  17.463  0.00  0.00    +0.000 A 
ATOM      3  C   UNL     1      -2.246   9.869  16.767  0.00  0.00    +0.000 A 
ATOM      4  C   UNL     1      -3.272  10.738  17.183  0.00  0.00    +0.000 A 
ATOM      5  C   UNL     1      -4.579  11.023  16.703  0.00  0.00    +0.000 A 
ATOM      6  C   UNL     1      -5.130  12.008  17.501  0.00  0.00    +0.000 A 
ATOM      7  N   UNL     1      -4.205  12.284  18.485  0.00  0.00    +0.000 N 
ATOM      8  C   UNL     1      -3.052  11.555  18.290  0.00  0.00    +0.000 A 
ATOM      9  C   UNL     1      -1.840  11.553  19.001  0.00  0.00    +0.000 A 
ATOM     10  H   UNL     1      -4.333  12.956  19.228  0.00  0.00    +0.000 HD
ENDROOT
BRANCH   1  11
ATOM     11  C   UNL     1       0.497  10.621  19.312  0.00  0.00    +0.000 C 
BRANCH  11  14
ATOM     12  O   UNL     1       0.865   8.801  21.400  0.00  0.00    +0.000 OA
ATOM     13  C   UNL     1       1.271   8.510  20.280  0.00  0.00    +0.000 C 
ATOM     14  N   UNL     1       1.152   9.343  19.192  0.00  0.00    +0.000 N 
ATOM     15  H   UNL     1       1.506   9.018  18.298  0.00  0.00    +0.000 HD
BRANCH  13  16
ATOM     16  C   UNL     1       1.940   7.189  19.973  0.00  0.00    +0.000 A 
ATOM     17  C   UNL     1       2.684   7.154  18.863  0.00  0.00    +0.000 A 
ATOM     18  C   UNL     1       3.373   5.903  18.512  0.00  0.00    +0.000 A 
ATOM     19  O   UNL     1       4.075   5.870  17.500  0.00  0.00    +0.000 OA
ATOM     20  N   UNL     1       3.159   4.840  19.377  0.00  0.00    +0.000 N 
ATOM     21  C   UNL     1       3.762   3.616  19.104  0.00  0.00    +0.000 A 
ATOM     22  C   UNL     1       3.585   2.550  19.894  0.00  0.00    +0.000 A 
ATOM     23  C   UNL     1       2.752   2.656  21.062  0.00  0.00    +0.000 A 
ATOM     24  C   UNL     1       2.161   3.816  21.372  0.00  0.00    +0.000 A 
ATOM     25  C   UNL     1       2.350   5.010  20.498  0.00  0.00    +0.000 A 
ATOM     26  N   UNL     1       1.756   6.120  20.820  0.00  0.00    +0.000 NA
ENDBRANCH  13  16
ENDBRANCH  11  14
ENDBRANCH   1  11
BRANCH   6  27
ATOM     27  C   UNL     1      -6.420  12.750  17.387  0.00  0.00    +0.000 C 
BRANCH  27  28
ATOM     28  N   UNL     1      -7.303  12.428  18.500  0.00  0.00    +0.000 NA
ATOM     29  H   UNL     1      -6.902  11.664  19.041  0.00  0.00    +0.000 HD
BRANCH  28  30
ATOM     30  C   UNL     1      -7.450  13.592  19.383  0.00  0.00    +0.000 C 
BRANCH  30  31
ATOM     31  C   UNL     1      -6.789  13.313  20.694  0.00  0.00    +0.000 A 
ATOM     32  C   UNL     1      -7.370  12.927  21.889  0.00  0.00    +0.000 A 
ATOM     33  N   UNL     1      -6.341  12.813  22.786  0.00  0.00    +0.000 N 
ATOM     34  C   UNL     1      -6.372  12.447  24.131  0.00  0.00    +0.000 A 
ATOM     35  C   UNL     1      -5.220  12.398  24.824  0.00  0.00    +0.000 A 
ATOM     36  C   UNL     1      -3.977  12.730  24.140  0.00  0.00    +0.000 A 
ATOM     37  C   UNL     1      -3.956  13.088  22.841  0.00  0.00    +0.000 A 
ATOM     38  C   UNL     1      -5.174  13.141  22.101  0.00  0.00    +0.000 A 
ATOM     39  N   UNL     1      -5.419  13.450  20.844  0.00  0.00    +0.000 NA
ENDBRANCH  30  31
ENDBRANCH  28  30
ENDBRANCH  27  28
ENDBRANCH   6  27
TORSDOF 7
ENDMDL
MODEL 2
REMARK VINA RESULT:      -8.9      5.488     11.398
REMARK  Name = 
REMARK  7 active torsions:
REMARK  status: ('A' for Active; 'I' for Inactive)
REMARK    1  A    between atoms: C_2  and  C_26
REMARK    2  A    between atoms: N_3  and  C_4
REMARK    3  A    between atoms: C_4  and  C_5
REMARK    4  A    between atoms: C_10  and  C_11
REMARK    5  A    between atoms: C_11  and  N_12
REMARK    6  A    between atoms: N_12  and  C_13
REMARK    7  A    between atoms: C_13  and  C_14
REMARK                            x       y       z     vdW  Elec       q    Type
REMARK                         _______ _______ _______ _____ _____    ______ ____
ROOT
ATOM      1  C   UNL     1       1.227  10.174  19.133  0.00  0.00    +0.000 A 
ATOM      2  C   UNL     1       1.770   9.715  17.926  0.00  0.00    +0.000 A 
ATOM      3  C   UNL     1       2.237   8.401  17.791  0.00  0.00    +0.000 A 
ATOM      4  C   UNL     1       2.146   7.519  18.884  0.00  0.00    +0.000 A 
ATOM      5  C   UNL     1       2.484   6.152  19.080  0.00  0.00    +0.000 A 
ATOM      6  C   UNL     1       2.136   5.800  20.371  0.00  0.00    +0.000 A 
ATOM      7  N   UNL     1       1.646   6.938  20.974  0.00  0.00    +0.000 N 
ATOM      8  C   UNL     1       1.605   7.986  20.079  0.00  0.00    +0.000 A 
ATOM      9  C   UNL     1       1.134   9.301  20.233  0.00  0.00    +0.000 A 
ATOM     10  H   UNL     1       1.325   6.995  21.930  0.00  0.00    +0.000 HD
ENDROOT
BRANCH   1  11
ATOM     11  C   UNL     1       0.757  11.604  19.244  0.00  0.00    +0.000 C 
BRANCH  11  14
ATOM     12  O   UNL     1       0.493  14.289  18.513  0.00  0.00    +0.000 OA
ATOM     13  C   UNL     1       1.600  13.865  18.831  0.00  0.00    +0.000 C 
ATOM     14  N   UNL     1       1.836  12.559  19.190  0.00  0.00    +0.000 N 
ATOM     15  H   UNL     1       2.781  12.296  19.450  0.00  0.00    +0.000 HD
BRANCH  13  16
ATOM     16  C   UNL     1       2.828  14.746  18.871  0.00  0.00    +0.000 A 
ATOM     17  C   UNL     1       2.661  15.959  19.410  0.00  0.00    +0.000 A 
ATOM     18  C   UNL     1       3.819  16.862  19.491  0.00  0.00    +0.000 A 
ATOM     19  O   UNL     1       3.675  17.973  20.004  0.00  0.00    +0.000 OA
ATOM     20  N   UNL     1       5.001  16.368  18.962  0.00  0.00    +0.000 N 
ATOM     21  C   UNL     1       6.138  17.169  18.984  0.00  0.00    +0.000 A 
ATOM     22  C   UNL     1       7.306  16.753  18.479  0.00  0.00    +0.000 A 
ATOM     23  C   UNL     1       7.405  15.443  17.894  0.00  0.00    +0.000 A 
ATOM     24  C   UNL     1       6.342  14.631  17.861  0.00  0.00    +0.000 A 
ATOM     25  C   UNL     1       5.035  15.085  18.420  0.00  0.00    +0.000 A 
ATOM     26  N   UNL     1       4.018  14.278  18.365  0.00  0.00    +0.000 NA
ENDBRANCH  13  16
ENDBRANCH  11  14
ENDBRANCH   1  11
BRANCH   6  27
ATOM     27  C   UNL     1       2.169   4.479  21.066  0.00  0.00    +0.000 C 
BRANCH  27  28
ATOM     28  N   UNL     1       2.172   3.386  20.102  0.00  0.00    +0.000 NA
ATOM     29  H   UNL     1       1.972   3.754  19.172  0.00  0.00    +0.000 HD
BRANCH  28  30
ATOM     30  C   UNL     1       3.491   2.743  20.071  0.00  0.00    +0.000 C 
BRANCH  30  31
ATOM     31  C   UNL     1       4.299   3.310  18.948  0.00  0.00    +0.000 A 
ATOM     32  C   UNL     1       4.063   3.228  17.587  0.00  0.00    +0.000 A 
ATOM     33  N   UNL     1       5.097   3.897  16.988  0.00  0.00    +0.000 N 
ATOM     34  C   UNL     1       5.343   4.120  15.634  0.00  0.00    +0.000 A 
ATOM     35  C   UNL     1       6.435   4.818  15.273  0.00  0.00    +0.000 A 
ATOM     36  C   UNL     1       7.324   5.317  16.314  0.00  0.00    +0.000 A 
ATOM     37  C   UNL     1       7.082   5.091  17.621  0.00  0.00    +0.000 A 
ATOM     38  C   UNL     1       5.926   4.354  18.010  0.00  0.00    +0.000 A 
ATOM     39  N   UNL     1       5.469   4.008  19.196  0.00  0.00    +0.000 NA
ENDBRANCH  30  31
ENDBRANCH  28  30
ENDBRANCH  27  28
ENDBRANCH   6  27
TORSDOF 7
ENDMDL
MODEL 3
REMARK VINA RESULT:      -8.7      2.728     11.364
REMARK  Name = 
REMARK  7 active torsions:
REMARK  status: ('A' for Active; 'I' for Inactive)
REMARK    1  A    between atoms: C_2  and  C_26
REMARK    2  A    between atoms: N_3  and  C_4
REMARK    3  A    between atoms: C_4  and  C_5
REMARK    4  A    between atoms: C_10  and  C_11
REMARK    5  A    between atoms: C_11  and  N_12
REMARK    6  A    between atoms: N_12  and  C_13
REMARK    7  A    between atoms: C_13  and  C_14
REMARK                            x       y       z     vdW  Elec       q    Type
REMARK                         _______ _______ _______ _____ _____    ______ ____
ROOT
ATOM      1  C   UNL     1       1.209  10.473  19.318  0.00  0.00    +0.000 A 
ATOM      2  C   UNL     1       1.754  10.084  18.088  0.00  0.00    +0.000 A 
ATOM      3  C   UNL     1       2.186   8.770  17.866  0.00  0.00    +0.000 A 
ATOM      4  C   UNL     1       2.057   7.817  18.893  0.00  0.00    +0.000 A 
ATOM      5  C   UNL     1       2.354   6.430  18.996  0.00  0.00    +0.000 A 
ATOM      6  C   UNL     1       1.979   5.999  20.255  0.00  0.00    +0.000 A 
ATOM      7  N   UNL     1       1.514   7.106  20.932  0.00  0.00    +0.000 N 
ATOM      8  C   UNL     1       1.513   8.215  20.112  0.00  0.00    +0.000 A 
ATOM      9  C   UNL     1       1.078   9.528  20.353  0.00  0.00    +0.000 A 
ATOM     10  H   UNL     1       1.182   7.105  21.885  0.00  0.00    +0.000 HD
ENDROOT
BRANCH   1  11
ATOM     11  C   UNL     1       0.778  11.905  19.524  0.00  0.00    +0.000 C 
BRANCH  11  14
ATOM     12  O   UNL     1       0.180  12.754  22.119  0.00  0.00    +0.000 OA
ATOM     13  C   UNL     1      -0.740  12.464  21.362  0.00  0.00    +0.000 C 
ATOM     14  N   UNL     1      -0.550  12.021  20.074  0.00  0.00    +0.000 N 
ATOM     15  H   UNL     1      -1.369  11.813  19.512  0.00  0.00    +0.000 HD
BRANCH  13  16
ATOM     16  C   UNL     1      -2.193  12.573  21.767  0.00  0.00    +0.000 A 
ATOM     17  C   UNL     1      -2.438  12.538  23.081  0.00  0.00    +0.000 A 
ATOM     18  C   UNL     1      -3.829  12.652  23.545  0.00  0.00    +0.000 A 
ATOM     19  O   UNL     1      -4.059  12.639  24.755  0.00  0.00    +0.000 OA
ATOM     20  N   UNL     1      -4.785  12.762  22.546  0.00  0.00    +0.000 N 
ATOM     21  C   UNL     1      -6.126  12.855  22.902  0.00  0.00    +0.000 A 
ATOM     22  C   UNL     1      -7.096  12.951  21.984  0.00  0.00    +0.000 A 
ATOM     23  C   UNL     1      -6.759  12.961  20.586  0.00  0.00    +0.000 A 
ATOM     24  C   UNL     1      -5.481  12.885  20.195  0.00  0.00    +0.000 A 
ATOM     25  C   UNL     1      -4.392  12.776  21.210  0.00  0.00    +0.000 A 
ATOM     26  N   UNL     1      -3.162  12.695  20.798  0.00  0.00    +0.000 NA
ENDBRANCH  13  16
ENDBRANCH  11  14
ENDBRANCH   1  11
BRANCH   6  27
ATOM     27  C   UNL     1       1.967   4.633  20.856  0.00  0.00    +0.000 C 
BRANCH  27  28
ATOM     28  N   UNL     1       3.301   4.046  20.836  0.00  0.00    +0.000 NA
ATOM     29  H   UNL     1       3.499   3.623  21.742  0.00  0.00    +0.000 HD
BRANCH  28  30
ATOM     30  C   UNL     1       3.377   2.998  19.811  0.00  0.00    +0.000 C 
BRANCH  30  31
ATOM     31  C   UNL     1       4.229   3.468  18.676  0.00  0.00    +0.000 A 
ATOM     32  C   UNL     1       3.949   3.451  17.321  0.00  0.00    +0.000 A 
ATOM     33  N   UNL     1       5.053   3.978  16.705  0.00  0.00    +0.000 N 
ATOM     34  C   UNL     1       5.294   4.194  15.349  0.00  0.00    +0.000 A 
ATOM     35  C   UNL     1       6.465   4.735  14.969  0.00  0.00    +0.000 A 
ATOM     36  C   UNL     1       7.443   5.078  15.993  0.00  0.00    +0.000 A 
ATOM     37  C   UNL     1       7.204   4.861  17.302  0.00  0.00    +0.000 A 
ATOM     38  C   UNL     1       5.964   4.288  17.710  0.00  0.00    +0.000 A 
ATOM     39  N   UNL     1       5.493   3.986  18.903  0.00  0.00    +0.000 NA
ENDBRANCH  30  31
ENDBRANCH  28  30
ENDBRANCH  27  28
ENDBRANCH   6  27
TORSDOF 7
ENDMDL
MODEL 4
REMARK VINA RESULT:      -8.7      2.890     11.300
REMARK  Name = 
REMARK  7 active torsions:
REMARK  status: ('A' for Active; 'I' for Inactive)
REMARK    1  A    between atoms: C_2  and  C_26
REMARK    2  A    between atoms: N_3  and  C_4
REMARK    3  A    between atoms: C_4  and  C_5
REMARK    4  A    between atoms: C_10  and  C_11
REMARK    5  A    between atoms: C_11  and  N_12
REMARK    6  A    between atoms: N_12  and  C_13
REMARK    7  A    between atoms: C_13  and  C_14
REMARK                            x       y       z     vdW  Elec       q    Type
REMARK                         _______ _______ _______ _____ _____    ______ ____
ROOT
ATOM      1  C   UNL     1       1.341  10.295  19.220  0.00  0.00    +0.000 A 
ATOM      2  C   UNL     1       1.815   9.860  17.976  0.00  0.00    +0.000 A 
ATOM      3  C   UNL     1       2.230   8.536  17.777  0.00  0.00    +0.000 A 
ATOM      4  C   UNL     1       2.157   7.621  18.844  0.00  0.00    +0.000 A 
ATOM      5  C   UNL     1       2.456   6.238  18.980  0.00  0.00    +0.000 A 
ATOM      6  C   UNL     1       2.152   5.853  20.272  0.00  0.00    +0.000 A 
ATOM      7  N   UNL     1       1.728   6.985  20.934  0.00  0.00    +0.000 N 
ATOM      8  C   UNL     1       1.684   8.065  20.076  0.00  0.00    +0.000 A 
ATOM      9  C   UNL     1       1.266   9.388  20.294  0.00  0.00    +0.000 A 
ATOM     10  H   UNL     1       1.451   7.020  21.904  0.00  0.00    +0.000 HD
ENDROOT
BRANCH   1  11
ATOM     11  C   UNL     1       0.926  11.735  19.399  0.00  0.00    +0.000 C 
BRANCH  11  14
ATOM     12  O   UNL     1       0.217  13.493  21.454  0.00  0.00    +0.000 OA
ATOM     13  C   UNL     1      -0.649  12.783  20.953  0.00  0.00    +0.000 C 
ATOM     14  N   UNL     1      -0.399  11.876  19.950  0.00  0.00    +0.000 N 
ATOM     15  H   UNL     1      -1.178  11.337  19.585  0.00  0.00    +0.000 HD
BRANCH  13  16
ATOM     16  C   UNL     1      -2.097  12.840  21.384  0.00  0.00    +0.000 A 
ATOM     17  C   UNL     1      -2.978  13.173  20.435  0.00  0.00    +0.000 A 
ATOM     18  C   UNL     1      -4.405  13.236  20.783  0.00  0.00    +0.000 A 
ATOM     19  O   UNL     1      -5.222  13.524  19.908  0.00  0.00    +0.000 OA
ATOM     20  N   UNL     1      -4.709  12.960  22.108  0.00  0.00    +0.000 N 
ATOM     21  C   UNL     1      -6.036  13.016  22.522  0.00  0.00    +0.000 A 
ATOM     22  C   UNL     1      -6.392  12.773  23.789  0.00  0.00    +0.000 A 
ATOM     23  C   UNL     1      -5.387  12.441  24.762  0.00  0.00    +0.000 A 
ATOM     24  C   UNL     1      -4.098  12.363  24.409  0.00  0.00    +0.000 A 
ATOM     25  C   UNL     1      -3.690  12.634  23.000  0.00  0.00    +0.000 A 
ATOM     26  N   UNL     1      -2.431  12.559  22.689  0.00  0.00    +0.000 NA
ENDBRANCH  13  16
ENDBRANCH  11  14
ENDBRANCH   1  11
BRANCH   6  27
ATOM     27  C   UNL     1       2.170   4.509  20.921  0.00  0.00    +0.000 C 
BRANCH  27  28
ATOM     28  N   UNL     1       2.321   3.455  19.926  0.00  0.00    +0.000 NA
ATOM     29  H   UNL     1       2.166   3.842  18.996  0.00  0.00    +0.000 HD
BRANCH  28  30
ATOM     30  C   UNL     1       3.681   2.903  19.977  0.00  0.00    +0.000 C 
BRANCH  30  31
ATOM     31  C   UNL     1       4.492   3.465  18.853  0.00  0.00    +0.000 A 
ATOM     32  C   UNL     1       5.646   4.226  18.917  0.00  0.00    +0.000 A 
ATOM     33  N   UNL     1       5.987   4.496  17.619  0.00  0.00    +0.000 N 
ATOM     34  C   UNL     1       7.068   5.221  17.118  0.00  0.00    +0.000 A 
ATOM     35  C   UNL     1       7.207   5.354  15.787  0.00  0.00    +0.000 A 
ATOM     36  C   UNL     1       6.220   4.733  14.914  0.00  0.00    +0.000 A 
ATOM     37  C   UNL     1       5.175   4.039  15.406  0.00  0.00    +0.000 A 
ATOM     38  C   UNL     1       5.023   3.893  16.816  0.00  0.00    +0.000 A 
ATOM     39  N   UNL     1       4.111   3.272  17.536  0.00  0.00    +0.000 NA
ENDBRANCH  30  31
ENDBRANCH  28  30
ENDBRANCH  27  28
ENDBRANCH   6  27
TORSDOF 7
ENDMDL
MODEL 5
REMARK VINA RESULT:      -8.7      2.687     11.293
REMARK  Name = 
REMARK  7 active torsions:
REMARK  status: ('A' for Active; 'I' for Inactive)
REMARK    1  A    between atoms: C_2  and  C_26
REMARK    2  A    between atoms: N_3  and  C_4
REMARK    3  A    between atoms: C_4  and  C_5
REMARK    4  A    between atoms: C_10  and  C_11
REMARK    5  A    between atoms: C_11  and  N_12
REMARK    6  A    between atoms: N_12  and  C_13
REMARK    7  A    between atoms: C_13  and  C_14
REMARK                            x       y       z     vdW  Elec       q    Type
REMARK                         _______ _______ _______ _____ _____    ______ ____
ROOT
ATOM      1  C   UNL     1       1.339  10.211  19.375  0.00  0.00    +0.000 A 
ATOM      2  C   UNL     1       1.847   9.819  18.130  0.00  0.00    +0.000 A 
ATOM      3  C   UNL     1       2.235   8.495  17.886  0.00  0.00    +0.000 A 
ATOM      4  C   UNL     1       2.098   7.535  18.906  0.00  0.00    +0.000 A 
ATOM      5  C   UNL     1       2.355   6.139  18.989  0.00  0.00    +0.000 A 
ATOM      6  C   UNL     1       1.994   5.706  20.251  0.00  0.00    +0.000 A 
ATOM      7  N   UNL     1       1.576   6.819  20.948  0.00  0.00    +0.000 N 
ATOM      8  C   UNL     1       1.592   7.936  20.140  0.00  0.00    +0.000 A 
ATOM      9  C   UNL     1       1.201   9.259  20.402  0.00  0.00    +0.000 A 
ATOM     10  H   UNL     1       1.263   6.818  21.908  0.00  0.00    +0.000 HD
ENDROOT
BRANCH   1  11
ATOM     11  C   UNL     1       0.955  11.652  19.604  0.00  0.00    +0.000 C 
BRANCH  11  14
ATOM     12  O   UNL     1       0.040  12.653  22.048  0.00  0.00    +0.000 OA
ATOM     13  C   UNL     1      -0.779  12.333  21.193  0.00  0.00    +0.000 C 
ATOM     14  N   UNL     1      -0.431  11.817  19.967  0.00  0.00    +0.000 N 
ATOM     15  H   UNL     1      -1.173  11.589  19.313  0.00  0.00    +0.000 HD
BRANCH  13  16
ATOM     16  C   UNL     1      -2.270  12.484  21.396  0.00  0.00    +0.000 A 
ATOM     17  C   UNL     1      -3.002  12.611  20.284  0.00  0.00    +0.000 A 
ATOM     18  C   UNL     1      -4.460  12.751  20.409  0.00  0.00    +0.000 A 
ATOM     19  O   UNL     1      -5.142  12.850  19.387  0.00  0.00    +0.000 OA
ATOM     20  N   UNL     1      -4.951  12.764  21.707  0.00  0.00    +0.000 N 
ATOM     21  C   UNL     1      -6.319  12.910  21.910  0.00  0.00    +0.000 A 
ATOM     22  C   UNL     1      -6.851  12.942  23.138  0.00  0.00    +0.000 A 
ATOM     23  C   UNL     1      -5.998  12.821  24.290  0.00  0.00    +0.000 A 
ATOM     24  C   UNL     1      -4.677  12.666  24.144  0.00  0.00    +0.000 A 
ATOM     25  C   UNL     1      -4.073  12.631  22.780  0.00  0.00    +0.000 A 
ATOM     26  N   UNL     1      -2.786  12.488  22.671  0.00  0.00    +0.000 NA
ENDBRANCH  13  16
ENDBRANCH  11  14
ENDBRANCH   1  11
BRANCH   6  27
ATOM     27  C   UNL     1       1.953   4.334  20.838  0.00  0.00    +0.000 C 
BRANCH  27  28
ATOM     28  N   UNL     1       3.295   3.779  20.954  0.00  0.00    +0.000 NA
ATOM     29  H   UNL     1       3.406   3.348  21.871  0.00  0.00    +0.000 HD
BRANCH  28  30
ATOM     30  C   UNL     1       3.507   2.749  19.930  0.00  0.00    +0.000 C 
BRANCH  30  31
ATOM     31  C   UNL     1       4.305   3.320  18.801  0.00  0.00    +0.000 A 
ATOM     32  C   UNL     1       4.065   3.230  17.442  0.00  0.00    +0.000 A 
ATOM     33  N   UNL     1       5.089   3.907  16.836  0.00  0.00    +0.000 N 
ATOM     34  C   UNL     1       5.328   4.128  15.480  0.00  0.00    +0.000 A 
ATOM     35  C   UNL     1       6.411   4.835  15.112  0.00  0.00    +0.000 A 
ATOM     36  C   UNL     1       7.298   5.348  16.147  0.00  0.00    +0.000 A 
ATOM     37  C   UNL     1       7.063   5.125  17.456  0.00  0.00    +0.000 A 
ATOM     38  C   UNL     1       5.916   4.377  17.852  0.00  0.00    +0.000 A 
ATOM     39  N   UNL     1       5.468   4.032  19.042  0.00  0.00    +0.000 NA
ENDBRANCH  30  31
ENDBRANCH  28  30
ENDBRANCH  27  28
ENDBRANCH   6  27
TORSDOF 7
ENDMDL
MODEL 6
REMARK VINA RESULT:      -8.7      3.603     12.186
REMARK  Name = 
REMARK  7 active torsions:
REMARK  status: ('A' for Active; 'I' for Inactive)
REMARK    1  A    between atoms: C_2  and  C_26
REMARK    2  A    between atoms: N_3  and  C_4
REMARK    3  A    between atoms: C_4  and  C_5
REMARK    4  A    between atoms: C_10  and  C_11
REMARK    5  A    between atoms: C_11  and  N_12
REMARK    6  A    between atoms: N_12  and  C_13
REMARK    7  A    between atoms: C_13  and  C_14
REMARK                            x       y       z     vdW  Elec       q    Type
REMARK                         _______ _______ _______ _____ _____    ______ ____
ROOT
ATOM      1  C   UNL     1       1.542   9.303  19.146  0.00  0.00    +0.000 A 
ATOM      2  C   UNL     1       1.312   8.766  20.419  0.00  0.00    +0.000 A 
ATOM      3  C   UNL     1       1.697   7.457  20.737  0.00  0.00    +0.000 A 
ATOM      4  C   UNL     1       2.340   6.669  19.764  0.00  0.00    +0.000 A 
ATOM      5  C   UNL     1       2.877   5.353  19.757  0.00  0.00    +0.000 A 
ATOM      6  C   UNL     1       3.429   5.116  18.512  0.00  0.00    +0.000 A 
ATOM      7  N   UNL     1       3.189   6.239  17.751  0.00  0.00    +0.000 N 
ATOM      8  C   UNL     1       2.564   7.213  18.502  0.00  0.00    +0.000 A 
ATOM      9  C   UNL     1       2.183   8.522  18.165  0.00  0.00    +0.000 A 
ATOM     10  H   UNL     1       3.462   6.355  16.786  0.00  0.00    +0.000 HD
ENDROOT
BRANCH   1  11
ATOM     11  C   UNL     1       1.091  10.709  18.836  0.00  0.00    +0.000 C 
BRANCH  11  14
ATOM     12  O   UNL     1      -0.382  12.967  18.095  0.00  0.00    +0.000 OA
ATOM     13  C   UNL     1      -0.931  12.086  18.750  0.00  0.00    +0.000 C 
ATOM     14  N   UNL     1      -0.289  10.947  19.176  0.00  0.00    +0.000 N 
ATOM     15  H   UNL     1      -0.824  10.265  19.704  0.00  0.00    +0.000 HD
BRANCH  13  16
ATOM     16  C   UNL     1      -2.387  12.159  19.151  0.00  0.00    +0.000 A 
ATOM     17  C   UNL     1      -2.636  12.666  20.363  0.00  0.00    +0.000 A 
ATOM     18  C   UNL     1      -4.032  12.776  20.811  0.00  0.00    +0.000 A 
ATOM     19  O   UNL     1      -4.268  13.260  21.920  0.00  0.00    +0.000 OA
ATOM     20  N   UNL     1      -4.985  12.307  19.920  0.00  0.00    +0.000 N 
ATOM     21  C   UNL     1      -6.328  12.359  20.278  0.00  0.00    +0.000 A 
ATOM     22  C   UNL     1      -7.294  11.911  19.465  0.00  0.00    +0.000 A 
ATOM     23  C   UNL     1      -6.949  11.357  18.183  0.00  0.00    +0.000 A 
ATOM     24  C   UNL     1      -5.671  11.297  17.790  0.00  0.00    +0.000 A 
ATOM     25  C   UNL     1      -4.587  11.792  18.688  0.00  0.00    +0.000 A 
ATOM     26  N   UNL     1      -3.356  11.712  18.282  0.00  0.00    +0.000 NA
ENDBRANCH  13  16
ENDBRANCH  11  14
ENDBRANCH   1  11
BRANCH   6  27
ATOM     27  C   UNL     1       4.209   3.953  17.995  0.00  0.00    +0.000 C 
BRANCH  27  28
ATOM     28  N   UNL     1       5.556   3.944  18.550  0.00  0.00    +0.000 NA
ATOM     29  H   UNL     1       6.000   3.049  18.349  0.00  0.00    +0.000 HD
BRANCH  28  30
ATOM     30  C   UNL     1       6.362   5.008  17.938  0.00  0.00    +0.000 C 
BRANCH  30  31
ATOM     31  C   UNL     1       6.479   4.765  16.467  0.00  0.00    +0.000 A 
ATOM     32  C   UNL     1       5.787   3.858  15.684  0.00  0.00    +0.000 A 
ATOM     33  N   UNL     1       6.267   4.020  14.412  0.00  0.00    +0.000 N 
ATOM     34  C   UNL     1       5.908   3.360  13.237  0.00  0.00    +0.000 A 
ATOM     35  C   UNL     1       6.520   3.692  12.086  0.00  0.00    +0.000 A 
ATOM     36  C   UNL     1       7.539   4.733  12.109  0.00  0.00    +0.000 A 
ATOM     37  C   UNL     1       7.884   5.361  13.250  0.00  0.00    +0.000 A 
ATOM     38  C   UNL     1       7.239   5.015  14.473  0.00  0.00    +0.000 A 
ATOM     39  N   UNL     1       7.387   5.474  15.699  0.00  0.00    +0.000 NA
ENDBRANCH  30  31
ENDBRANCH  28  30
ENDBRANCH  27  28
ENDBRANCH   6  27
TORSDOF 7
ENDMDL
MODEL 7
REMARK VINA RESULT:      -8.7      2.705     11.303
REMARK  Name = 
REMARK  7 active torsions:
REMARK  status: ('A' for Active; 'I' for Inactive)
REMARK    1  A    between atoms: C_2  and  C_26
REMARK    2  A    between atoms: N_3  and  C_4
REMARK    3  A    between atoms: C_4  and  C_5
REMARK    4  A    between atoms: C_10  and  C_11
REMARK    5  A    between atoms: C_11  and  N_12
REMARK    6  A    between atoms: N_12  and  C_13
REMARK    7  A    between atoms: C_13  and  C_14
REMARK                            x       y       z     vdW  Elec       q    Type
REMARK                         _______ _______ _______ _____ _____    ______ ____
ROOT
ATOM      1  C   UNL     1       1.031  10.847  19.331  0.00  0.00    +0.000 A 
ATOM      2  C   UNL     1       1.665  10.500  18.131  0.00  0.00    +0.000 A 
ATOM      3  C   UNL     1       2.175   9.212  17.923  0.00  0.00    +0.000 A 
ATOM      4  C   UNL     1       2.037   8.242  18.934  0.00  0.00    +0.000 A 
ATOM      5  C   UNL     1       2.398   6.871  19.042  0.00  0.00    +0.000 A 
ATOM      6  C   UNL     1       1.974   6.407  20.273  0.00  0.00    +0.000 A 
ATOM      7  N   UNL     1       1.415   7.481  20.931  0.00  0.00    +0.000 N 
ATOM      8  C   UNL     1       1.404   8.598  20.122  0.00  0.00    +0.000 A 
ATOM      9  C   UNL     1       0.889   9.885  20.349  0.00  0.00    +0.000 A 
ATOM     10  H   UNL     1       1.029   7.453  21.864  0.00  0.00    +0.000 HD
ENDROOT
BRANCH   1  11
ATOM     11  C   UNL     1       0.516  12.253  19.524  0.00  0.00    +0.000 C 
BRANCH  11  14
ATOM     12  O   UNL     1      -1.604  12.073  17.712  0.00  0.00    +0.000 OA
ATOM     13  C   UNL     1      -1.853  12.187  18.908  0.00  0.00    +0.000 C 
ATOM     14  N   UNL     1      -0.882  12.299  19.875  0.00  0.00    +0.000 N 
ATOM     15  H   UNL     1      -1.176  12.378  20.843  0.00  0.00    +0.000 HD
BRANCH  13  16
ATOM     16  C   UNL     1      -3.265  12.206  19.448  0.00  0.00    +0.000 A 
ATOM     17  C   UNL     1      -4.217  11.783  18.610  0.00  0.00    +0.000 A 
ATOM     18  C   UNL     1      -5.612  11.765  19.076  0.00  0.00    +0.000 A 
ATOM     19  O   UNL     1      -6.492  11.358  18.314  0.00  0.00    +0.000 OA
ATOM     20  N   UNL     1      -5.817  12.225  20.368  0.00  0.00    +0.000 N 
ATOM     21  C   UNL     1      -7.112  12.257  20.876  0.00  0.00    +0.000 A 
ATOM     22  C   UNL     1      -7.375  12.701  22.111  0.00  0.00    +0.000 A 
ATOM     23  C   UNL     1      -6.301  13.162  22.949  0.00  0.00    +0.000 A 
ATOM     24  C   UNL     1      -5.037  13.140  22.509  0.00  0.00    +0.000 A 
ATOM     25  C   UNL     1      -4.733  12.648  21.133  0.00  0.00    +0.000 A 
ATOM     26  N   UNL     1      -3.497  12.646  20.731  0.00  0.00    +0.000 NA
ENDBRANCH  13  16
ENDBRANCH  11  14
ENDBRANCH   1  11
BRANCH   6  27
ATOM     27  C   UNL     1       1.997   5.035  20.860  0.00  0.00    +0.000 C 
BRANCH  27  28
ATOM     28  N   UNL     1       3.342   4.475  20.817  0.00  0.00    +0.000 NA
ATOM     29  H   UNL     1       3.598   4.134  21.743  0.00  0.00    +0.000 HD
BRANCH  28  30
ATOM     30  C   UNL     1       3.389   3.346  19.880  0.00  0.00    +0.000 C 
BRANCH  30  31
ATOM     31  C   UNL     1       4.238   3.706  18.703  0.00  0.00    +0.000 A 
ATOM     32  C   UNL     1       3.907   3.684  17.359  0.00  0.00    +0.000 A 
ATOM     33  N   UNL     1       5.030   4.089  16.691  0.00  0.00    +0.000 N 
ATOM     34  C   UNL     1       5.239   4.249  15.321  0.00  0.00    +0.000 A 
ATOM     35  C   UNL     1       6.441   4.668  14.885  0.00  0.00    +0.000 A 
ATOM     36  C   UNL     1       7.484   4.942  15.865  0.00  0.00    +0.000 A 
ATOM     37  C   UNL     1       7.276   4.780  17.187  0.00  0.00    +0.000 A 
ATOM     38  C   UNL     1       6.004   4.336  17.654  0.00  0.00    +0.000 A 
ATOM     39  N   UNL     1       5.552   4.108  18.871  0.00  0.00    +0.000 NA
ENDBRANCH  30  31
ENDBRANCH  28  30
ENDBRANCH  27  28
ENDBRANCH   6  27
TORSDOF 7
ENDMDL
MODEL 8
REMARK VINA RESULT:      -8.6      2.669     11.304
REMARK  Name = 
REMARK  7 active torsions:
REMARK  status: ('A' for Active; 'I' for Inactive)
REMARK    1  A    between atoms: C_2  and  C_26
REMARK    2  A    between atoms: N_3  and  C_4
REMARK    3  A    between atoms: C_4  and  C_5
REMARK    4  A    between atoms: C_10  and  C_11
REMARK    5  A    between atoms: C_11  and  N_12
REMARK    6  A    between atoms: N_12  and  C_13
REMARK    7  A    between atoms: C_13  and  C_14
REMARK                            x       y       z     vdW  Elec       q    Type
REMARK                         _______ _______ _______ _____ _____    ______ ____
ROOT
ATOM      1  C   UNL     1       1.126  10.529  19.161  0.00  0.00    +0.000 A 
ATOM      2  C   UNL     1       1.788  10.155  17.985  0.00  0.00    +0.000 A 
ATOM      3  C   UNL     1       2.304   8.863  17.819  0.00  0.00    +0.000 A 
ATOM      4  C   UNL     1       2.143   7.916  18.848  0.00  0.00    +0.000 A 
ATOM      5  C   UNL     1       2.502   6.549  18.997  0.00  0.00    +0.000 A 
ATOM      6  C   UNL     1       2.050   6.113  20.228  0.00  0.00    +0.000 A 
ATOM      7  N   UNL     1       1.474   7.201  20.847  0.00  0.00    +0.000 N 
ATOM      8  C   UNL     1       1.482   8.299  20.013  0.00  0.00    +0.000 A 
ATOM      9  C   UNL     1       0.960   9.590  20.197  0.00  0.00    +0.000 A 
ATOM     10  H   UNL     1       1.067   7.193  21.771  0.00  0.00    +0.000 HD
ENDROOT
BRANCH   1  11
ATOM     11  C   UNL     1       0.605  11.937  19.309  0.00  0.00    +0.000 C 
BRANCH  11  14
ATOM     12  O   UNL     1      -1.484  12.119  17.461  0.00  0.00    +0.000 OA
ATOM     13  C   UNL     1      -1.752  12.064  18.657  0.00  0.00    +0.000 C 
ATOM     14  N   UNL     1      -0.797  11.989  19.643  0.00  0.00    +0.000 N 
ATOM     15  H   UNL     1      -1.107  11.936  20.608  0.00  0.00    +0.000 HD
BRANCH  13  16
ATOM     16  C   UNL     1      -3.173  12.061  19.174  0.00  0.00    +0.000 A 
ATOM     17  C   UNL     1      -4.097  11.568  18.343  0.00  0.00    +0.000 A 
ATOM     18  C   UNL     1      -5.498  11.525  18.788  0.00  0.00    +0.000 A 
ATOM     19  O   UNL     1      -6.351  11.054  18.034  0.00  0.00    +0.000 OA
ATOM     20  N   UNL     1      -5.739  12.039  20.053  0.00  0.00    +0.000 N 
ATOM     21  C   UNL     1      -7.042  12.051  20.540  0.00  0.00    +0.000 A 
ATOM     22  C   UNL     1      -7.341  12.545  21.748  0.00  0.00    +0.000 A 
ATOM     23  C   UNL     1      -6.296  13.081  22.579  0.00  0.00    +0.000 A 
ATOM     24  C   UNL     1      -5.025  13.080  22.159  0.00  0.00    +0.000 A 
ATOM     25  C   UNL     1      -4.682  12.533  20.814  0.00  0.00    +0.000 A 
ATOM     26  N   UNL     1      -3.441  12.554  20.430  0.00  0.00    +0.000 NA
ENDBRANCH  13  16
ENDBRANCH  11  14
ENDBRANCH   1  11
BRANCH   6  27
ATOM     27  C   UNL     1       2.060   4.755  20.847  0.00  0.00    +0.000 C 
BRANCH  27  28
ATOM     28  N   UNL     1       3.416   4.227  20.916  0.00  0.00    +0.000 NA
ATOM     29  H   UNL     1       3.591   3.860  21.851  0.00  0.00    +0.000 HD
BRANCH  28  30
ATOM     30  C   UNL     1       3.582   3.132  19.952  0.00  0.00    +0.000 C 
BRANCH  30  31
ATOM     31  C   UNL     1       4.416   3.598  18.802  0.00  0.00    +0.000 A 
ATOM     32  C   UNL     1       5.624   4.272  18.828  0.00  0.00    +0.000 A 
ATOM     33  N   UNL     1       5.965   4.479  17.518  0.00  0.00    +0.000 N 
ATOM     34  C   UNL     1       7.089   5.106  16.982  0.00  0.00    +0.000 A 
ATOM     35  C   UNL     1       7.218   5.190  15.645  0.00  0.00    +0.000 A 
ATOM     36  C   UNL     1       6.173   4.621  14.804  0.00  0.00    +0.000 A 
ATOM     37  C   UNL     1       5.087   4.021  15.331  0.00  0.00    +0.000 A 
ATOM     38  C   UNL     1       4.946   3.928  16.746  0.00  0.00    +0.000 A 
ATOM     39  N   UNL     1       4.001   3.397  17.496  0.00  0.00    +0.000 NA
ENDBRANCH  30  31
ENDBRANCH  28  30
ENDBRANCH  27  28
ENDBRANCH   6  27
TORSDOF 7
ENDMDL
MODEL 9
REMARK VINA RESULT:      -8.6      3.770     12.277
REMARK  Name = 
REMARK  7 active torsions:
REMARK  status: ('A' for Active; 'I' for Inactive)
REMARK    1  A    between atoms: C_2  and  C_26
REMARK    2  A    between atoms: N_3  and  C_4
REMARK    3  A    between atoms: C_4  and  C_5
REMARK    4  A    between atoms: C_10  and  C_11
REMARK    5  A    between atoms: C_11  and  N_12
REMARK    6  A    between atoms: N_12  and  C_13
REMARK    7  A    between atoms: C_13  and  C_14
REMARK                            x       y       z     vdW  Elec       q    Type
REMARK                         _______ _______ _______ _____ _____    ______ ____
ROOT
ATOM      1  C   UNL     1       0.321   9.569  21.608  0.00  0.00    +0.000 A 
ATOM      2  C   UNL     1       0.021  10.317  20.461  0.00  0.00    +0.000 A 
ATOM      3  C   UNL     1       0.568   9.987  19.214  0.00  0.00    +0.000 A 
ATOM      4  C   UNL     1       1.424   8.875  19.106  0.00  0.00    +0.000 A 
ATOM      5  C   UNL     1       2.107   8.258  18.023  0.00  0.00    +0.000 A 
ATOM      6  C   UNL     1       2.786   7.157  18.510  0.00  0.00    +0.000 A 
ATOM      7  N   UNL     1       2.572   7.129  19.871  0.00  0.00    +0.000 N 
ATOM      8  C   UNL     1       1.714   8.139  20.251  0.00  0.00    +0.000 A 
ATOM      9  C   UNL     1       1.178   8.457  21.510  0.00  0.00    +0.000 A 
ATOM     10  H   UNL     1       2.957   6.443  20.505  0.00  0.00    +0.000 HD
ENDROOT
BRANCH   1  11
ATOM     11  C   UNL     1      -0.270   9.972  22.937  0.00  0.00    +0.000 C 
BRANCH  11  14
ATOM     12  O   UNL     1      -0.568  12.719  23.354  0.00  0.00    +0.000 OA
ATOM     13  C   UNL     1      -1.546  12.059  23.021  0.00  0.00    +0.000 C 
ATOM     14  N   UNL     1      -1.507  10.701  22.807  0.00  0.00    +0.000 N 
ATOM     15  H   UNL     1      -2.362  10.235  22.522  0.00  0.00    +0.000 HD
BRANCH  13  16
ATOM     16  C   UNL     1      -2.908  12.678  22.797  0.00  0.00    +0.000 A 
ATOM     17  C   UNL     1      -2.996  13.549  21.787  0.00  0.00    +0.000 A 
ATOM     18  C   UNL     1      -4.295  14.179  21.508  0.00  0.00    +0.000 A 
ATOM     19  O   UNL     1      -4.387  14.969  20.566  0.00  0.00    +0.000 OA
ATOM     20  N   UNL     1      -5.330  13.819  22.358  0.00  0.00    +0.000 N 
ATOM     21  C   UNL     1      -6.586  14.386  22.171  0.00  0.00    +0.000 A 
ATOM     22  C   UNL     1      -7.622  14.088  22.966  0.00  0.00    +0.000 A 
ATOM     23  C   UNL     1      -7.447  13.156  24.048  0.00  0.00    +0.000 A 
ATOM     24  C   UNL     1      -6.259  12.576  24.260  0.00  0.00    +0.000 A 
ATOM     25  C   UNL     1      -5.099  12.903  23.381  0.00  0.00    +0.000 A 
ATOM     26  N   UNL     1      -3.957  12.330  23.618  0.00  0.00    +0.000 NA
ENDBRANCH  13  16
ENDBRANCH  11  14
ENDBRANCH   1  11
BRANCH   6  27
ATOM     27  C   UNL     1       3.569   6.101  17.803  0.00  0.00    +0.000 C 
BRANCH  27  28
ATOM     28  N   UNL     1       4.998   6.382  17.870  0.00  0.00    +0.000 NA
ATOM     29  H   UNL     1       5.218   6.807  18.770  0.00  0.00    +0.000 HD
BRANCH  28  30
ATOM     30  C   UNL     1       5.764   5.136  17.747  0.00  0.00    +0.000 C 
BRANCH  30  31
ATOM     31  C   UNL     1       6.026   4.849  16.304  0.00  0.00    +0.000 A 
ATOM     32  C   UNL     1       5.356   3.981  15.460  0.00  0.00    +0.000 A 
ATOM     33  N   UNL     1       5.988   4.073  14.249  0.00  0.00    +0.000 N 
ATOM     34  C   UNL     1       5.711   3.416  13.051  0.00  0.00    +0.000 A 
ATOM     35  C   UNL     1       6.474   3.671  11.972  0.00  0.00    +0.000 A 
ATOM     36  C   UNL     1       7.564   4.629  12.096  0.00  0.00    +0.000 A 
ATOM     37  C   UNL     1       7.828   5.256  13.260  0.00  0.00    +0.000 A 
ATOM     38  C   UNL     1       7.023   4.991  14.406  0.00  0.00    +0.000 A 
ATOM     39  N   UNL     1       7.069   5.466  15.634  0.00  0.00    +0.000 NA
ENDBRANCH  30  31
ENDBRANCH  28  30
ENDBRANCH  27  28
ENDBRANCH   6  27
TORSDOF 7
ENDMDL
