MODEL 1
REMARK VINA RESULT:      -8.2      0.000      0.000
REMARK  Name = 
REMARK  7 active torsions:
REMARK  status: ('A' for Active; 'I' for Inactive)
REMARK    1  A    between atoms: C_1  and  C_2
REMARK    2  A    between atoms: C_2  and  C_3
REMARK    3  A    between atoms: C_3  and  C_4
REMARK    4  A    between atoms: C_4  and  C_5
REMARK    5  A    between atoms: N_16  and  S_17
REMARK    6  A    between atoms: S_17  and  C_20
REMARK    7  A    between atoms: C_24  and  C_25
REMARK                            x       y       z     vdW  Elec       q    Type
REMARK                         _______ _______ _______ _____ _____    ______ ____
ROOT
ATOM      1  C   UNL     1       3.525   5.957  17.657  0.00  0.00    +0.000 C 
ATOM      2  C   UNL     1       3.569   5.463  19.176  0.00  0.00    +0.000 C 
ATOM      3  C   UNL     1       2.535   6.119  20.172  0.00  0.00    +0.000 C 
ATOM      4  C   UNL     1       1.502   5.203  20.856  0.00  0.00    +0.000 C 
ATOM      5  C   UNL     1       2.125   3.889  21.273  0.00  0.00    +0.000 C 
ATOM      6  N   UNL     1       2.598   3.191  20.098  0.00  0.00    +0.000 NA
ATOM      7  C   UNL     1       1.545   2.708  19.211  0.00  0.00    +0.000 C 
ATOM      8  C   UNL     1       2.086   1.580  18.332  0.00  0.00    +0.000 C 
ATOM      9  C   UNL     1       3.609   1.598  18.269  0.00  0.00    +0.000 C 
ATOM     10  C   UNL     1       4.140   3.037  18.188  0.00  0.00    +0.000 C 
ATOM     11  C   UNL     1       3.772   3.674  16.860  0.00  0.00    +0.000 C 
ATOM     12  N   UNL     1       4.351   5.030  16.765  0.00  0.00    +0.000 NA
ATOM     13  C   UNL     1       3.697   3.896  19.402  0.00  0.00    +0.000 C 
ENDROOT
BRANCH  12  14
ATOM     14  S   UNL     1       6.080   5.117  16.753  0.00  0.00    +0.000 S 
ATOM     15  O   UNL     1       6.494   6.471  17.077  0.00  0.00    +0.000 OA
ATOM     16  O   UNL     1       6.612   4.015  17.524  0.00  0.00    +0.000 OA
BRANCH  14  17
ATOM     17  C   UNL     1       6.558   4.869  15.027  0.00  0.00    +0.000 A 
ATOM     18  C   UNL     1       7.703   5.511  14.507  0.00  0.00    +0.000 A 
ATOM     19  C   UNL     1       8.011   5.383  13.138  0.00  0.00    +0.000 A 
ATOM     20  C   UNL     1       7.221   4.581  12.311  0.00  0.00    +0.000 A 
ATOM     21  C   UNL     1       6.115   3.904  12.835  0.00  0.00    +0.000 A 
ATOM     22  C   UNL     1       5.762   4.096  14.186  0.00  0.00    +0.000 A 
BRANCH  21  23
ATOM     23  C   UNL     1       5.308   2.928  12.039  0.00  0.00    +0.000 C 
ATOM     24  N   UNL     1       5.857   1.713  11.722  0.00  0.00    +0.000 N 
ATOM     25  O   UNL     1       4.159   3.176  11.719  0.00  0.00    +0.000 OA
ATOM     26  H   UNL     1       6.754   1.374  12.030  0.00  0.00    +0.000 HD
ATOM     27  H   UNL     1       5.222   1.040  11.308  0.00  0.00    +0.000 HD
ENDBRANCH  21  23
ENDBRANCH  14  17
ENDBRANCH  12  14
BRANCH   1  28
ATOM     28  C   UNL     1       3.842   7.469  17.380  0.00  0.00    +0.000 C 
BRANCH  28  29
ATOM     29  C   UNL     1       2.601   8.391  17.146  0.00  0.00    +0.000 C 
BRANCH  29  31
ATOM     30  C   UNL     1       0.746   9.736  18.337  0.00  0.00    +0.000 C 
ATOM     31  C   UNL     1       2.148   9.125  18.429  0.00  0.00    +0.000 C 
ENDBRANCH  29  31
ENDBRANCH  28  29
ENDBRANCH   1  28
TORSDOF 6
ENDMDL
MODEL 2
REMARK VINA RESULT:      -7.5      3.670      7.573
REMARK  Name = 
REMARK  7 active torsions:
REMARK  status: ('A' for Active; 'I' for Inactive)
REMARK    1  A    between atoms: C_1  and  C_2
REMARK    2  A    between atoms: C_2  and  C_3
REMARK    3  A    between atoms: C_3  and  C_4
REMARK    4  A    between atoms: C_4  and  C_5
REMARK    5  A    between atoms: N_16  and  S_17
REMARK    6  A    between atoms: S_17  and  C_20
REMARK    7  A    between atoms: C_24  and  C_25
REMARK                            x       y       z     vdW  Elec       q    Type
REMARK                         _______ _______ _______ _____ _____    ______ ____
ROOT
ATOM      1  C   UNL     1       4.187   6.130  18.117  0.00  0.00    +0.000 C 
ATOM      2  C   UNL     1       3.396   4.892  17.487  0.00  0.00    +0.000 C 
ATOM      3  C   UNL     1       4.263   3.747  16.833  0.00  0.00    +0.000 C 
ATOM      4  C   UNL     1       4.169   2.331  17.435  0.00  0.00    +0.000 C 
ATOM      5  C   UNL     1       2.746   1.990  17.816  0.00  0.00    +0.000 C 
ATOM      6  N   UNL     1       2.289   2.912  18.830  0.00  0.00    +0.000 NA
ATOM      7  C   UNL     1       2.946   2.767  20.126  0.00  0.00    +0.000 C 
ATOM      8  C   UNL     1       2.071   3.378  21.221  0.00  0.00    +0.000 C 
ATOM      9  C   UNL     1       1.051   4.355  20.644  0.00  0.00    +0.000 C 
ATOM     10  C   UNL     1       1.666   5.192  19.513  0.00  0.00    +0.000 C 
ATOM     11  C   UNL     1       2.722   6.138  20.056  0.00  0.00    +0.000 C 
ATOM     12  N   UNL     1       3.254   6.988  18.971  0.00  0.00    +0.000 NA
ATOM     13  C   UNL     1       2.199   4.309  18.354  0.00  0.00    +0.000 C 
ENDROOT
BRANCH  12  14
ATOM     14  S   UNL     1       2.124   8.073  18.235  0.00  0.00    +0.000 S 
ATOM     15  O   UNL     1       2.848   9.135  17.559  0.00  0.00    +0.000 OA
ATOM     16  O   UNL     1       1.148   7.305  17.494  0.00  0.00    +0.000 OA
BRANCH  14  17
ATOM     17  C   UNL     1       1.268   8.876  19.611  0.00  0.00    +0.000 A 
ATOM     18  C   UNL     1       1.508   8.459  20.938  0.00  0.00    +0.000 A 
ATOM     19  C   UNL     1       0.767   9.028  21.991  0.00  0.00    +0.000 A 
ATOM     20  C   UNL     1      -0.161  10.040  21.732  0.00  0.00    +0.000 A 
ATOM     21  C   UNL     1      -0.366  10.489  20.423  0.00  0.00    +0.000 A 
ATOM     22  C   UNL     1       0.319   9.863  19.362  0.00  0.00    +0.000 A 
BRANCH  21  23
ATOM     23  C   UNL     1      -1.244  11.654  20.092  0.00  0.00    +0.000 C 
ATOM     24  N   UNL     1      -1.309  12.090  18.795  0.00  0.00    +0.000 N 
ATOM     25  O   UNL     1      -1.937  12.181  20.944  0.00  0.00    +0.000 OA
ATOM     26  H   UNL     1      -0.860  11.656  18.004  0.00  0.00    +0.000 HD
ATOM     27  H   UNL     1      -2.022  12.784  18.602  0.00  0.00    +0.000 HD
ENDBRANCH  21  23
ENDBRANCH  14  17
ENDBRANCH  12  14
BRANCH   1  28
ATOM     28  C   UNL     1       5.054   7.003  17.143  0.00  0.00    +0.000 C 
BRANCH  28  29
ATOM     29  C   UNL     1       6.603   6.895  17.331  0.00  0.00    +0.000 C 
BRANCH  29  31
ATOM     30  C   UNL     1       7.694   4.597  17.774  0.00  0.00    +0.000 C 
ATOM     31  C   UNL     1       7.009   5.829  18.374  0.00  0.00    +0.000 C 
ENDBRANCH  29  31
ENDBRANCH  28  29
ENDBRANCH   1  28
TORSDOF 6
ENDMDL
MODEL 3
REMARK VINA RESULT:      -7.4      3.487      7.416
REMARK  Name = 
REMARK  7 active torsions:
REMARK  status: ('A' for Active; 'I' for Inactive)
REMARK    1  A    between atoms: C_1  and  C_2
REMARK    2  A    between atoms: C_2  and  C_3
REMARK    3  A    between atoms: C_3  and  C_4
REMARK    4  A    between atoms: C_4  and  C_5
REMARK    5  A    between atoms: N_16  and  S_17
REMARK    6  A    between atoms: S_17  and  C_20
REMARK    7  A    between atoms: C_24  and  C_25
REMARK                            x       y       z     vdW  Elec       q    Type
REMARK                         _______ _______ _______ _____ _____    ______ ____
ROOT
ATOM      1  C   UNL     1       4.203   6.092  18.136  0.00  0.00    +0.000 C 
ATOM      2  C   UNL     1       3.491   4.792  17.537  0.00  0.00    +0.000 C 
ATOM      3  C   UNL     1       4.433   3.622  17.050  0.00  0.00    +0.000 C 
ATOM      4  C   UNL     1       4.313   2.253  17.748  0.00  0.00    +0.000 C 
ATOM      5  C   UNL     1       2.868   1.907  18.031  0.00  0.00    +0.000 C 
ATOM      6  N   UNL     1       2.308   2.891  18.929  0.00  0.00    +0.000 NA
ATOM      7  C   UNL     1       2.852   2.859  20.283  0.00  0.00    +0.000 C 
ATOM      8  C   UNL     1       1.873   3.529  21.249  0.00  0.00    +0.000 C 
ATOM      9  C   UNL     1       0.890   4.434  20.515  0.00  0.00    +0.000 C 
ATOM     10  C   UNL     1       1.587   5.199  19.379  0.00  0.00    +0.000 C 
ATOM     11  C   UNL     1       2.574   6.210  19.936  0.00  0.00    +0.000 C 
ATOM     12  N   UNL     1       3.183   6.989  18.839  0.00  0.00    +0.000 NA
ATOM     13  C   UNL     1       2.234   4.246  18.341  0.00  0.00    +0.000 C 
ENDROOT
BRANCH  12  14
ATOM     14  S   UNL     1       2.102   7.987  17.928  0.00  0.00    +0.000 S 
ATOM     15  O   UNL     1       2.853   8.711  16.918  0.00  0.00    +0.000 OA
ATOM     16  O   UNL     1       0.959   7.198  17.524  0.00  0.00    +0.000 OA
BRANCH  14  17
ATOM     17  C   UNL     1       1.522   9.247  19.090  0.00  0.00    +0.000 A 
ATOM     18  C   UNL     1       1.382  10.588  18.672  0.00  0.00    +0.000 A 
ATOM     19  C   UNL     1       1.020  11.574  19.610  0.00  0.00    +0.000 A 
ATOM     20  C   UNL     1       0.747  11.220  20.934  0.00  0.00    +0.000 A 
ATOM     21  C   UNL     1       0.837   9.884  21.338  0.00  0.00    +0.000 A 
ATOM     22  C   UNL     1       1.277   8.911  20.417  0.00  0.00    +0.000 A 
BRANCH  21  23
ATOM     23  C   UNL     1       0.432   9.418  22.700  0.00  0.00    +0.000 C 
ATOM     24  N   UNL     1      -0.803   8.849  22.869  0.00  0.00    +0.000 N 
ATOM     25  O   UNL     1       1.201   9.488  23.642  0.00  0.00    +0.000 OA
ATOM     26  H   UNL     1      -1.465   8.650  22.136  0.00  0.00    +0.000 HD
ATOM     27  H   UNL     1      -0.970   8.425  23.774  0.00  0.00    +0.000 HD
ENDBRANCH  21  23
ENDBRANCH  14  17
ENDBRANCH  12  14
BRANCH   1  28
ATOM     28  C   UNL     1       5.135   6.911  17.175  0.00  0.00    +0.000 C 
BRANCH  28  29
ATOM     29  C   UNL     1       6.575   6.335  16.973  0.00  0.00    +0.000 C 
BRANCH  29  31
ATOM     30  C   UNL     1       7.787   5.777  19.184  0.00  0.00    +0.000 C 
ATOM     31  C   UNL     1       7.567   6.798  18.064  0.00  0.00    +0.000 C 
ENDBRANCH  29  31
ENDBRANCH  28  29
ENDBRANCH   1  28
TORSDOF 6
ENDMDL
MODEL 4
REMARK VINA RESULT:      -6.9      1.673      2.060
REMARK  Name = 
REMARK  7 active torsions:
REMARK  status: ('A' for Active; 'I' for Inactive)
REMARK    1  A    between atoms: C_1  and  C_2
REMARK    2  A    between atoms: C_2  and  C_3
REMARK    3  A    between atoms: C_3  and  C_4
REMARK    4  A    between atoms: C_4  and  C_5
REMARK    5  A    between atoms: N_16  and  S_17
REMARK    6  A    between atoms: S_17  and  C_20
REMARK    7  A    between atoms: C_24  and  C_25
REMARK                            x       y       z     vdW  Elec       q    Type
REMARK                         _______ _______ _______ _____ _____    ______ ____
ROOT
ATOM      1  C   UNL     1       3.078   5.935  17.995  0.00  0.00    +0.000 C 
ATOM      2  C   UNL     1       3.227   5.372  19.484  0.00  0.00    +0.000 C 
ATOM      3  C   UNL     1       2.201   5.907  20.557  0.00  0.00    +0.000 C 
ATOM      4  C   UNL     1       1.264   4.890  21.238  0.00  0.00    +0.000 C 
ATOM      5  C   UNL     1       1.991   3.603  21.558  0.00  0.00    +0.000 C 
ATOM      6  N   UNL     1       2.453   2.997  20.329  0.00  0.00    +0.000 NA
ATOM      7  C   UNL     1       1.392   2.487  19.466  0.00  0.00    +0.000 C 
ATOM      8  C   UNL     1       1.963   1.442  18.507  0.00  0.00    +0.000 C 
ATOM      9  C   UNL     1       3.478   1.567  18.377  0.00  0.00    +0.000 C 
ATOM     10  C   UNL     1       3.909   3.041  18.347  0.00  0.00    +0.000 C 
ATOM     11  C   UNL     1       3.437   3.715  17.071  0.00  0.00    +0.000 C 
ATOM     12  N   UNL     1       3.920   5.111  17.020  0.00  0.00    +0.000 NA
ATOM     13  C   UNL     1       3.468   3.807  19.622  0.00  0.00    +0.000 C 
ENDROOT
BRANCH  12  14
ATOM     14  S   UNL     1       5.636   5.316  16.937  0.00  0.00    +0.000 S 
ATOM     15  O   UNL     1       5.958   6.725  17.075  0.00  0.00    +0.000 OA
ATOM     16  O   UNL     1       6.268   4.360  17.819  0.00  0.00    +0.000 OA
BRANCH  14  17
ATOM     17  C   UNL     1       6.086   4.885  15.239  0.00  0.00    +0.000 A 
ATOM     18  C   UNL     1       5.381   3.872  14.552  0.00  0.00    +0.000 A 
ATOM     19  C   UNL     1       5.801   3.482  13.266  0.00  0.00    +0.000 A 
ATOM     20  C   UNL     1       6.873   4.131  12.649  0.00  0.00    +0.000 A 
ATOM     21  C   UNL     1       7.542   5.169  13.307  0.00  0.00    +0.000 A 
ATOM     22  C   UNL     1       7.171   5.503  14.626  0.00  0.00    +0.000 A 
BRANCH  21  23
ATOM     23  C   UNL     1       8.607   5.991  12.656  0.00  0.00    +0.000 C 
ATOM     24  N   UNL     1       8.324   6.639  11.482  0.00  0.00    +0.000 N 
ATOM     25  O   UNL     1       9.698   6.135  13.179  0.00  0.00    +0.000 OA
ATOM     26  H   UNL     1       7.424   6.669  11.028  0.00  0.00    +0.000 HD
ATOM     27  H   UNL     1       9.029   7.292  11.160  0.00  0.00    +0.000 HD
ENDBRANCH  21  23
ENDBRANCH  14  17
ENDBRANCH  12  14
BRANCH   1  28
ATOM     28  C   UNL     1       3.282   7.476  17.783  0.00  0.00    +0.000 C 
BRANCH  28  29
ATOM     29  C   UNL     1       1.973   8.321  17.640  0.00  0.00    +0.000 C 
BRANCH  29  31
ATOM     30  C   UNL     1       0.462  10.110  18.727  0.00  0.00    +0.000 C 
ATOM     31  C   UNL     1       1.717   9.243  18.854  0.00  0.00    +0.000 C 
ENDBRANCH  29  31
ENDBRANCH  28  29
ENDBRANCH   1  28
TORSDOF 6
ENDMDL
MODEL 5
REMARK VINA RESULT:      -6.9      5.809      9.628
REMARK  Name = 
REMARK  7 active torsions:
REMARK  status: ('A' for Active; 'I' for Inactive)
REMARK    1  A    between atoms: C_1  and  C_2
REMARK    2  A    between atoms: C_2  and  C_3
REMARK    3  A    between atoms: C_3  and  C_4
REMARK    4  A    between atoms: C_4  and  C_5
REMARK    5  A    between atoms: N_16  and  S_17
REMARK    6  A    between atoms: S_17  and  C_20
REMARK    7  A    between atoms: C_24  and  C_25
REMARK                            x       y       z     vdW  Elec       q    Type
REMARK                         _______ _______ _______ _____ _____    ______ ____
ROOT
ATOM      1  C   UNL     1       0.604  12.823  20.164  0.00  0.00    +0.000 C 
ATOM      2  C   UNL     1       0.390  13.632  21.526  0.00  0.00    +0.000 C 
ATOM      3  C   UNL     1       0.904  15.124  21.560  0.00  0.00    +0.000 C 
ATOM      4  C   UNL     1      -0.128  16.244  21.794  0.00  0.00    +0.000 C 
ATOM      5  C   UNL     1      -1.148  15.841  22.835  0.00  0.00    +0.000 C 
ATOM      6  N   UNL     1      -1.878  14.684  22.366  0.00  0.00    +0.000 NA
ATOM      7  C   UNL     1      -2.756  14.938  21.228  0.00  0.00    +0.000 C 
ATOM      8  C   UNL     1      -3.830  13.853  21.150  0.00  0.00    +0.000 C 
ATOM      9  C   UNL     1      -3.424  12.605  21.928  0.00  0.00    +0.000 C 
ATOM     10  C   UNL     1      -1.929  12.304  21.747  0.00  0.00    +0.000 C 
ATOM     11  C   UNL     1      -1.633  11.883  20.319  0.00  0.00    +0.000 C 
ATOM     12  N   UNL     1      -0.206  11.526  20.176  0.00  0.00    +0.000 NA
ATOM     13  C   UNL     1      -1.033  13.480  22.218  0.00  0.00    +0.000 C 
ENDROOT
BRANCH  12  14
ATOM     14  S   UNL     1       0.327  10.154  21.087  0.00  0.00    +0.000 S 
ATOM     15  O   UNL     1       1.324  10.579  22.054  0.00  0.00    +0.000 OA
ATOM     16  O   UNL     1      -0.829   9.415  21.545  0.00  0.00    +0.000 OA
BRANCH  14  17
ATOM     17  C   UNL     1       1.217   9.114  19.905  0.00  0.00    +0.000 A 
ATOM     18  C   UNL     1       1.359   9.525  18.562  0.00  0.00    +0.000 A 
ATOM     19  C   UNL     1       1.972   8.664  17.631  0.00  0.00    +0.000 A 
ATOM     20  C   UNL     1       2.487   7.433  18.046  0.00  0.00    +0.000 A 
ATOM     21  C   UNL     1       2.392   7.045  19.386  0.00  0.00    +0.000 A 
ATOM     22  C   UNL     1       1.707   7.873  20.299  0.00  0.00    +0.000 A 
BRANCH  21  23
ATOM     23  C   UNL     1       3.036   5.806  19.921  0.00  0.00    +0.000 C 
ATOM     24  N   UNL     1       2.449   5.150  20.971  0.00  0.00    +0.000 N 
ATOM     25  O   UNL     1       4.039   5.346  19.404  0.00  0.00    +0.000 OA
ATOM     26  H   UNL     1       1.567   5.390  21.396  0.00  0.00    +0.000 HD
ATOM     27  H   UNL     1       2.844   4.246  21.199  0.00  0.00    +0.000 HD
ENDBRANCH  21  23
ENDBRANCH  14  17
ENDBRANCH  12  14
BRANCH   1  28
ATOM     28  C   UNL     1       2.081  12.584  19.692  0.00  0.00    +0.000 C 
BRANCH  28  29
ATOM     29  C   UNL     1       2.430  13.113  18.262  0.00  0.00    +0.000 C 
BRANCH  29  31
ATOM     30  C   UNL     1       2.587  15.689  18.219  0.00  0.00    +0.000 C 
ATOM     31  C   UNL     1       3.343  14.359  18.288  0.00  0.00    +0.000 C 
ENDBRANCH  29  31
ENDBRANCH  28  29
ENDBRANCH   1  28
TORSDOF 6
ENDMDL
MODEL 6
REMARK VINA RESULT:      -6.8      2.891      6.841
REMARK  Name = 
REMARK  7 active torsions:
REMARK  status: ('A' for Active; 'I' for Inactive)
REMARK    1  A    between atoms: C_1  and  C_2
REMARK    2  A    between atoms: C_2  and  C_3
REMARK    3  A    between atoms: C_3  and  C_4
REMARK    4  A    between atoms: C_4  and  C_5
REMARK    5  A    between atoms: N_16  and  S_17
REMARK    6  A    between atoms: S_17  and  C_20
REMARK    7  A    between atoms: C_24  and  C_25
REMARK                            x       y       z     vdW  Elec       q    Type
REMARK                         _______ _______ _______ _____ _____    ______ ____
ROOT
ATOM      1  C   UNL     1       5.111   3.361  18.790  0.00  0.00    +0.000 C 
ATOM      2  C   UNL     1       5.384   4.928  18.637  0.00  0.00    +0.000 C 
ATOM      3  C   UNL     1       6.573   5.533  19.481  0.00  0.00    +0.000 C 
ATOM      4  C   UNL     1       7.750   6.177  18.723  0.00  0.00    +0.000 C 
ATOM      5  C   UNL     1       7.265   6.980  17.537  0.00  0.00    +0.000 C 
ATOM      6  N   UNL     1       6.592   6.102  16.608  0.00  0.00    +0.000 NA
ATOM      7  C   UNL     1       7.465   5.146  15.933  0.00  0.00    +0.000 C 
ATOM      8  C   UNL     1       6.798   4.655  14.647  0.00  0.00    +0.000 C 
ATOM      9  C   UNL     1       5.292   4.896  14.668  0.00  0.00    +0.000 C 
ATOM     10  C   UNL     1       4.708   4.617  16.061  0.00  0.00    +0.000 C 
ATOM     11  C   UNL     1       4.785   3.137  16.392  0.00  0.00    +0.000 C 
ATOM     12  N   UNL     1       4.155   2.872  17.701  0.00  0.00    +0.000 NA
ATOM     13  C   UNL     1       5.355   5.505  17.157  0.00  0.00    +0.000 C 
ENDROOT
BRANCH  12  14
ATOM     14  S   UNL     1       2.456   3.188  17.803  0.00  0.00    +0.000 S 
ATOM     15  O   UNL     1       1.947   3.504  16.480  0.00  0.00    +0.000 OA
ATOM     16  O   UNL     1       1.826   2.134  18.566  0.00  0.00    +0.000 OA
BRANCH  14  17
ATOM     17  C   UNL     1       2.313   4.721  18.752  0.00  0.00    +0.000 A 
ATOM     18  C   UNL     1       2.168   4.678  20.155  0.00  0.00    +0.000 A 
ATOM     19  C   UNL     1       1.963   5.874  20.871  0.00  0.00    +0.000 A 
ATOM     20  C   UNL     1       1.960   7.101  20.204  0.00  0.00    +0.000 A 
ATOM     21  C   UNL     1       2.153   7.150  18.819  0.00  0.00    +0.000 A 
ATOM     22  C   UNL     1       2.278   5.947  18.095  0.00  0.00    +0.000 A 
BRANCH  21  23
ATOM     23  C   UNL     1       2.293   8.433  18.064  0.00  0.00    +0.000 C 
ATOM     24  N   UNL     1       1.525   9.508  18.429  0.00  0.00    +0.000 N 
ATOM     25  O   UNL     1       3.113   8.551  17.170  0.00  0.00    +0.000 OA
ATOM     26  H   UNL     1       0.899   9.543  19.218  0.00  0.00    +0.000 HD
ATOM     27  H   UNL     1       1.759  10.386  17.982  0.00  0.00    +0.000 HD
ENDBRANCH  21  23
ENDBRANCH  14  17
ENDBRANCH  12  14
BRANCH   1  28
ATOM     28  C   UNL     1       4.695   2.837  20.210  0.00  0.00    +0.000 C 
BRANCH  28  29
ATOM     29  C   UNL     1       4.957   1.318  20.476  0.00  0.00    +0.000 C 
BRANCH  29  31
ATOM     30  C   UNL     1       6.270  -0.284  22.017  0.00  0.00    +0.000 C 
ATOM     31  C   UNL     1       5.516   1.043  21.890  0.00  0.00    +0.000 C 
ENDBRANCH  29  31
ENDBRANCH  28  29
ENDBRANCH   1  28
TORSDOF 6
ENDMDL
MODEL 7
REMARK VINA RESULT:      -6.8      8.500     11.314
REMARK  Name = 
REMARK  7 active torsions:
REMARK  status: ('A' for Active; 'I' for Inactive)
REMARK    1  A    between atoms: C_1  and  C_2
REMARK    2  A    between atoms: C_2  and  C_3
REMARK    3  A    between atoms: C_3  and  C_4
REMARK    4  A    between atoms: C_4  and  C_5
REMARK    5  A    between atoms: N_16  and  S_17
REMARK    6  A    between atoms: S_17  and  C_20
REMARK    7  A    between atoms: C_24  and  C_25
REMARK                            x       y       z     vdW  Elec       q    Type
REMARK                         _______ _______ _______ _____ _____    ______ ____
ROOT
ATOM      1  C   UNL     1      -1.557  12.379  21.951  0.00  0.00    +0.000 C 
ATOM      2  C   UNL     1      -0.355  11.400  22.341  0.00  0.00    +0.000 C 
ATOM      3  C   UNL     1      -0.739  10.041  23.046  0.00  0.00    +0.000 C 
ATOM      4  C   UNL     1      -0.377   8.723  22.333  0.00  0.00    +0.000 C 
ATOM      5  C   UNL     1       0.988   8.806  21.688  0.00  0.00    +0.000 C 
ATOM      6  N   UNL     1       0.979   9.844  20.682  0.00  0.00    +0.000 NA
ATOM      7  C   UNL     1       0.157   9.550  19.511  0.00  0.00    +0.000 C 
ATOM      8  C   UNL     1       0.612  10.409  18.331  0.00  0.00    +0.000 C 
ATOM      9  C   UNL     1       1.416  11.619  18.795  0.00  0.00    +0.000 C 
ATOM     10  C   UNL     1       0.818  12.222  20.075  0.00  0.00    +0.000 C 
ATOM     11  C   UNL     1      -0.538  12.846  19.794  0.00  0.00    +0.000 C 
ATOM     12  N   UNL     1      -1.069  13.485  21.015  0.00  0.00    +0.000 NA
ATOM     13  C   UNL     1       0.772  11.198  21.239  0.00  0.00    +0.000 C 
ENDROOT
BRANCH  12  14
ATOM     14  S   UNL     1      -0.161  14.827  21.625  0.00  0.00    +0.000 S 
ATOM     15  O   UNL     1      -1.035  15.681  22.409  0.00  0.00    +0.000 OA
ATOM     16  O   UNL     1       1.062  14.336  22.220  0.00  0.00    +0.000 OA
BRANCH  14  17
ATOM     17  C   UNL     1       0.284  15.803  20.169  0.00  0.00    +0.000 A 
ATOM     18  C   UNL     1      -0.666  16.654  19.566  0.00  0.00    +0.000 A 
ATOM     19  C   UNL     1      -0.336  17.336  18.379  0.00  0.00    +0.000 A 
ATOM     20  C   UNL     1       0.943  17.216  17.831  0.00  0.00    +0.000 A 
ATOM     21  C   UNL     1       1.903  16.411  18.454  0.00  0.00    +0.000 A 
ATOM     22  C   UNL     1       1.545  15.667  19.597  0.00  0.00    +0.000 A 
BRANCH  21  23
ATOM     23  C   UNL     1       3.325  16.341  17.997  0.00  0.00    +0.000 C 
ATOM     24  N   UNL     1       3.704  15.330  17.152  0.00  0.00    +0.000 N 
ATOM     25  O   UNL     1       4.132  17.195  18.320  0.00  0.00    +0.000 OA
ATOM     26  H   UNL     1       3.091  14.641  16.746  0.00  0.00    +0.000 HD
ATOM     27  H   UNL     1       4.636  15.411  16.763  0.00  0.00    +0.000 HD
ENDBRANCH  21  23
ENDBRANCH  14  17
ENDBRANCH  12  14
BRANCH   1  28
ATOM     28  C   UNL     1      -2.432  12.949  23.123  0.00  0.00    +0.000 C 
BRANCH  28  29
ATOM     29  C   UNL     1      -3.980  12.813  22.942  0.00  0.00    +0.000 C 
BRANCH  29  31
ATOM     30  C   UNL     1      -6.260  12.724  24.149  0.00  0.00    +0.000 C 
ATOM     31  C   UNL     1      -4.735  12.716  24.287  0.00  0.00    +0.000 C 
ENDBRANCH  29  31
ENDBRANCH  28  29
ENDBRANCH   1  28
TORSDOF 6
ENDMDL
MODEL 8
REMARK VINA RESULT:      -6.6      7.237     11.210
REMARK  Name = 
REMARK  7 active torsions:
REMARK  status: ('A' for Active; 'I' for Inactive)
REMARK    1  A    between atoms: C_1  and  C_2
REMARK    2  A    between atoms: C_2  and  C_3
REMARK    3  A    between atoms: C_3  and  C_4
REMARK    4  A    between atoms: C_4  and  C_5
REMARK    5  A    between atoms: N_16  and  S_17
REMARK    6  A    between atoms: S_17  and  C_20
REMARK    7  A    between atoms: C_24  and  C_25
REMARK                            x       y       z     vdW  Elec       q    Type
REMARK                         _______ _______ _______ _____ _____    ______ ____
ROOT
ATOM      1  C   UNL     1      -2.965  12.441  20.412  0.00  0.00    +0.000 C 
ATOM      2  C   UNL     1      -3.945  13.664  20.729  0.00  0.00    +0.000 C 
ATOM      3  C   UNL     1      -5.362  13.644  20.033  0.00  0.00    +0.000 C 
ATOM      4  C   UNL     1      -6.613  13.592  20.931  0.00  0.00    +0.000 C 
ATOM      5  C   UNL     1      -6.452  14.476  22.148  0.00  0.00    +0.000 C 
ATOM      6  N   UNL     1      -5.341  14.000  22.941  0.00  0.00    +0.000 NA
ATOM      7  C   UNL     1      -5.562  12.709  23.586  0.00  0.00    +0.000 C 
ATOM      8  C   UNL     1      -4.605  12.552  24.769  0.00  0.00    +0.000 C 
ATOM      9  C   UNL     1      -3.417  13.502  24.660  0.00  0.00    +0.000 C 
ATOM     10  C   UNL     1      -2.927  13.609  23.208  0.00  0.00    +0.000 C 
ATOM     11  C   UNL     1      -2.313  12.298  22.749  0.00  0.00    +0.000 C 
ATOM     12  N   UNL     1      -1.780  12.436  21.378  0.00  0.00    +0.000 NA
ATOM     13  C   UNL     1      -4.038  14.113  22.250  0.00  0.00    +0.000 C 
ENDROOT
BRANCH  12  14
ATOM     14  S   UNL     1      -0.470  13.550  21.182  0.00  0.00    +0.000 S 
ATOM     15  O   UNL     1      -0.959  14.757  20.540  0.00  0.00    +0.000 OA
ATOM     16  O   UNL     1       0.246  13.659  22.434  0.00  0.00    +0.000 OA
BRANCH  14  17
ATOM     17  C   UNL     1       0.636  12.778  19.976  0.00  0.00    +0.000 A 
ATOM     18  C   UNL     1       1.489  13.575  19.183  0.00  0.00    +0.000 A 
ATOM     19  C   UNL     1       2.276  12.970  18.184  0.00  0.00    +0.000 A 
ATOM     20  C   UNL     1       2.255  11.584  18.015  0.00  0.00    +0.000 A 
ATOM     21  C   UNL     1       1.447  10.787  18.833  0.00  0.00    +0.000 A 
ATOM     22  C   UNL     1       0.600  11.401  19.778  0.00  0.00    +0.000 A 
BRANCH  21  23
ATOM     23  C   UNL     1       1.476   9.292  18.795  0.00  0.00    +0.000 C 
ATOM     24  N   UNL     1       1.409   8.595  19.973  0.00  0.00    +0.000 N 
ATOM     25  O   UNL     1       1.503   8.691  17.736  0.00  0.00    +0.000 OA
ATOM     26  H   UNL     1       1.278   8.996  20.888  0.00  0.00    +0.000 HD
ATOM     27  H   UNL     1       1.289   7.593  19.882  0.00  0.00    +0.000 HD
ENDBRANCH  21  23
ENDBRANCH  14  17
ENDBRANCH  12  14
BRANCH   1  28
ATOM     28  C   UNL     1      -2.505  12.253  18.923  0.00  0.00    +0.000 C 
BRANCH  28  29
ATOM     29  C   UNL     1      -3.233  11.122  18.125  0.00  0.00    +0.000 C 
BRANCH  29  31
ATOM     30  C   UNL     1      -2.545   9.939  15.936  0.00  0.00    +0.000 C 
ATOM     31  C   UNL     1      -2.253  10.154  17.424  0.00  0.00    +0.000 C 
ENDBRANCH  29  31
ENDBRANCH  28  29
ENDBRANCH   1  28
TORSDOF 6
ENDMDL
MODEL 9
REMARK VINA RESULT:      -6.5      5.556      9.739
REMARK  Name = 
REMARK  7 active torsions:
REMARK  status: ('A' for Active; 'I' for Inactive)
REMARK    1  A    between atoms: C_1  and  C_2
REMARK    2  A    between atoms: C_2  and  C_3
REMARK    3  A    between atoms: C_3  and  C_4
REMARK    4  A    between atoms: C_4  and  C_5
REMARK    5  A    between atoms: N_16  and  S_17
REMARK    6  A    between atoms: S_17  and  C_20
REMARK    7  A    between atoms: C_24  and  C_25
REMARK                            x       y       z     vdW  Elec       q    Type
REMARK                         _______ _______ _______ _____ _____    ______ ____
ROOT
ATOM      1  C   UNL     1       0.010  12.560  20.600  0.00  0.00    +0.000 C 
ATOM      2  C   UNL     1      -0.578  13.738  19.695  0.00  0.00    +0.000 C 
ATOM      3  C   UNL     1      -1.675  14.664  20.350  0.00  0.00    +0.000 C 
ATOM      4  C   UNL     1      -1.363  16.166  20.504  0.00  0.00    +0.000 C 
ATOM      5  C   UNL     1      -0.641  16.703  19.289  0.00  0.00    +0.000 C 
ATOM      6  N   UNL     1       0.625  16.020  19.144  0.00  0.00    +0.000 NA
ATOM      7  C   UNL     1       1.604  16.325  20.183  0.00  0.00    +0.000 C 
ATOM      8  C   UNL     1       3.011  16.000  19.680  0.00  0.00    +0.000 C 
ATOM      9  C   UNL     1       2.975  15.041  18.495  0.00  0.00    +0.000 C 
ATOM     10  C   UNL     1       1.897  13.964  18.689  0.00  0.00    +0.000 C 
ATOM     11  C   UNL     1       2.266  13.030  19.827  0.00  0.00    +0.000 C 
ATOM     12  N   UNL     1       1.259  11.957  19.956  0.00  0.00    +0.000 NA
ATOM     13  C   UNL     1       0.481  14.576  18.857  0.00  0.00    +0.000 C 
ENDROOT
BRANCH  12  14
ATOM     14  S   UNL     1       1.130  10.874  18.612  0.00  0.00    +0.000 S 
ATOM     15  O   UNL     1      -0.243  10.858  18.139  0.00  0.00    +0.000 OA
ATOM     16  O   UNL     1       2.193  11.157  17.674  0.00  0.00    +0.000 OA
BRANCH  14  17
ATOM     17  C   UNL     1       1.421   9.226  19.298  0.00  0.00    +0.000 A 
ATOM     18  C   UNL     1       1.000   8.917  20.610  0.00  0.00    +0.000 A 
ATOM     19  C   UNL     1       1.316   7.662  21.165  0.00  0.00    +0.000 A 
ATOM     20  C   UNL     1       1.992   6.706  20.403  0.00  0.00    +0.000 A 
ATOM     21  C   UNL     1       2.366   6.992  19.086  0.00  0.00    +0.000 A 
ATOM     22  C   UNL     1       2.120   8.276  18.560  0.00  0.00    +0.000 A 
BRANCH  21  23
ATOM     23  C   UNL     1       2.972   5.972  18.175  0.00  0.00    +0.000 C 
ATOM     24  N   UNL     1       4.296   6.083  17.840  0.00  0.00    +0.000 N 
ATOM     25  O   UNL     1       2.323   5.023  17.773  0.00  0.00    +0.000 OA
ATOM     26  H   UNL     1       4.941   6.767  18.203  0.00  0.00    +0.000 HD
ATOM     27  H   UNL     1       4.689   5.294  17.340  0.00  0.00    +0.000 HD
ENDBRANCH  21  23
ENDBRANCH  14  17
ENDBRANCH  12  14
BRANCH   1  28
ATOM     28  C   UNL     1      -0.991  11.451  21.081  0.00  0.00    +0.000 C 
BRANCH  28  29
ATOM     29  C   UNL     1      -1.160  11.314  22.630  0.00  0.00    +0.000 C 
BRANCH  29  31
ATOM     30  C   UNL     1      -2.106  13.488  23.652  0.00  0.00    +0.000 C 
ATOM     31  C   UNL     1      -2.399  12.065  23.168  0.00  0.00    +0.000 C 
ENDBRANCH  29  31
ENDBRANCH  28  29
ENDBRANCH   1  28
TORSDOF 6
ENDMDL
