MODEL 1
REMARK VINA RESULT:      -6.8      0.000      0.000
REMARK  Name = 
REMARK  8 active torsions:
REMARK  status: ('A' for Active; 'I' for Inactive)
REMARK    1  A    between atoms: C_1  and  C_2
REMARK    2  A    between atoms: C_5  and  C_6
REMARK    3  A    between atoms: C_7  and  C_8
REMARK    4  A    between atoms: C_10  and  C_11
REMARK    5  A    between atoms: C_16  and  C_18
REMARK    6  A    between atoms: C_18  and  N_19
REMARK    7  A    between atoms: C_23  and  C_24
REMARK    8  A    between atoms: C_24  and  O_25
REMARK                            x       y       z     vdW  Elec       q    Type
REMARK                         _______ _______ _______ _____ _____    ______ ____
ROOT
ATOM      1  C   UNL     1       4.672   5.603  17.524  0.00  0.00    +0.000 A 
ATOM      2  N   UNL     1       3.702   4.684  17.844  0.00  0.00    +0.000 NA
ATOM      3  C   UNL     1       2.457   5.109  18.206  0.00  0.00    +0.000 A 
ATOM      4  C   UNL     1       2.166   6.458  18.277  0.00  0.00    +0.000 A 
ATOM      5  C   UNL     1       3.126   7.387  17.942  0.00  0.00    +0.000 A 
ATOM      6  C   UNL     1       4.402   6.985  17.541  0.00  0.00    +0.000 A 
ENDROOT
BRANCH   3   7
ATOM      7  C   UNL     1       1.389   4.070  18.541  0.00  0.00    +0.000 C 
ATOM      8  C   UNL     1       0.684   4.319  19.895  0.00  0.00    +0.000 C 
ATOM      9  C   UNL     1       1.493   3.887  21.126  0.00  0.00    +0.000 C 
ATOM     10  C   UNL     1       2.160   2.514  20.976  0.00  0.00    +0.000 C 
ATOM     11  N   UNL     1       2.781   2.325  19.662  0.00  0.00    +0.000 N 
ATOM     12  C   UNL     1       4.092   1.924  19.421  0.00  0.00    +0.000 C 
ATOM     13  O   UNL     1       4.530   1.777  18.274  0.00  0.00    +0.000 OA
ATOM     14  C   UNL     1       1.921   2.623  18.511  0.00  0.00    +0.000 C 
BRANCH  12  15
ATOM     15  C   UNL     1       5.058   1.746  20.600  0.00  0.00    +0.000 C 
BRANCH  15  16
ATOM     16  N   UNL     1       5.641   0.393  20.568  0.00  0.00    +0.000 NA
ATOM     17  H   UNL     1       4.887  -0.256  20.322  0.00  0.00    +0.000 HD
ATOM     18  H   UNL     1       5.912   0.133  21.517  0.00  0.00    +0.000 HD
ENDBRANCH  15  16
ENDBRANCH  12  15
ENDBRANCH   3   7
BRANCH   1  25
ATOM     19  C   UNL     1       7.269   5.392  19.559  0.00  0.00    +0.000 C 
ATOM     20  C   UNL     1       7.111   4.888  18.174  0.00  0.00    +0.000 A 
ATOM     21  N   UNL     1       8.151   4.255  17.621  0.00  0.00    +0.000 NA
ATOM     22  O   UNL     1       7.752   3.913  16.363  0.00  0.00    +0.000 OA
ATOM     23  C   UNL     1       6.475   4.328  16.139  0.00  0.00    +0.000 A 
ATOM     24  C   UNL     1       6.015   3.942  14.790  0.00  0.00    +0.000 C 
ATOM     25  C   UNL     1       5.993   4.984  17.267  0.00  0.00    +0.000 A 
ENDBRANCH   1  25
BRANCH   6  26
ATOM     26  C   UNL     1       5.358   8.066  17.136  0.00  0.00    +0.000 C 
BRANCH  26  27
ATOM     27  O   UNL     1       6.647   7.588  16.744  0.00  0.00    +0.000 OA
ATOM     28  H   UNL     1       7.142   8.362  16.423  0.00  0.00    +0.000 HD
ENDBRANCH  26  27
ENDBRANCH   6  26
TORSDOF 6
ENDMDL
MODEL 2
REMARK VINA RESULT:      -6.8      2.042      5.478
REMARK  Name = 
REMARK  8 active torsions:
REMARK  status: ('A' for Active; 'I' for Inactive)
REMARK    1  A    between atoms: C_1  and  C_2
REMARK    2  A    between atoms: C_5  and  C_6
REMARK    3  A    between atoms: C_7  and  C_8
REMARK    4  A    between atoms: C_10  and  C_11
REMARK    5  A    between atoms: C_16  and  C_18
REMARK    6  A    between atoms: C_18  and  N_19
REMARK    7  A    between atoms: C_23  and  C_24
REMARK    8  A    between atoms: C_24  and  O_25
REMARK                            x       y       z     vdW  Elec       q    Type
REMARK                         _______ _______ _______ _____ _____    ______ ____
ROOT
ATOM      1  C   UNL     1       2.937   5.297  18.729  0.00  0.00    +0.000 A 
ATOM      2  N   UNL     1       3.802   5.268  17.662  0.00  0.00    +0.000 NA
ATOM      3  C   UNL     1       4.160   6.433  17.046  0.00  0.00    +0.000 A 
ATOM      4  C   UNL     1       3.643   7.641  17.470  0.00  0.00    +0.000 A 
ATOM      5  C   UNL     1       2.789   7.683  18.550  0.00  0.00    +0.000 A 
ATOM      6  C   UNL     1       2.423   6.513  19.220  0.00  0.00    +0.000 A 
ENDROOT
BRANCH   3   7
ATOM      7  C   UNL     1       5.136   6.378  15.872  0.00  0.00    +0.000 C 
ATOM      8  C   UNL     1       5.171   5.007  15.158  0.00  0.00    +0.000 C 
ATOM      9  C   UNL     1       5.985   3.929  15.885  0.00  0.00    +0.000 C 
ATOM     10  C   UNL     1       7.334   4.427  16.418  0.00  0.00    +0.000 C 
ATOM     11  N   UNL     1       7.243   5.744  17.053  0.00  0.00    +0.000 N 
ATOM     12  C   UNL     1       7.701   6.079  18.325  0.00  0.00    +0.000 C 
ATOM     13  O   UNL     1       7.592   7.224  18.778  0.00  0.00    +0.000 OA
ATOM     14  C   UNL     1       6.573   6.781  16.259  0.00  0.00    +0.000 C 
BRANCH  12  15
ATOM     15  C   UNL     1       8.274   4.984  19.235  0.00  0.00    +0.000 C 
BRANCH  15  16
ATOM     16  N   UNL     1       8.153   5.393  20.645  0.00  0.00    +0.000 NA
ATOM     17  H   UNL     1       7.196   5.737  20.779  0.00  0.00    +0.000 HD
ATOM     18  H   UNL     1       8.749   6.206  20.801  0.00  0.00    +0.000 HD
ENDBRANCH  15  16
ENDBRANCH  12  15
ENDBRANCH   3   7
BRANCH   1  25
ATOM     19  C   UNL     1       2.428   2.559  16.947  0.00  0.00    +0.000 C 
ATOM     20  C   UNL     1       2.359   2.758  18.415  0.00  0.00    +0.000 A 
ATOM     21  N   UNL     1       2.037   1.702  19.169  0.00  0.00    +0.000 NA
ATOM     22  O   UNL     1       2.030   2.153  20.456  0.00  0.00    +0.000 OA
ATOM     23  C   UNL     1       2.348   3.476  20.499  0.00  0.00    +0.000 A 
ATOM     24  C   UNL     1       2.372   3.977  21.888  0.00  0.00    +0.000 C 
ATOM     25  C   UNL     1       2.562   3.946  19.206  0.00  0.00    +0.000 A 
ENDBRANCH   1  25
BRANCH   6  26
ATOM     26  C   UNL     1       1.540   6.665  20.421  0.00  0.00    +0.000 C 
BRANCH  26  27
ATOM     27  O   UNL     1       1.851   7.799  21.234  0.00  0.00    +0.000 OA
ATOM     28  H   UNL     1       2.353   7.460  21.997  0.00  0.00    +0.000 HD
ENDBRANCH  26  27
ENDBRANCH   6  26
TORSDOF 6
ENDMDL
MODEL 3
REMARK VINA RESULT:      -6.7      9.472     11.150
REMARK  Name = 
REMARK  8 active torsions:
REMARK  status: ('A' for Active; 'I' for Inactive)
REMARK    1  A    between atoms: C_1  and  C_2
REMARK    2  A    between atoms: C_5  and  C_6
REMARK    3  A    between atoms: C_7  and  C_8
REMARK    4  A    between atoms: C_10  and  C_11
REMARK    5  A    between atoms: C_16  and  C_18
REMARK    6  A    between atoms: C_18  and  N_19
REMARK    7  A    between atoms: C_23  and  C_24
REMARK    8  A    between atoms: C_24  and  O_25
REMARK                            x       y       z     vdW  Elec       q    Type
REMARK                         _______ _______ _______ _____ _____    ______ ____
ROOT
ATOM      1  C   UNL     1       9.521  13.283  19.651  0.00  0.00    +0.000 A 
ATOM      2  N   UNL     1       9.266  13.622  20.957  0.00  0.00    +0.000 NA
ATOM      3  C   UNL     1       9.083  12.643  21.890  0.00  0.00    +0.000 A 
ATOM      4  C   UNL     1       9.127  11.310  21.529  0.00  0.00    +0.000 A 
ATOM      5  C   UNL     1       9.398  10.960  20.226  0.00  0.00    +0.000 A 
ATOM      6  C   UNL     1       9.618  11.936  19.252  0.00  0.00    +0.000 A 
ENDROOT
BRANCH   3   7
ATOM      7  C   UNL     1       8.818  13.043  23.340  0.00  0.00    +0.000 C 
ATOM      8  C   UNL     1       8.275  11.887  24.213  0.00  0.00    +0.000 C 
ATOM      9  C   UNL     1       6.782  11.589  24.022  0.00  0.00    +0.000 C 
ATOM     10  C   UNL     1       5.902  12.844  23.972  0.00  0.00    +0.000 C 
ATOM     11  N   UNL     1       6.484  13.914  23.159  0.00  0.00    +0.000 N 
ATOM     12  C   UNL     1       5.853  14.596  22.122  0.00  0.00    +0.000 C 
ATOM     13  O   UNL     1       6.419  15.498  21.494  0.00  0.00    +0.000 OA
ATOM     14  C   UNL     1       7.877  14.257  23.472  0.00  0.00    +0.000 C 
BRANCH  12  15
ATOM     15  C   UNL     1       4.451  14.163  21.674  0.00  0.00    +0.000 C 
BRANCH  15  16
ATOM     16  N   UNL     1       3.434  14.818  22.515  0.00  0.00    +0.000 NA
ATOM     17  H   UNL     1       3.216  14.174  23.283  0.00  0.00    +0.000 HD
ATOM     18  H   UNL     1       2.567  14.891  21.981  0.00  0.00    +0.000 HD
ENDBRANCH  15  16
ENDBRANCH  12  15
ENDBRANCH   3   7
BRANCH   1  25
ATOM     19  C   UNL     1      12.182  14.969  18.645  0.00  0.00    +0.000 C 
ATOM     20  C   UNL     1      10.752  15.171  18.308  0.00  0.00    +0.000 A 
ATOM     21  N   UNL     1      10.446  16.180  17.486  0.00  0.00    +0.000 NA
ATOM     22  O   UNL     1       9.088  16.153  17.355  0.00  0.00    +0.000 OA
ATOM     23  C   UNL     1       8.560  15.134  18.087  0.00  0.00    +0.000 A 
ATOM     24  C   UNL     1       7.092  15.072  17.937  0.00  0.00    +0.000 C 
ATOM     25  C   UNL     1       9.580  14.457  18.749  0.00  0.00    +0.000 A 
ENDBRANCH   1  25
BRANCH   6  26
ATOM     26  C   UNL     1       9.968  11.457  17.876  0.00  0.00    +0.000 C 
BRANCH  26  27
ATOM     27  O   UNL     1      11.351  11.596  17.544  0.00  0.00    +0.000 OA
ATOM     28  H   UNL     1      11.821  11.756  18.382  0.00  0.00    +0.000 HD
ENDBRANCH  26  27
ENDBRANCH   6  26
TORSDOF 6
ENDMDL
MODEL 4
REMARK VINA RESULT:      -6.7      9.539     11.647
REMARK  Name = 
REMARK  8 active torsions:
REMARK  status: ('A' for Active; 'I' for Inactive)
REMARK    1  A    between atoms: C_1  and  C_2
REMARK    2  A    between atoms: C_5  and  C_6
REMARK    3  A    between atoms: C_7  and  C_8
REMARK    4  A    between atoms: C_10  and  C_11
REMARK    5  A    between atoms: C_16  and  C_18
REMARK    6  A    between atoms: C_18  and  N_19
REMARK    7  A    between atoms: C_23  and  C_24
REMARK    8  A    between atoms: C_24  and  O_25
REMARK                            x       y       z     vdW  Elec       q    Type
REMARK                         _______ _______ _______ _____ _____    ______ ____
ROOT
ATOM      1  C   UNL     1      -1.716  11.984  21.151  0.00  0.00    +0.000 A 
ATOM      2  N   UNL     1      -2.692  12.862  20.746  0.00  0.00    +0.000 NA
ATOM      3  C   UNL     1      -3.646  13.272  21.632  0.00  0.00    +0.000 A 
ATOM      4  C   UNL     1      -3.656  12.793  22.927  0.00  0.00    +0.000 A 
ATOM      5  C   UNL     1      -2.673  11.925  23.347  0.00  0.00    +0.000 A 
ATOM      6  C   UNL     1      -1.666  11.507  22.475  0.00  0.00    +0.000 A 
ENDROOT
BRANCH   3   7
ATOM      7  C   UNL     1      -4.711  14.263  21.166  0.00  0.00    +0.000 C 
ATOM      8  C   UNL     1      -5.672  14.716  22.290  0.00  0.00    +0.000 C 
ATOM      9  C   UNL     1      -6.768  13.701  22.641  0.00  0.00    +0.000 C 
ATOM     10  C   UNL     1      -7.442  13.070  21.415  0.00  0.00    +0.000 C 
ATOM     11  N   UNL     1      -6.485  12.693  20.372  0.00  0.00    +0.000 N 
ATOM     12  C   UNL     1      -6.379  11.446  19.763  0.00  0.00    +0.000 C 
ATOM     13  O   UNL     1      -5.546  11.219  18.878  0.00  0.00    +0.000 OA
ATOM     14  C   UNL     1      -5.541  13.744  19.974  0.00  0.00    +0.000 C 
BRANCH  12  15
ATOM     15  C   UNL     1      -7.253  10.285  20.259  0.00  0.00    +0.000 C 
BRANCH  15  16
ATOM     16  N   UNL     1      -7.432   9.298  19.180  0.00  0.00    +0.000 NA
ATOM     17  H   UNL     1      -6.599   8.701  19.173  0.00  0.00    +0.000 HD
ATOM     18  H   UNL     1      -7.411   9.787  18.284  0.00  0.00    +0.000 HD
ENDBRANCH  15  16
ENDBRANCH  12  15
ENDBRANCH   3   7
BRANCH   1  25
ATOM     19  C   UNL     1       1.497  12.633  20.718  0.00  0.00    +0.000 C 
ATOM     20  C   UNL     1       0.574  11.832  19.879  0.00  0.00    +0.000 A 
ATOM     21  N   UNL     1       1.068  11.280  18.767  0.00  0.00    +0.000 NA
ATOM     22  O   UNL     1       0.025  10.622  18.183  0.00  0.00    +0.000 OA
ATOM     23  C   UNL     1      -1.104  10.764  18.929  0.00  0.00    +0.000 A 
ATOM     24  C   UNL     1      -2.240  10.036  18.328  0.00  0.00    +0.000 C 
ATOM     25  C   UNL     1      -0.832  11.552  20.044  0.00  0.00    +0.000 A 
ENDBRANCH   1  25
BRANCH   6  26
ATOM     26  C   UNL     1      -0.606  10.612  23.040  0.00  0.00    +0.000 C 
BRANCH  26  27
ATOM     27  O   UNL     1      -0.928   9.221  22.989  0.00  0.00    +0.000 OA
ATOM     28  H   UNL     1      -0.460   8.802  23.734  0.00  0.00    +0.000 HD
ENDBRANCH  26  27
ENDBRANCH   6  26
TORSDOF 6
ENDMDL
MODEL 5
REMARK VINA RESULT:      -6.7      9.588     12.227
REMARK  Name = 
REMARK  8 active torsions:
REMARK  status: ('A' for Active; 'I' for Inactive)
REMARK    1  A    between atoms: C_1  and  C_2
REMARK    2  A    between atoms: C_5  and  C_6
REMARK    3  A    between atoms: C_7  and  C_8
REMARK    4  A    between atoms: C_10  and  C_11
REMARK    5  A    between atoms: C_16  and  C_18
REMARK    6  A    between atoms: C_18  and  N_19
REMARK    7  A    between atoms: C_23  and  C_24
REMARK    8  A    between atoms: C_24  and  O_25
REMARK                            x       y       z     vdW  Elec       q    Type
REMARK                         _______ _______ _______ _____ _____    ______ ____
ROOT
ATOM      1  C   UNL     1      -4.502  12.779  20.861  0.00  0.00    +0.000 A 
ATOM      2  N   UNL     1      -3.496  12.785  19.926  0.00  0.00    +0.000 NA
ATOM      3  C   UNL     1      -2.193  12.833  20.331  0.00  0.00    +0.000 A 
ATOM      4  C   UNL     1      -1.875  12.899  21.673  0.00  0.00    +0.000 A 
ATOM      5  C   UNL     1      -2.875  12.877  22.619  0.00  0.00    +0.000 A 
ATOM      6  C   UNL     1      -4.217  12.801  22.240  0.00  0.00    +0.000 A 
ENDROOT
BRANCH   3   7
ATOM      7  C   UNL     1      -1.090  12.822  19.274  0.00  0.00    +0.000 C 
ATOM      8  C   UNL     1      -1.492  12.106  17.964  0.00  0.00    +0.000 C 
ATOM      9  C   UNL     1      -1.444  10.574  18.032  0.00  0.00    +0.000 C 
ATOM     10  C   UNL     1      -0.188  10.025  18.721  0.00  0.00    +0.000 C 
ATOM     11  N   UNL     1       0.162  10.764  19.937  0.00  0.00    +0.000 N 
ATOM     12  C   UNL     1       0.397  10.216  21.195  0.00  0.00    +0.000 C 
ATOM     13  O   UNL     1       0.700  10.918  22.167  0.00  0.00    +0.000 OA
ATOM     14  C   UNL     1       0.235  12.223  19.788  0.00  0.00    +0.000 C 
BRANCH  12  15
ATOM     15  C   UNL     1       0.185   8.712  21.416  0.00  0.00    +0.000 C 
BRANCH  15  16
ATOM     16  N   UNL     1       1.487   8.024  21.445  0.00  0.00    +0.000 NA
ATOM     17  H   UNL     1       1.796   8.002  22.423  0.00  0.00    +0.000 HD
ATOM     18  H   UNL     1       2.174   8.606  20.966  0.00  0.00    +0.000 HD
ENDBRANCH  15  16
ENDBRANCH  12  15
ENDBRANCH   3   7
BRANCH   1  25
ATOM     19  C   UNL     1      -6.650  15.292  20.894  0.00  0.00    +0.000 C 
ATOM     20  C   UNL     1      -6.771  13.954  20.268  0.00  0.00    +0.000 A 
ATOM     21  N   UNL     1      -7.905  13.673  19.618  0.00  0.00    +0.000 NA
ATOM     22  O   UNL     1      -7.764  12.397  19.158  0.00  0.00    +0.000 OA
ATOM     23  C   UNL     1      -6.553  11.892  19.519  0.00  0.00    +0.000 A 
ATOM     24  C   UNL     1      -6.370  10.519  19.007  0.00  0.00    +0.000 C 
ATOM     25  C   UNL     1      -5.853  12.842  20.257  0.00  0.00    +0.000 A 
ENDBRANCH   1  25
BRANCH   6  26
ATOM     26  C   UNL     1      -5.230  12.718  23.341  0.00  0.00    +0.000 C 
BRANCH  26  27
ATOM     27  O   UNL     1      -4.777  12.015  24.500  0.00  0.00    +0.000 OA
ATOM     28  H   UNL     1      -5.318  11.207  24.561  0.00  0.00    +0.000 HD
ENDBRANCH  26  27
ENDBRANCH   6  26
TORSDOF 6
ENDMDL
MODEL 6
REMARK VINA RESULT:      -6.5      0.507      1.649
REMARK  Name = 
REMARK  8 active torsions:
REMARK  status: ('A' for Active; 'I' for Inactive)
REMARK    1  A    between atoms: C_1  and  C_2
REMARK    2  A    between atoms: C_5  and  C_6
REMARK    3  A    between atoms: C_7  and  C_8
REMARK    4  A    between atoms: C_10  and  C_11
REMARK    5  A    between atoms: C_16  and  C_18
REMARK    6  A    between atoms: C_18  and  N_19
REMARK    7  A    between atoms: C_23  and  C_24
REMARK    8  A    between atoms: C_24  and  O_25
REMARK                            x       y       z     vdW  Elec       q    Type
REMARK                         _______ _______ _______ _____ _____    ______ ____
ROOT
ATOM      1  C   UNL     1       4.508   5.626  17.406  0.00  0.00    +0.000 A 
ATOM      2  N   UNL     1       3.574   4.696  17.791  0.00  0.00    +0.000 NA
ATOM      3  C   UNL     1       2.351   5.105  18.238  0.00  0.00    +0.000 A 
ATOM      4  C   UNL     1       2.050   6.450  18.331  0.00  0.00    +0.000 A 
ATOM      5  C   UNL     1       2.974   7.391  17.933  0.00  0.00    +0.000 A 
ATOM      6  C   UNL     1       4.224   7.005  17.444  0.00  0.00    +0.000 A 
ENDROOT
BRANCH   3   7
ATOM      7  C   UNL     1       1.322   4.053  18.645  0.00  0.00    +0.000 C 
ATOM      8  C   UNL     1       0.708   4.293  20.044  0.00  0.00    +0.000 C 
ATOM      9  C   UNL     1       1.605   3.870  21.216  0.00  0.00    +0.000 C 
ATOM     10  C   UNL     1       2.277   2.505  21.018  0.00  0.00    +0.000 C 
ATOM     11  N   UNL     1       2.808   2.324  19.665  0.00  0.00    +0.000 N 
ATOM     12  C   UNL     1       4.104   1.939  19.333  0.00  0.00    +0.000 C 
ATOM     13  O   UNL     1       4.464   1.799  18.159  0.00  0.00    +0.000 OA
ATOM     14  C   UNL     1       1.867   2.613  18.575  0.00  0.00    +0.000 C 
BRANCH  12  15
ATOM     15  C   UNL     1       5.151   1.772  20.444  0.00  0.00    +0.000 C 
BRANCH  15  16
ATOM     16  N   UNL     1       5.583   0.365  20.515  0.00  0.00    +0.000 NA
ATOM     17  H   UNL     1       4.954  -0.112  21.168  0.00  0.00    +0.000 HD
ATOM     18  H   UNL     1       6.500   0.329  20.961  0.00  0.00    +0.000 HD
ENDBRANCH  15  16
ENDBRANCH  12  15
ENDBRANCH   3   7
BRANCH   1  25
ATOM     19  C   UNL     1       5.481   4.364  14.509  0.00  0.00    +0.000 C 
ATOM     20  C   UNL     1       6.229   4.491  15.782  0.00  0.00    +0.000 A 
ATOM     21  N   UNL     1       7.484   4.032  15.814  0.00  0.00    +0.000 NA
ATOM     22  O   UNL     1       7.929   4.254  17.084  0.00  0.00    +0.000 OA
ATOM     23  C   UNL     1       6.960   4.849  17.831  0.00  0.00    +0.000 A 
ATOM     24  C   UNL     1       7.433   5.123  19.203  0.00  0.00    +0.000 C 
ATOM     25  C   UNL     1       5.816   5.023  17.058  0.00  0.00    +0.000 A 
ENDBRANCH   1  25
BRANCH   6  26
ATOM     26  C   UNL     1       5.137   8.097  16.976  0.00  0.00    +0.000 C 
BRANCH  26  27
ATOM     27  O   UNL     1       6.514   7.883  17.294  0.00  0.00    +0.000 OA
ATOM     28  H   UNL     1       6.529   7.376  18.125  0.00  0.00    +0.000 HD
ENDBRANCH  26  27
ENDBRANCH   6  26
TORSDOF 6
ENDMDL
MODEL 7
REMARK VINA RESULT:      -6.5      9.515     11.645
REMARK  Name = 
REMARK  8 active torsions:
REMARK  status: ('A' for Active; 'I' for Inactive)
REMARK    1  A    between atoms: C_1  and  C_2
REMARK    2  A    between atoms: C_5  and  C_6
REMARK    3  A    between atoms: C_7  and  C_8
REMARK    4  A    between atoms: C_10  and  C_11
REMARK    5  A    between atoms: C_16  and  C_18
REMARK    6  A    between atoms: C_18  and  N_19
REMARK    7  A    between atoms: C_23  and  C_24
REMARK    8  A    between atoms: C_24  and  O_25
REMARK                            x       y       z     vdW  Elec       q    Type
REMARK                         _______ _______ _______ _____ _____    ______ ____
ROOT
ATOM      1  C   UNL     1      -1.963  11.810  19.837  0.00  0.00    +0.000 A 
ATOM      2  N   UNL     1      -2.797  12.703  20.465  0.00  0.00    +0.000 NA
ATOM      3  C   UNL     1      -4.047  12.931  19.967  0.00  0.00    +0.000 A 
ATOM      4  C   UNL     1      -4.476  12.290  18.821  0.00  0.00    +0.000 A 
ATOM      5  C   UNL     1      -3.654  11.381  18.193  0.00  0.00    +0.000 A 
ATOM      6  C   UNL     1      -2.379  11.104  18.691  0.00  0.00    +0.000 A 
ENDROOT
BRANCH   3   7
ATOM      7  C   UNL     1      -4.964  13.915  20.691  0.00  0.00    +0.000 C 
ATOM      8  C   UNL     1      -4.743  13.957  22.222  0.00  0.00    +0.000 C 
ATOM      9  C   UNL     1      -5.382  12.793  22.991  0.00  0.00    +0.000 C 
ATOM     10  C   UNL     1      -6.812  12.466  22.543  0.00  0.00    +0.000 C 
ATOM     11  N   UNL     1      -6.966  12.475  21.085  0.00  0.00    +0.000 N 
ATOM     12  C   UNL     1      -7.512  11.456  20.309  0.00  0.00    +0.000 C 
ATOM     13  O   UNL     1      -7.614  11.554  19.081  0.00  0.00    +0.000 OA
ATOM     14  C   UNL     1      -6.459  13.673  20.406  0.00  0.00    +0.000 C 
BRANCH  12  15
ATOM     15  C   UNL     1      -7.916  10.132  20.973  0.00  0.00    +0.000 C 
BRANCH  15  16
ATOM     16  N   UNL     1      -7.740   9.022  20.021  0.00  0.00    +0.000 NA
ATOM     17  H   UNL     1      -8.071   8.170  20.485  0.00  0.00    +0.000 HD
ATOM     18  H   UNL     1      -6.741   8.871  19.878  0.00  0.00    +0.000 HD
ENDBRANCH  15  16
ENDBRANCH  12  15
ENDBRANCH   3   7
BRANCH   1  25
ATOM     19  C   UNL     1       0.536  13.933  19.415  0.00  0.00    +0.000 C 
ATOM     20  C   UNL     1       0.466  12.711  20.250  0.00  0.00    +0.000 A 
ATOM     21  N   UNL     1       1.556  12.372  20.947  0.00  0.00    +0.000 NA
ATOM     22  O   UNL     1       1.233  11.222  21.606  0.00  0.00    +0.000 OA
ATOM     23  C   UNL     1      -0.046  10.854  21.322  0.00  0.00    +0.000 A 
ATOM     24  C   UNL     1      -0.424   9.624  22.048  0.00  0.00    +0.000 C 
ATOM     25  C   UNL     1      -0.608  11.766  20.434  0.00  0.00    +0.000 A 
ENDBRANCH   1  25
BRANCH   6  26
ATOM     26  C   UNL     1      -1.583  10.055  17.977  0.00  0.00    +0.000 C 
BRANCH  26  27
ATOM     27  O   UNL     1      -1.592  10.183  16.554  0.00  0.00    +0.000 OA
ATOM     28  H   UNL     1      -0.673  10.360  16.287  0.00  0.00    +0.000 HD
ENDBRANCH  26  27
ENDBRANCH   6  26
TORSDOF 6
ENDMDL
MODEL 8
REMARK VINA RESULT:      -6.5      9.521     11.431
REMARK  Name = 
REMARK  8 active torsions:
REMARK  status: ('A' for Active; 'I' for Inactive)
REMARK    1  A    between atoms: C_1  and  C_2
REMARK    2  A    between atoms: C_5  and  C_6
REMARK    3  A    between atoms: C_7  and  C_8
REMARK    4  A    between atoms: C_10  and  C_11
REMARK    5  A    between atoms: C_16  and  C_18
REMARK    6  A    between atoms: C_18  and  N_19
REMARK    7  A    between atoms: C_23  and  C_24
REMARK    8  A    between atoms: C_24  and  O_25
REMARK                            x       y       z     vdW  Elec       q    Type
REMARK                         _______ _______ _______ _____ _____    ______ ____
ROOT
ATOM      1  C   UNL     1       9.748  13.326  19.587  0.00  0.00    +0.000 A 
ATOM      2  N   UNL     1       9.379  13.560  20.890  0.00  0.00    +0.000 NA
ATOM      3  C   UNL     1       9.183  12.509  21.739  0.00  0.00    +0.000 A 
ATOM      4  C   UNL     1       9.328  11.209  21.296  0.00  0.00    +0.000 A 
ATOM      5  C   UNL     1       9.713  10.965  19.996  0.00  0.00    +0.000 A 
ATOM      6  C   UNL     1       9.948  12.017  19.109  0.00  0.00    +0.000 A 
ENDROOT
BRANCH   3   7
ATOM      7  C   UNL     1       8.791  12.793  23.188  0.00  0.00    +0.000 C 
ATOM      8  C   UNL     1       7.887  11.703  23.810  0.00  0.00    +0.000 C 
ATOM      9  C   UNL     1       6.412  11.782  23.394  0.00  0.00    +0.000 C 
ATOM     10  C   UNL     1       5.838  13.205  23.419  0.00  0.00    +0.000 C 
ATOM     11  N   UNL     1       6.753  14.196  22.847  0.00  0.00    +0.000 N 
ATOM     12  C   UNL     1       6.449  15.119  21.849  0.00  0.00    +0.000 C 
ATOM     13  O   UNL     1       7.283  15.930  21.433  0.00  0.00    +0.000 OA
ATOM     14  C   UNL     1       8.122  14.169  23.376  0.00  0.00    +0.000 C 
BRANCH  12  15
ATOM     15  C   UNL     1       5.071  15.075  21.174  0.00  0.00    +0.000 C 
BRANCH  15  16
ATOM     16  N   UNL     1       4.709  16.419  20.690  0.00  0.00    +0.000 NA
ATOM     17  H   UNL     1       4.404  16.962  21.505  0.00  0.00    +0.000 HD
ATOM     18  H   UNL     1       3.880  16.341  20.101  0.00  0.00    +0.000 HD
ENDBRANCH  15  16
ENDBRANCH  12  15
ENDBRANCH   3   7
BRANCH   1  25
ATOM     19  C   UNL     1       7.276  14.881  18.036  0.00  0.00    +0.000 C 
ATOM     20  C   UNL     1       8.713  15.235  18.114  0.00  0.00    +0.000 A 
ATOM     21  N   UNL     1       9.118  16.334  17.469  0.00  0.00    +0.000 NA
ATOM     22  O   UNL     1      10.461  16.421  17.688  0.00  0.00    +0.000 OA
ATOM     23  C   UNL     1      10.884  15.386  18.465  0.00  0.00    +0.000 A 
ATOM     24  C   UNL     1      12.333  15.477  18.736  0.00  0.00    +0.000 C 
ATOM     25  C   UNL     1       9.806  14.562  18.772  0.00  0.00    +0.000 A 
ENDBRANCH   1  25
BRANCH   6  26
ATOM     26  C   UNL     1      10.424  11.653  17.735  0.00  0.00    +0.000 C 
BRANCH  26  27
ATOM     27  O   UNL     1      11.846  11.563  17.615  0.00  0.00    +0.000 OA
ATOM     28  H   UNL     1      12.105  10.727  18.042  0.00  0.00    +0.000 HD
ENDBRANCH  26  27
ENDBRANCH   6  26
TORSDOF 6
ENDMDL
MODEL 9
REMARK VINA RESULT:      -6.5      8.488     10.635
REMARK  Name = 
REMARK  8 active torsions:
REMARK  status: ('A' for Active; 'I' for Inactive)
REMARK    1  A    between atoms: C_1  and  C_2
REMARK    2  A    between atoms: C_5  and  C_6
REMARK    3  A    between atoms: C_7  and  C_8
REMARK    4  A    between atoms: C_10  and  C_11
REMARK    5  A    between atoms: C_16  and  C_18
REMARK    6  A    between atoms: C_18  and  N_19
REMARK    7  A    between atoms: C_23  and  C_24
REMARK    8  A    between atoms: C_24  and  O_25
REMARK                            x       y       z     vdW  Elec       q    Type
REMARK                         _______ _______ _______ _____ _____    ______ ____
ROOT
ATOM      1  C   UNL     1      -0.938  10.679  19.715  0.00  0.00    +0.000 A 
ATOM      2  N   UNL     1      -1.053  11.583  20.743  0.00  0.00    +0.000 NA
ATOM      3  C   UNL     1      -1.933  12.621  20.640  0.00  0.00    +0.000 A 
ATOM      4  C   UNL     1      -2.693  12.789  19.499  0.00  0.00    +0.000 A 
ATOM      5  C   UNL     1      -2.597  11.880  18.469  0.00  0.00    +0.000 A 
ATOM      6  C   UNL     1      -1.728  10.790  18.554  0.00  0.00    +0.000 A 
ENDROOT
BRANCH   3   7
ATOM      7  C   UNL     1      -2.057  13.604  21.803  0.00  0.00    +0.000 C 
ATOM      8  C   UNL     1      -1.872  12.948  23.192  0.00  0.00    +0.000 C 
ATOM      9  C   UNL     1      -3.098  12.183  23.706  0.00  0.00    +0.000 C 
ATOM     10  C   UNL     1      -4.422  12.931  23.504  0.00  0.00    +0.000 C 
ATOM     11  N   UNL     1      -4.525  13.558  22.183  0.00  0.00    +0.000 N 
ATOM     12  C   UNL     1      -5.575  13.411  21.281  0.00  0.00    +0.000 C 
ATOM     13  O   UNL     1      -5.583  13.990  20.189  0.00  0.00    +0.000 OA
ATOM     14  C   UNL     1      -3.382  14.392  21.792  0.00  0.00    +0.000 C 
BRANCH  12  15
ATOM     15  C   UNL     1      -6.714  12.432  21.598  0.00  0.00    +0.000 C 
BRANCH  15  16
ATOM     16  N   UNL     1      -6.573  11.218  20.775  0.00  0.00    +0.000 NA
ATOM     17  H   UNL     1      -6.943  10.436  21.325  0.00  0.00    +0.000 HD
ATOM     18  H   UNL     1      -5.580  11.014  20.663  0.00  0.00    +0.000 HD
ENDBRANCH  15  16
ENDBRANCH  12  15
ENDBRANCH   3   7
BRANCH   1  25
ATOM     19  C   UNL     1      -0.500   8.669  22.303  0.00  0.00    +0.000 C 
ATOM     20  C   UNL     1       0.305   8.805  21.066  0.00  0.00    +0.000 A 
ATOM     21  N   UNL     1       1.383   8.025  20.938  0.00  0.00    +0.000 NA
ATOM     22  O   UNL     1       1.941   8.355  19.738  0.00  0.00    +0.000 OA
ATOM     23  C   UNL     1       1.212   9.328  19.126  0.00  0.00    +0.000 A 
ATOM     24  C   UNL     1       1.785   9.681  17.811  0.00  0.00    +0.000 C 
ATOM     25  C   UNL     1       0.138   9.685  19.936  0.00  0.00    +0.000 A 
ENDBRANCH   1  25
BRANCH   6  26
ATOM     26  C   UNL     1      -1.739   9.821  17.411  0.00  0.00    +0.000 C 
BRANCH  26  27
ATOM     27  O   UNL     1      -2.013  10.419  16.142  0.00  0.00    +0.000 OA
ATOM     28  H   UNL     1      -2.696  11.096  16.298  0.00  0.00    +0.000 HD
ENDBRANCH  26  27
ENDBRANCH   6  26
TORSDOF 6
ENDMDL
