MODEL 1
REMARK VINA RESULT:      -8.8      0.000      0.000
REMARK  Name = 
REMARK  3 active torsions:
REMARK  status: ('A' for Active; 'I' for Inactive)
REMARK    1  A    between atoms: C_2  and  C_3
REMARK    2  A    between atoms: C_3  and  C_4
REMARK    3  A    between atoms: C_21  and  C_22
REMARK                            x       y       z     vdW  Elec       q    Type
REMARK                         _______ _______ _______ _____ _____    ______ ____
ROOT
ATOM      1  O   UNL     1       3.366   3.865  20.368  0.00  0.00    +0.000 OA
ATOM      2  C   UNL     1       3.221   5.071  20.157  0.00  0.00    +0.000 C 
ATOM      3  N   UNL     1       2.124   5.694  20.703  0.00  0.00    +0.000 N 
ATOM      4  C   UNL     1       1.678   6.997  20.471  0.00  0.00    +0.000 A 
ATOM      5  C   UNL     1       0.704   7.529  21.301  0.00  0.00    +0.000 A 
ATOM      6  C   UNL     1       0.277   8.843  21.080  0.00  0.00    +0.000 A 
ATOM      7  C   UNL     1       0.793   9.598  20.018  0.00  0.00    +0.000 A 
ATOM      8  C   UNL     1       1.754   8.959  19.246  0.00  0.00    +0.000 A 
ATOM      9  N   UNL     1       2.192   7.697  19.448  0.00  0.00    +0.000 NA
ATOM     10  H   UNL     1       1.588   5.103  21.322  0.00  0.00    +0.000 HD
ENDROOT
BRANCH   7  11
ATOM     11  C   UNL     1       0.381  10.979  19.750  0.00  0.00    +0.000 A 
ATOM     12  C   UNL     1       0.713  12.054  20.579  0.00  0.00    +0.000 A 
ATOM     13  N   UNL     1       0.291  13.324  20.365  0.00  0.00    +0.000 NA
ATOM     14  C   UNL     1      -0.485  13.492  19.273  0.00  0.00    +0.000 A 
ATOM     15  C   UNL     1      -0.813  12.443  18.433  0.00  0.00    +0.000 A 
ATOM     16  N   UNL     1      -0.386  11.176  18.646  0.00  0.00    +0.000 NA
ENDBRANCH   7  11
BRANCH   2  17
ATOM     17  C   UNL     1       4.219   5.910  19.371  0.00  0.00    +0.000 C 
BRANCH  17  18
ATOM     18  C   UNL     1       4.619   5.364  18.020  0.00  0.00    +0.000 A 
ATOM     19  C   UNL     1       3.804   4.407  17.392  0.00  0.00    +0.000 A 
ATOM     20  C   UNL     1       4.098   3.932  16.109  0.00  0.00    +0.000 A 
ATOM     21  C   UNL     1       5.237   4.424  15.451  0.00  0.00    +0.000 A 
ATOM     22  C   UNL     1       6.033   5.358  16.104  0.00  0.00    +0.000 A 
ATOM     23  C   UNL     1       5.773   5.849  17.381  0.00  0.00    +0.000 A 
ATOM     24  O   UNL     1       7.084   5.726  15.320  0.00  0.00    +0.000 OA
ATOM     25  C   UNL     1       6.972   5.026  14.156  0.00  0.00    +0.000 A 
ATOM     26  C   UNL     1       7.851   5.111  13.079  0.00  0.00    +0.000 A 
ATOM     27  C   UNL     1       7.560   4.311  11.972  0.00  0.00    +0.000 A 
ATOM     28  C   UNL     1       6.438   3.473  11.958  0.00  0.00    +0.000 A 
ATOM     29  C   UNL     1       5.569   3.412  13.057  0.00  0.00    +0.000 A 
ATOM     30  C   UNL     1       5.847   4.209  14.183  0.00  0.00    +0.000 A 
ENDBRANCH  17  18
ENDBRANCH   2  17
TORSDOF 3
ENDMDL
MODEL 2
REMARK VINA RESULT:      -8.8      3.823     10.108
REMARK  Name = 
REMARK  3 active torsions:
REMARK  status: ('A' for Active; 'I' for Inactive)
REMARK    1  A    between atoms: C_2  and  C_3
REMARK    2  A    between atoms: C_3  and  C_4
REMARK    3  A    between atoms: C_21  and  C_22
REMARK                            x       y       z     vdW  Elec       q    Type
REMARK                         _______ _______ _______ _____ _____    ______ ____
ROOT
ATOM      1  O   UNL     1       0.338   9.415  21.587  0.00  0.00    +0.000 OA
ATOM      2  C   UNL     1       0.890   8.994  20.568  0.00  0.00    +0.000 C 
ATOM      3  N   UNL     1       1.541   7.785  20.639  0.00  0.00    +0.000 N 
ATOM      4  C   UNL     1       2.356   7.196  19.670  0.00  0.00    +0.000 A 
ATOM      5  C   UNL     1       2.718   5.867  19.818  0.00  0.00    +0.000 A 
ATOM      6  C   UNL     1       3.515   5.273  18.832  0.00  0.00    +0.000 A 
ATOM      7  C   UNL     1       3.971   6.015  17.734  0.00  0.00    +0.000 A 
ATOM      8  C   UNL     1       3.556   7.339  17.695  0.00  0.00    +0.000 A 
ATOM      9  N   UNL     1       2.775   7.929  18.627  0.00  0.00    +0.000 NA
ATOM     10  H   UNL     1       1.412   7.305  21.517  0.00  0.00    +0.000 HD
ENDROOT
BRANCH   7  11
ATOM     11  C   UNL     1       4.803   5.435  16.675  0.00  0.00    +0.000 A 
ATOM     12  C   UNL     1       5.401   6.195  15.665  0.00  0.00    +0.000 A 
ATOM     13  N   UNL     1       6.128   5.659  14.654  0.00  0.00    +0.000 NA
ATOM     14  C   UNL     1       6.245   4.315  14.685  0.00  0.00    +0.000 A 
ATOM     15  C   UNL     1       5.673   3.548  15.684  0.00  0.00    +0.000 A 
ATOM     16  N   UNL     1       4.953   4.085  16.695  0.00  0.00    +0.000 NA
ENDBRANCH   7  11
BRANCH   2  17
ATOM     17  C   UNL     1       0.839   9.718  19.229  0.00  0.00    +0.000 C 
BRANCH  17  18
ATOM     18  C   UNL     1      -0.516  10.237  18.812  0.00  0.00    +0.000 A 
ATOM     19  C   UNL     1      -1.105   9.762  17.628  0.00  0.00    +0.000 A 
ATOM     20  C   UNL     1      -2.390  10.161  17.244  0.00  0.00    +0.000 A 
ATOM     21  C   UNL     1      -3.092  11.058  18.064  0.00  0.00    +0.000 A 
ATOM     22  C   UNL     1      -2.478  11.524  19.222  0.00  0.00    +0.000 A 
ATOM     23  C   UNL     1      -1.201  11.151  19.631  0.00  0.00    +0.000 A 
ATOM     24  O   UNL     1      -3.302  12.375  19.894  0.00  0.00    +0.000 OA
ATOM     25  C   UNL     1      -4.451  12.467  19.168  0.00  0.00    +0.000 A 
ATOM     26  C   UNL     1      -5.558  13.240  19.510  0.00  0.00    +0.000 A 
ATOM     27  C   UNL     1      -6.645  13.197  18.632  0.00  0.00    +0.000 A 
ATOM     28  C   UNL     1      -6.610  12.410  17.475  0.00  0.00    +0.000 A 
ATOM     29  C   UNL     1      -5.482  11.638  17.160  0.00  0.00    +0.000 A 
ATOM     30  C   UNL     1      -4.376  11.671  18.030  0.00  0.00    +0.000 A 
ENDBRANCH  17  18
ENDBRANCH   2  17
TORSDOF 3
ENDMDL
MODEL 3
REMARK VINA RESULT:      -8.4      4.536     11.226
REMARK  Name = 
REMARK  3 active torsions:
REMARK  status: ('A' for Active; 'I' for Inactive)
REMARK    1  A    between atoms: C_2  and  C_3
REMARK    2  A    between atoms: C_3  and  C_4
REMARK    3  A    between atoms: C_21  and  C_22
REMARK                            x       y       z     vdW  Elec       q    Type
REMARK                         _______ _______ _______ _____ _____    ______ ____
ROOT
ATOM      1  O   UNL     1       0.651  12.582  18.363  0.00  0.00    +0.000 OA
ATOM      2  C   UNL     1       1.006  11.553  18.943  0.00  0.00    +0.000 C 
ATOM      3  N   UNL     1       1.443  10.500  18.176  0.00  0.00    +0.000 N 
ATOM      4  C   UNL     1       1.741   9.202  18.598  0.00  0.00    +0.000 A 
ATOM      5  C   UNL     1       2.407   8.352  17.730  0.00  0.00    +0.000 A 
ATOM      6  C   UNL     1       2.725   7.060  18.166  0.00  0.00    +0.000 A 
ATOM      7  C   UNL     1       2.346   6.618  19.441  0.00  0.00    +0.000 A 
ATOM      8  C   UNL     1       1.674   7.551  20.219  0.00  0.00    +0.000 A 
ATOM      9  N   UNL     1       1.369   8.807  19.826  0.00  0.00    +0.000 NA
ATOM     10  H   UNL     1       1.526  10.718  17.194  0.00  0.00    +0.000 HD
ENDROOT
BRANCH   7  11
ATOM     11  C   UNL     1       2.661   5.277  19.942  0.00  0.00    +0.000 A 
ATOM     12  C   UNL     1       3.623   4.446  19.362  0.00  0.00    +0.000 A 
ATOM     13  N   UNL     1       3.882   3.186  19.789  0.00  0.00    +0.000 NA
ATOM     14  C   UNL     1       3.138   2.774  20.838  0.00  0.00    +0.000 A 
ATOM     15  C   UNL     1       2.191   3.587  21.434  0.00  0.00    +0.000 A 
ATOM     16  N   UNL     1       1.938   4.847  21.010  0.00  0.00    +0.000 NA
ENDBRANCH   7  11
BRANCH   2  17
ATOM     17  C   UNL     1       1.034  11.414  20.459  0.00  0.00    +0.000 C 
BRANCH  17  18
ATOM     18  C   UNL     1      -0.279  11.648  21.167  0.00  0.00    +0.000 A 
ATOM     19  C   UNL     1      -0.454  11.168  22.476  0.00  0.00    +0.000 A 
ATOM     20  C   UNL     1      -1.626  11.427  23.195  0.00  0.00    +0.000 A 
ATOM     21  C   UNL     1      -2.643  12.177  22.581  0.00  0.00    +0.000 A 
ATOM     22  C   UNL     1      -2.448  12.624  21.279  0.00  0.00    +0.000 A 
ATOM     23  C   UNL     1      -1.297  12.381  20.534  0.00  0.00    +0.000 A 
ATOM     24  O   UNL     1      -3.528  13.335  20.849  0.00  0.00    +0.000 OA
ATOM     25  C   UNL     1      -4.427  13.345  21.873  0.00  0.00    +0.000 A 
ATOM     26  C   UNL     1      -5.672  13.969  21.842  0.00  0.00    +0.000 A 
ATOM     27  C   UNL     1      -6.449  13.866  22.999  0.00  0.00    +0.000 A 
ATOM     28  C   UNL     1      -5.987  13.171  24.123  0.00  0.00    +0.000 A 
ATOM     29  C   UNL     1      -4.726  12.557  24.124  0.00  0.00    +0.000 A 
ATOM     30  C   UNL     1      -3.930  12.646  22.967  0.00  0.00    +0.000 A 
ENDBRANCH  17  18
ENDBRANCH   2  17
TORSDOF 3
ENDMDL
MODEL 4
REMARK VINA RESULT:      -8.4      3.148      9.969
REMARK  Name = 
REMARK  3 active torsions:
REMARK  status: ('A' for Active; 'I' for Inactive)
REMARK    1  A    between atoms: C_2  and  C_3
REMARK    2  A    between atoms: C_3  and  C_4
REMARK    3  A    between atoms: C_21  and  C_22
REMARK                            x       y       z     vdW  Elec       q    Type
REMARK                         _______ _______ _______ _____ _____    ______ ____
ROOT
ATOM      1  O   UNL     1       1.911   6.155  20.709  0.00  0.00    +0.000 OA
ATOM      2  C   UNL     1       2.449   6.226  19.601  0.00  0.00    +0.000 C 
ATOM      3  N   UNL     1       2.946   5.070  19.050  0.00  0.00    +0.000 N 
ATOM      4  C   UNL     1       3.722   4.939  17.896  0.00  0.00    +0.000 A 
ATOM      5  C   UNL     1       3.915   3.676  17.359  0.00  0.00    +0.000 A 
ATOM      6  C   UNL     1       4.675   3.552  16.190  0.00  0.00    +0.000 A 
ATOM      7  C   UNL     1       5.261   4.675  15.591  0.00  0.00    +0.000 A 
ATOM      8  C   UNL     1       5.010   5.885  16.222  0.00  0.00    +0.000 A 
ATOM      9  N   UNL     1       4.269   6.032  17.343  0.00  0.00    +0.000 NA
ATOM     10  H   UNL     1       2.725   4.239  19.579  0.00  0.00    +0.000 HD
ENDROOT
BRANCH   7  11
ATOM     11  C   UNL     1       6.059   4.595  14.364  0.00  0.00    +0.000 A 
ATOM     12  C   UNL     1       5.796   3.687  13.334  0.00  0.00    +0.000 A 
ATOM     13  N   UNL     1       6.561   3.573  12.221  0.00  0.00    +0.000 NA
ATOM     14  C   UNL     1       7.615   4.413  12.164  0.00  0.00    +0.000 A 
ATOM     15  C   UNL     1       7.884   5.329  13.166  0.00  0.00    +0.000 A 
ATOM     16  N   UNL     1       7.115   5.445  14.274  0.00  0.00    +0.000 NA
ENDBRANCH   7  11
BRANCH   2  17
ATOM     17  C   UNL     1       2.539   7.516  18.797  0.00  0.00    +0.000 C 
BRANCH  17  18
ATOM     18  C   UNL     1       1.584   8.613  19.201  0.00  0.00    +0.000 A 
ATOM     19  C   UNL     1       0.926   9.359  18.208  0.00  0.00    +0.000 A 
ATOM     20  C   UNL     1      -0.022  10.333  18.538  0.00  0.00    +0.000 A 
ATOM     21  C   UNL     1      -0.308  10.565  19.893  0.00  0.00    +0.000 A 
ATOM     22  C   UNL     1       0.370   9.824  20.854  0.00  0.00    +0.000 A 
ATOM     23  C   UNL     1       1.321   8.850  20.561  0.00  0.00    +0.000 A 
ATOM     24  O   UNL     1      -0.036  10.175  22.107  0.00  0.00    +0.000 OA
ATOM     25  C   UNL     1      -0.976  11.150  21.957  0.00  0.00    +0.000 A 
ATOM     26  C   UNL     1      -1.647  11.784  23.000  0.00  0.00    +0.000 A 
ATOM     27  C   UNL     1      -2.580  12.760  22.639  0.00  0.00    +0.000 A 
ATOM     28  C   UNL     1      -2.820  13.070  21.295  0.00  0.00    +0.000 A 
ATOM     29  C   UNL     1      -2.131  12.410  20.267  0.00  0.00    +0.000 A 
ATOM     30  C   UNL     1      -1.184  11.427  20.611  0.00  0.00    +0.000 A 
ENDBRANCH  17  18
ENDBRANCH   2  17
TORSDOF 3
ENDMDL
MODEL 5
REMARK VINA RESULT:      -8.4      4.114      6.844
REMARK  Name = 
REMARK  3 active torsions:
REMARK  status: ('A' for Active; 'I' for Inactive)
REMARK    1  A    between atoms: C_2  and  C_3
REMARK    2  A    between atoms: C_3  and  C_4
REMARK    3  A    between atoms: C_21  and  C_22
REMARK                            x       y       z     vdW  Elec       q    Type
REMARK                         _______ _______ _______ _____ _____    ______ ____
ROOT
ATOM      1  O   UNL     1      -0.978  10.475  18.677  0.00  0.00    +0.000 OA
ATOM      2  C   UNL     1       0.139  10.999  18.678  0.00  0.00    +0.000 C 
ATOM      3  N   UNL     1       0.252  12.275  19.176  0.00  0.00    +0.000 N 
ATOM      4  C   UNL     1       1.369  13.112  19.134  0.00  0.00    +0.000 A 
ATOM      5  C   UNL     1       1.373  14.261  19.908  0.00  0.00    +0.000 A 
ATOM      6  C   UNL     1       2.505  15.085  19.882  0.00  0.00    +0.000 A 
ATOM      7  C   UNL     1       3.599  14.777  19.062  0.00  0.00    +0.000 A 
ATOM      8  C   UNL     1       3.479  13.609  18.323  0.00  0.00    +0.000 A 
ATOM      9  N   UNL     1       2.403  12.791  18.342  0.00  0.00    +0.000 NA
ATOM     10  H   UNL     1      -0.598  12.625  19.593  0.00  0.00    +0.000 HD
ENDROOT
BRANCH   7  11
ATOM     11  C   UNL     1       4.806  15.607  19.005  0.00  0.00    +0.000 A 
ATOM     12  C   UNL     1       4.841  16.943  19.413  0.00  0.00    +0.000 A 
ATOM     13  N   UNL     1       5.940  17.729  19.314  0.00  0.00    +0.000 NA
ATOM     14  C   UNL     1       7.028  17.127  18.789  0.00  0.00    +0.000 A 
ATOM     15  C   UNL     1       7.018  15.802  18.393  0.00  0.00    +0.000 A 
ATOM     16  N   UNL     1       5.920  15.017  18.498  0.00  0.00    +0.000 NA
ENDBRANCH   7  11
BRANCH   2  17
ATOM     17  C   UNL     1       1.399  10.284  18.209  0.00  0.00    +0.000 C 
BRANCH  17  18
ATOM     18  C   UNL     1       1.673   8.944  18.848  0.00  0.00    +0.000 A 
ATOM     19  C   UNL     1       1.303   8.727  20.186  0.00  0.00    +0.000 A 
ATOM     20  C   UNL     1       1.471   7.477  20.794  0.00  0.00    +0.000 A 
ATOM     21  C   UNL     1       2.028   6.430  20.042  0.00  0.00    +0.000 A 
ATOM     22  C   UNL     1       2.400   6.680  18.726  0.00  0.00    +0.000 A 
ATOM     23  C   UNL     1       2.251   7.910  18.092  0.00  0.00    +0.000 A 
ATOM     24  O   UNL     1       2.914   5.556  18.150  0.00  0.00    +0.000 OA
ATOM     25  C   UNL     1       2.879   4.578  19.098  0.00  0.00    +0.000 A 
ATOM     26  C   UNL     1       3.315   3.267  18.915  0.00  0.00    +0.000 A 
ATOM     27  C   UNL     1       3.192   2.411  20.012  0.00  0.00    +0.000 A 
ATOM     28  C   UNL     1       2.655   2.859  21.225  0.00  0.00    +0.000 A 
ATOM     29  C   UNL     1       2.221   4.184  21.377  0.00  0.00    +0.000 A 
ATOM     30  C   UNL     1       2.339   5.063  20.284  0.00  0.00    +0.000 A 
ENDBRANCH  17  18
ENDBRANCH   2  17
TORSDOF 3
ENDMDL
MODEL 6
REMARK VINA RESULT:      -8.4      4.150      6.676
REMARK  Name = 
REMARK  3 active torsions:
REMARK  status: ('A' for Active; 'I' for Inactive)
REMARK    1  A    between atoms: C_2  and  C_3
REMARK    2  A    between atoms: C_3  and  C_4
REMARK    3  A    between atoms: C_21  and  C_22
REMARK                            x       y       z     vdW  Elec       q    Type
REMARK                         _______ _______ _______ _____ _____    ______ ____
ROOT
ATOM      1  O   UNL     1      -0.689   9.911  17.717  0.00  0.00    +0.000 OA
ATOM      2  C   UNL     1       0.260  10.620  18.061  0.00  0.00    +0.000 C 
ATOM      3  N   UNL     1      -0.007  11.913  18.444  0.00  0.00    +0.000 N 
ATOM      4  C   UNL     1       0.910  12.929  18.717  0.00  0.00    +0.000 A 
ATOM      5  C   UNL     1       0.462  14.088  19.331  0.00  0.00    +0.000 A 
ATOM      6  C   UNL     1       1.390  15.095  19.625  0.00  0.00    +0.000 A 
ATOM      7  C   UNL     1       2.739  14.954  19.274  0.00  0.00    +0.000 A 
ATOM      8  C   UNL     1       3.071  13.757  18.654  0.00  0.00    +0.000 A 
ATOM      9  N   UNL     1       2.197  12.766  18.372  0.00  0.00    +0.000 NA
ATOM     10  H   UNL     1      -0.993  12.124  18.501  0.00  0.00    +0.000 HD
ENDROOT
BRANCH   7  11
ATOM     11  C   UNL     1       3.746  15.978  19.566  0.00  0.00    +0.000 A 
ATOM     12  C   UNL     1       4.570  16.546  18.590  0.00  0.00    +0.000 A 
ATOM     13  N   UNL     1       5.538  17.454  18.862  0.00  0.00    +0.000 NA
ATOM     14  C   UNL     1       5.658  17.789  20.164  0.00  0.00    +0.000 A 
ATOM     15  C   UNL     1       4.843  17.249  21.142  0.00  0.00    +0.000 A 
ATOM     16  N   UNL     1       3.873  16.346  20.868  0.00  0.00    +0.000 NA
ENDBRANCH   7  11
BRANCH   2  17
ATOM     17  C   UNL     1       1.696  10.120  18.132  0.00  0.00    +0.000 C 
BRANCH  17  18
ATOM     18  C   UNL     1       1.895   8.783  18.806  0.00  0.00    +0.000 A 
ATOM     19  C   UNL     1       1.406   8.585  20.109  0.00  0.00    +0.000 A 
ATOM     20  C   UNL     1       1.504   7.340  20.741  0.00  0.00    +0.000 A 
ATOM     21  C   UNL     1       2.110   6.278  20.050  0.00  0.00    +0.000 A 
ATOM     22  C   UNL     1       2.599   6.508  18.769  0.00  0.00    +0.000 A 
ATOM     23  C   UNL     1       2.522   7.734  18.113  0.00  0.00    +0.000 A 
ATOM     24  O   UNL     1       3.145   5.372  18.252  0.00  0.00    +0.000 OA
ATOM     25  C   UNL     1       3.014   4.404  19.202  0.00  0.00    +0.000 A 
ATOM     26  C   UNL     1       3.446   3.087  19.071  0.00  0.00    +0.000 A 
ATOM     27  C   UNL     1       3.217   2.243  20.161  0.00  0.00    +0.000 A 
ATOM     28  C   UNL     1       2.582   2.712  21.318  0.00  0.00    +0.000 A 
ATOM     29  C   UNL     1       2.154   4.044  21.418  0.00  0.00    +0.000 A 
ATOM     30  C   UNL     1       2.380   4.909  20.331  0.00  0.00    +0.000 A 
ENDBRANCH  17  18
ENDBRANCH   2  17
TORSDOF 3
ENDMDL
MODEL 7
REMARK VINA RESULT:      -8.4      3.357      9.693
REMARK  Name = 
REMARK  3 active torsions:
REMARK  status: ('A' for Active; 'I' for Inactive)
REMARK    1  A    between atoms: C_2  and  C_3
REMARK    2  A    between atoms: C_3  and  C_4
REMARK    3  A    between atoms: C_21  and  C_22
REMARK                            x       y       z     vdW  Elec       q    Type
REMARK                         _______ _______ _______ _____ _____    ______ ____
ROOT
ATOM      1  O   UNL     1       0.276   9.287  21.108  0.00  0.00    +0.000 OA
ATOM      2  C   UNL     1       0.905   8.851  20.141  0.00  0.00    +0.000 C 
ATOM      3  N   UNL     1       1.701   7.747  20.334  0.00  0.00    +0.000 N 
ATOM      4  C   UNL     1       2.611   7.183  19.437  0.00  0.00    +0.000 A 
ATOM      5  C   UNL     1       3.134   5.931  19.713  0.00  0.00    +0.000 A 
ATOM      6  C   UNL     1       4.027   5.358  18.799  0.00  0.00    +0.000 A 
ATOM      7  C   UNL     1       4.416   6.051  17.645  0.00  0.00    +0.000 A 
ATOM      8  C   UNL     1       3.838   7.302  17.477  0.00  0.00    +0.000 A 
ATOM      9  N   UNL     1       2.963   7.868  18.338  0.00  0.00    +0.000 NA
ATOM     10  H   UNL     1       1.610   7.335  21.251  0.00  0.00    +0.000 HD
ENDROOT
BRANCH   7  11
ATOM     11  C   UNL     1       5.344   5.491  16.657  0.00  0.00    +0.000 A 
ATOM     12  C   UNL     1       6.656   5.942  16.494  0.00  0.00    +0.000 A 
ATOM     13  N   UNL     1       7.501   5.464  15.548  0.00  0.00    +0.000 NA
ATOM     14  C   UNL     1       6.987   4.498  14.758  0.00  0.00    +0.000 A 
ATOM     15  C   UNL     1       5.695   4.028  14.914  0.00  0.00    +0.000 A 
ATOM     16  N   UNL     1       4.855   4.504  15.862  0.00  0.00    +0.000 NA
ENDBRANCH   7  11
BRANCH   2  17
ATOM     17  C   UNL     1       0.800   9.439  18.740  0.00  0.00    +0.000 C 
BRANCH  17  18
ATOM     18  C   UNL     1       0.610  10.936  18.667  0.00  0.00    +0.000 A 
ATOM     19  C   UNL     1      -0.690  11.466  18.609  0.00  0.00    +0.000 A 
ATOM     20  C   UNL     1      -0.913  12.848  18.616  0.00  0.00    +0.000 A 
ATOM     21  C   UNL     1       0.194  13.710  18.674  0.00  0.00    +0.000 A 
ATOM     22  C   UNL     1       1.469  13.156  18.714  0.00  0.00    +0.000 A 
ATOM     23  C   UNL     1       1.726  11.788  18.705  0.00  0.00    +0.000 A 
ATOM     24  O   UNL     1       2.416  14.134  18.774  0.00  0.00    +0.000 OA
ATOM     25  C   UNL     1       1.753  15.325  18.768  0.00  0.00    +0.000 A 
ATOM     26  C   UNL     1       2.356  16.579  18.819  0.00  0.00    +0.000 A 
ATOM     27  C   UNL     1       1.500  17.684  18.806  0.00  0.00    +0.000 A 
ATOM     28  C   UNL     1       0.111  17.522  18.748  0.00  0.00    +0.000 A 
ATOM     29  C   UNL     1      -0.467  16.245  18.702  0.00  0.00    +0.000 A 
ATOM     30  C   UNL     1       0.379  15.121  18.710  0.00  0.00    +0.000 A 
ENDBRANCH  17  18
ENDBRANCH   2  17
TORSDOF 3
ENDMDL
MODEL 8
REMARK VINA RESULT:      -8.3      3.535      6.391
REMARK  Name = 
REMARK  3 active torsions:
REMARK  status: ('A' for Active; 'I' for Inactive)
REMARK    1  A    between atoms: C_2  and  C_3
REMARK    2  A    between atoms: C_3  and  C_4
REMARK    3  A    between atoms: C_21  and  C_22
REMARK                            x       y       z     vdW  Elec       q    Type
REMARK                         _______ _______ _______ _____ _____    ______ ____
ROOT
ATOM      1  O   UNL     1      -1.474  10.345  18.798  0.00  0.00    +0.000 OA
ATOM      2  C   UNL     1      -0.514  11.024  19.170  0.00  0.00    +0.000 C 
ATOM      3  N   UNL     1      -0.511  12.362  18.856  0.00  0.00    +0.000 N 
ATOM      4  C   UNL     1       0.528  13.278  19.034  0.00  0.00    +0.000 A 
ATOM      5  C   UNL     1       0.259  14.630  18.893  0.00  0.00    +0.000 A 
ATOM      6  C   UNL     1       1.298  15.546  19.095  0.00  0.00    +0.000 A 
ATOM      7  C   UNL     1       2.594  15.108  19.399  0.00  0.00    +0.000 A 
ATOM      8  C   UNL     1       2.748  13.733  19.504  0.00  0.00    +0.000 A 
ATOM      9  N   UNL     1       1.758  12.830  19.327  0.00  0.00    +0.000 NA
ATOM     10  H   UNL     1      -1.367  12.681  18.427  0.00  0.00    +0.000 HD
ENDROOT
BRANCH   7  11
ATOM     11  C   UNL     1       3.711  16.030  19.625  0.00  0.00    +0.000 A 
ATOM     12  C   UNL     1       4.460  16.599  18.590  0.00  0.00    +0.000 A 
ATOM     13  N   UNL     1       5.526  17.410  18.794  0.00  0.00    +0.000 NA
ATOM     14  C   UNL     1       5.826  17.645  20.088  0.00  0.00    +0.000 A 
ATOM     15  C   UNL     1       5.088  17.103  21.126  0.00  0.00    +0.000 A 
ATOM     16  N   UNL     1       4.021  16.298  20.920  0.00  0.00    +0.000 NA
ENDBRANCH   7  11
BRANCH   2  17
ATOM     17  C   UNL     1       0.632  10.466  20.002  0.00  0.00    +0.000 C 
BRANCH  17  18
ATOM     18  C   UNL     1       1.322   9.246  19.440  0.00  0.00    +0.000 A 
ATOM     19  C   UNL     1       1.840   9.284  18.134  0.00  0.00    +0.000 A 
ATOM     20  C   UNL     1       2.552   8.203  17.602  0.00  0.00    +0.000 A 
ATOM     21  C   UNL     1       2.738   7.061  18.398  0.00  0.00    +0.000 A 
ATOM     22  C   UNL     1       2.200   7.046  19.679  0.00  0.00    +0.000 A 
ATOM     23  C   UNL     1       1.485   8.101  20.238  0.00  0.00    +0.000 A 
ATOM     24  O   UNL     1       2.482   5.869  20.305  0.00  0.00    +0.000 OA
ATOM     25  C   UNL     1       3.200   5.117  19.425  0.00  0.00    +0.000 A 
ATOM     26  C   UNL     1       3.688   3.836  19.674  0.00  0.00    +0.000 A 
ATOM     27  C   UNL     1       4.407   3.230  18.640  0.00  0.00    +0.000 A 
ATOM     28  C   UNL     1       4.620   3.889  17.423  0.00  0.00    +0.000 A 
ATOM     29  C   UNL     1       4.119   5.181  17.204  0.00  0.00    +0.000 A 
ATOM     30  C   UNL     1       3.389   5.806  18.232  0.00  0.00    +0.000 A 
ENDBRANCH  17  18
ENDBRANCH   2  17
TORSDOF 3
ENDMDL
MODEL 9
REMARK VINA RESULT:      -8.3      4.502     11.065
REMARK  Name = 
REMARK  3 active torsions:
REMARK  status: ('A' for Active; 'I' for Inactive)
REMARK    1  A    between atoms: C_2  and  C_3
REMARK    2  A    between atoms: C_3  and  C_4
REMARK    3  A    between atoms: C_21  and  C_22
REMARK                            x       y       z     vdW  Elec       q    Type
REMARK                         _______ _______ _______ _____ _____    ______ ____
ROOT
ATOM      1  O   UNL     1       1.272  12.739  18.013  0.00  0.00    +0.000 OA
ATOM      2  C   UNL     1       1.465  11.695  18.640  0.00  0.00    +0.000 C 
ATOM      3  N   UNL     1       1.963  10.613  17.954  0.00  0.00    +0.000 N 
ATOM      4  C   UNL     1       2.110   9.303  18.415  0.00  0.00    +0.000 A 
ATOM      5  C   UNL     1       2.862   8.411  17.668  0.00  0.00    +0.000 A 
ATOM      6  C   UNL     1       3.027   7.105  18.145  0.00  0.00    +0.000 A 
ATOM      7  C   UNL     1       2.414   6.694  19.336  0.00  0.00    +0.000 A 
ATOM      8  C   UNL     1       1.676   7.668  19.994  0.00  0.00    +0.000 A 
ATOM      9  N   UNL     1       1.515   8.937  19.560  0.00  0.00    +0.000 NA
ATOM     10  H   UNL     1       2.222  10.821  17.000  0.00  0.00    +0.000 HD
ENDROOT
BRANCH   7  11
ATOM     11  C   UNL     1       2.562   5.339  19.878  0.00  0.00    +0.000 A 
ATOM     12  C   UNL     1       3.602   4.478  19.520  0.00  0.00    +0.000 A 
ATOM     13  N   UNL     1       3.715   3.207  19.978  0.00  0.00    +0.000 NA
ATOM     14  C   UNL     1       2.741   2.817  20.825  0.00  0.00    +0.000 A 
ATOM     15  C   UNL     1       1.711   3.660  21.204  0.00  0.00    +0.000 A 
ATOM     16  N   UNL     1       1.603   4.930  20.750  0.00  0.00    +0.000 NA
ENDBRANCH   7  11
BRANCH   2  17
ATOM     17  C   UNL     1       1.230  11.563  20.138  0.00  0.00    +0.000 C 
BRANCH  17  18
ATOM     18  C   UNL     1      -0.153  11.929  20.624  0.00  0.00    +0.000 A 
ATOM     19  C   UNL     1      -1.129  12.328  19.694  0.00  0.00    +0.000 A 
ATOM     20  C   UNL     1      -2.442  12.603  20.092  0.00  0.00    +0.000 A 
ATOM     21  C   UNL     1      -2.776  12.482  21.451  0.00  0.00    +0.000 A 
ATOM     22  C   UNL     1      -1.785  12.101  22.349  0.00  0.00    +0.000 A 
ATOM     23  C   UNL     1      -0.469  11.824  21.989  0.00  0.00    +0.000 A 
ATOM     24  O   UNL     1      -2.285  12.029  23.614  0.00  0.00    +0.000 OA
ATOM     25  C   UNL     1      -3.603  12.368  23.537  0.00  0.00    +0.000 A 
ATOM     26  C   UNL     1      -4.483  12.418  24.615  0.00  0.00    +0.000 A 
ATOM     27  C   UNL     1      -5.800  12.787  24.327  0.00  0.00    +0.000 A 
ATOM     28  C   UNL     1      -6.200  13.085  23.018  0.00  0.00    +0.000 A 
ATOM     29  C   UNL     1      -5.290  13.020  21.953  0.00  0.00    +0.000 A 
ATOM     30  C   UNL     1      -3.958  12.654  22.224  0.00  0.00    +0.000 A 
ENDBRANCH  17  18
ENDBRANCH   2  17
TORSDOF 3
ENDMDL
