MODEL 1
REMARK VINA RESULT:      -8.3      0.000      0.000
REMARK  Name = 
REMARK  5 active torsions:
REMARK  status: ('A' for Active; 'I' for Inactive)
REMARK    1  A    between atoms: C_2  and  C_4
REMARK    2  A    between atoms: C_15  and  N_16
REMARK    3  A    between atoms: N_16  and  C_17
REMARK    4  A    between atoms: C_22  and  N_23
REMARK    5  A    between atoms: C_24  and  C_26
REMARK                            x       y       z     vdW  Elec       q    Type
REMARK                         _______ _______ _______ _____ _____    ______ ____
ROOT
ATOM      1  C   UNL     1      -1.302  13.472  20.465  0.00  0.00    +0.000 A 
ATOM      2  C   UNL     1      -0.771  13.935  19.258  0.00  0.00    +0.000 A 
ATOM      3  C   UNL     1       0.264  13.235  18.633  0.00  0.00    +0.000 A 
ATOM      4  C   UNL     1       0.773  12.054  19.200  0.00  0.00    +0.000 A 
ATOM      5  C   UNL     1       0.211  11.570  20.387  0.00  0.00    +0.000 A 
ATOM      6  C   UNL     1      -0.818  12.284  21.020  0.00  0.00    +0.000 A 
ATOM      7  C   UNL     1       0.697  10.348  21.066  0.00  0.00    +0.000 C 
ATOM      8  O   UNL     1       0.616  10.332  22.296  0.00  0.00    +0.000 OA
ATOM      9  C   UNL     1       1.234   9.148  20.367  0.00  0.00    +0.000 A 
ATOM     10  C   UNL     1       1.411   7.999  21.161  0.00  0.00    +0.000 A 
ATOM     11  C   UNL     1       1.861   6.795  20.611  0.00  0.00    +0.000 A 
ATOM     12  C   UNL     1       2.117   6.698  19.245  0.00  0.00    +0.000 A 
ATOM     13  C   UNL     1       1.960   7.843  18.457  0.00  0.00    +0.000 A 
ATOM     14  C   UNL     1       1.535   9.063  19.006  0.00  0.00    +0.000 A 
ATOM     15  O   UNL     1       1.435  10.068  18.086  0.00  0.00    +0.000 OA
ATOM     16  C   UNL     1       1.907  11.327  18.552  0.00  0.00    +0.000 C 
ENDROOT
BRANCH   1  18
ATOM     17  N   UNL     1      -1.995  15.170  22.062  0.00  0.00    +0.000 N 
ATOM     18  C   UNL     1      -2.378  14.255  21.122  0.00  0.00    +0.000 C 
ATOM     19  O   UNL     1      -3.552  14.116  20.810  0.00  0.00    +0.000 OA
ATOM     20  H   UNL     1      -2.721  15.766  22.438  0.00  0.00    +0.000 HD
ATOM     21  H   UNL     1      -1.036  15.466  22.185  0.00  0.00    +0.000 HD
ENDBRANCH   1  18
BRANCH  12  22
ATOM     22  N   UNL     1       2.595   5.474  18.724  0.00  0.00    +0.000 N 
ATOM     23  H   UNL     1       2.155   4.696  19.210  0.00  0.00    +0.000 HD
BRANCH  22  24
ATOM     24  C   UNL     1       3.922   5.183  18.336  0.00  0.00    +0.000 A 
ATOM     25  C   UNL     1       4.971   5.337  19.246  0.00  0.00    +0.000 A 
ATOM     26  C   UNL     1       6.284   5.094  18.847  0.00  0.00    +0.000 A 
ATOM     27  C   UNL     1       6.559   4.659  17.549  0.00  0.00    +0.000 A 
ATOM     28  F   UNL     1       7.849   4.558  17.211  0.00  0.00    +0.000 F 
ATOM     29  C   UNL     1       5.526   4.413  16.642  0.00  0.00    +0.000 A 
ATOM     30  C   UNL     1       4.212   4.686  17.053  0.00  0.00    +0.000 A 
BRANCH  29  31
ATOM     31  N   UNL     1       5.668   3.926  15.324  0.00  0.00    +0.000 N 
ATOM     32  C   UNL     1       6.344   4.489  14.259  0.00  0.00    +0.000 C 
ATOM     33  O   UNL     1       6.976   5.538  14.300  0.00  0.00    +0.000 OA
ATOM     34  H   UNL     1       5.311   2.994  15.149  0.00  0.00    +0.000 HD
BRANCH  32  35
ATOM     35  C   UNL     1       6.307   3.690  13.030  0.00  0.00    +0.000 A 
ATOM     36  C   UNL     1       7.398   3.265  12.291  0.00  0.00    +0.000 A 
ATOM     37  C   UNL     1       7.030   2.456  11.178  0.00  0.00    +0.000 A 
ATOM     38  C   UNL     1       5.666   2.297  11.089  0.00  0.00    +0.000 A 
ATOM     39  S   UNL     1       4.840   3.130  12.332  0.00  0.00    +0.000 S 
ENDBRANCH  32  35
ENDBRANCH  29  31
ENDBRANCH  22  24
ENDBRANCH  12  22
TORSDOF 5
ENDMDL
MODEL 2
REMARK VINA RESULT:      -8.2      1.259      2.137
REMARK  Name = 
REMARK  5 active torsions:
REMARK  status: ('A' for Active; 'I' for Inactive)
REMARK    1  A    between atoms: C_2  and  C_4
REMARK    2  A    between atoms: C_15  and  N_16
REMARK    3  A    between atoms: N_16  and  C_17
REMARK    4  A    between atoms: C_22  and  N_23
REMARK    5  A    between atoms: C_24  and  C_26
REMARK                            x       y       z     vdW  Elec       q    Type
REMARK                         _______ _______ _______ _____ _____    ______ ____
ROOT
ATOM      1  C   UNL     1      -0.385  13.275  21.050  0.00  0.00    +0.000 A 
ATOM      2  C   UNL     1      -0.820  12.732  22.262  0.00  0.00    +0.000 A 
ATOM      3  C   UNL     1      -0.824  11.348  22.448  0.00  0.00    +0.000 A 
ATOM      4  C   UNL     1      -0.382  10.488  21.429  0.00  0.00    +0.000 A 
ATOM      5  C   UNL     1       0.092  11.036  20.232  0.00  0.00    +0.000 A 
ATOM      6  C   UNL     1       0.081  12.427  20.043  0.00  0.00    +0.000 A 
ATOM      7  C   UNL     1       0.558  10.208  19.098  0.00  0.00    +0.000 C 
ATOM      8  O   UNL     1       0.370  10.664  17.968  0.00  0.00    +0.000 OA
ATOM      9  C   UNL     1       1.257   8.900  19.235  0.00  0.00    +0.000 A 
ATOM     10  C   UNL     1       1.841   8.386  18.061  0.00  0.00    +0.000 A 
ATOM     11  C   UNL     1       2.567   7.191  18.072  0.00  0.00    +0.000 A 
ATOM     12  C   UNL     1       2.757   6.493  19.262  0.00  0.00    +0.000 A 
ATOM     13  C   UNL     1       2.162   6.992  20.426  0.00  0.00    +0.000 A 
ATOM     14  C   UNL     1       1.409   8.176  20.420  0.00  0.00    +0.000 A 
ATOM     15  O   UNL     1       0.910   8.510  21.647  0.00  0.00    +0.000 OA
ATOM     16  C   UNL     1      -0.424   9.005  21.614  0.00  0.00    +0.000 C 
ENDROOT
BRANCH   1  18
ATOM     17  N   UNL     1      -1.393  15.248  20.047  0.00  0.00    +0.000 N 
ATOM     18  C   UNL     1      -0.423  14.748  20.870  0.00  0.00    +0.000 C 
ATOM     19  O   UNL     1       0.354  15.485  21.462  0.00  0.00    +0.000 OA
ATOM     20  H   UNL     1      -1.475  16.256  20.002  0.00  0.00    +0.000 HD
ATOM     21  H   UNL     1      -2.178  14.700  19.723  0.00  0.00    +0.000 HD
ENDBRANCH   1  18
BRANCH  12  22
ATOM     22  N   UNL     1       3.475   5.275  19.235  0.00  0.00    +0.000 N 
ATOM     23  H   UNL     1       3.429   4.828  20.148  0.00  0.00    +0.000 HD
BRANCH  22  24
ATOM     24  C   UNL     1       4.702   5.035  18.580  0.00  0.00    +0.000 A 
ATOM     25  C   UNL     1       5.910   5.252  19.248  0.00  0.00    +0.000 A 
ATOM     26  C   UNL     1       7.121   5.057  18.584  0.00  0.00    +0.000 A 
ATOM     27  C   UNL     1       7.137   4.608  17.262  0.00  0.00    +0.000 A 
ATOM     28  F   UNL     1       8.331   4.557  16.662  0.00  0.00    +0.000 F 
ATOM     29  C   UNL     1       5.950   4.300  16.595  0.00  0.00    +0.000 A 
ATOM     30  C   UNL     1       4.740   4.525  17.271  0.00  0.00    +0.000 A 
BRANCH  29  31
ATOM     31  N   UNL     1       5.835   3.793  15.283  0.00  0.00    +0.000 N 
ATOM     32  C   UNL     1       6.307   4.331  14.100  0.00  0.00    +0.000 C 
ATOM     33  O   UNL     1       6.950   5.369  14.005  0.00  0.00    +0.000 OA
ATOM     34  H   UNL     1       5.439   2.865  15.193  0.00  0.00    +0.000 HD
BRANCH  32  35
ATOM     35  C   UNL     1       6.028   3.516  12.913  0.00  0.00    +0.000 A 
ATOM     36  C   UNL     1       6.924   2.696  12.249  0.00  0.00    +0.000 A 
ATOM     37  C   UNL     1       6.329   1.993  11.162  0.00  0.00    +0.000 A 
ATOM     38  C   UNL     1       4.997   2.307  11.018  0.00  0.00    +0.000 A 
ATOM     39  S   UNL     1       4.477   3.451  12.176  0.00  0.00    +0.000 S 
ENDBRANCH  32  35
ENDBRANCH  29  31
ENDBRANCH  22  24
ENDBRANCH  12  22
TORSDOF 5
ENDMDL
MODEL 3
REMARK VINA RESULT:      -8.1      2.951      4.002
REMARK  Name = 
REMARK  5 active torsions:
REMARK  status: ('A' for Active; 'I' for Inactive)
REMARK    1  A    between atoms: C_2  and  C_4
REMARK    2  A    between atoms: C_15  and  N_16
REMARK    3  A    between atoms: N_16  and  C_17
REMARK    4  A    between atoms: C_22  and  N_23
REMARK    5  A    between atoms: C_24  and  C_26
REMARK                            x       y       z     vdW  Elec       q    Type
REMARK                         _______ _______ _______ _____ _____    ______ ____
ROOT
ATOM      1  C   UNL     1       2.095  15.301  19.772  0.00  0.00    +0.000 A 
ATOM      2  C   UNL     1       1.386  15.485  20.961  0.00  0.00    +0.000 A 
ATOM      3  C   UNL     1       0.678  14.422  21.527  0.00  0.00    +0.000 A 
ATOM      4  C   UNL     1       0.681  13.156  20.917  0.00  0.00    +0.000 A 
ATOM      5  C   UNL     1       1.425  12.964  19.749  0.00  0.00    +0.000 A 
ATOM      6  C   UNL     1       2.123  14.038  19.175  0.00  0.00    +0.000 A 
ATOM      7  C   UNL     1       1.470  11.672  19.027  0.00  0.00    +0.000 C 
ATOM      8  O   UNL     1       1.593  11.730  17.801  0.00  0.00    +0.000 OA
ATOM      9  C   UNL     1       1.410  10.335  19.679  0.00  0.00    +0.000 A 
ATOM     10  C   UNL     1       1.715   9.233  18.858  0.00  0.00    +0.000 A 
ATOM     11  C   UNL     1       1.743   7.931  19.367  0.00  0.00    +0.000 A 
ATOM     12  C   UNL     1       1.496   7.697  20.718  0.00  0.00    +0.000 A 
ATOM     13  C   UNL     1       1.175   8.789  21.532  0.00  0.00    +0.000 A 
ATOM     14  C   UNL     1       1.118  10.096  21.025  0.00  0.00    +0.000 A 
ATOM     15  O   UNL     1       0.793  11.031  21.965  0.00  0.00    +0.000 OA
ATOM     16  C   UNL     1      -0.109  12.029  21.502  0.00  0.00    +0.000 C 
ENDROOT
BRANCH   1  18
ATOM     17  N   UNL     1       2.909  16.493  17.814  0.00  0.00    +0.000 N 
ATOM     18  C   UNL     1       2.810  16.457  19.177  0.00  0.00    +0.000 C 
ATOM     19  O   UNL     1       3.258  17.359  19.872  0.00  0.00    +0.000 OA
ATOM     20  H   UNL     1       3.313  17.328  17.410  0.00  0.00    +0.000 HD
ATOM     21  H   UNL     1       2.368  15.893  17.207  0.00  0.00    +0.000 HD
ENDBRANCH   1  18
BRANCH  12  22
ATOM     22  N   UNL     1       1.507   6.367  21.196  0.00  0.00    +0.000 N 
ATOM     23  H   UNL     1       1.973   6.329  22.100  0.00  0.00    +0.000 HD
BRANCH  22  24
ATOM     24  C   UNL     1       1.719   5.198  20.432  0.00  0.00    +0.000 A 
ATOM     25  C   UNL     1       0.987   4.039  20.701  0.00  0.00    +0.000 A 
ATOM     26  C   UNL     1       1.231   2.874  19.976  0.00  0.00    +0.000 A 
ATOM     27  C   UNL     1       2.179   2.865  18.952  0.00  0.00    +0.000 A 
ATOM     28  F   UNL     1       2.436   1.682  18.382  0.00  0.00    +0.000 F 
ATOM     29  C   UNL     1       2.866   4.029  18.601  0.00  0.00    +0.000 A 
ATOM     30  C   UNL     1       2.625   5.187  19.358  0.00  0.00    +0.000 A 
BRANCH  29  31
ATOM     31  N   UNL     1       3.808   4.162  17.558  0.00  0.00    +0.000 N 
ATOM     32  C   UNL     1       5.187   4.209  17.634  0.00  0.00    +0.000 C 
ATOM     33  O   UNL     1       5.840   4.114  18.667  0.00  0.00    +0.000 OA
ATOM     34  H   UNL     1       3.442   4.124  16.614  0.00  0.00    +0.000 HD
BRANCH  32  35
ATOM     35  C   UNL     1       5.859   4.328  16.336  0.00  0.00    +0.000 A 
ATOM     36  C   UNL     1       5.652   3.529  15.225  0.00  0.00    +0.000 A 
ATOM     37  C   UNL     1       6.422   3.938  14.099  0.00  0.00    +0.000 A 
ATOM     38  C   UNL     1       7.207   5.030  14.385  0.00  0.00    +0.000 A 
ATOM     39  S   UNL     1       7.025   5.546  16.004  0.00  0.00    +0.000 S 
ENDBRANCH  32  35
ENDBRANCH  29  31
ENDBRANCH  22  24
ENDBRANCH  12  22
TORSDOF 5
ENDMDL
MODEL 4
REMARK VINA RESULT:      -8.1      2.643      3.777
REMARK  Name = 
REMARK  5 active torsions:
REMARK  status: ('A' for Active; 'I' for Inactive)
REMARK    1  A    between atoms: C_2  and  C_4
REMARK    2  A    between atoms: C_15  and  N_16
REMARK    3  A    between atoms: N_16  and  C_17
REMARK    4  A    between atoms: C_22  and  N_23
REMARK    5  A    between atoms: C_24  and  C_26
REMARK                            x       y       z     vdW  Elec       q    Type
REMARK                         _______ _______ _______ _____ _____    ______ ____
ROOT
ATOM      1  C   UNL     1       1.099  15.498  20.370  0.00  0.00    +0.000 A 
ATOM      2  C   UNL     1       0.516  15.520  21.640  0.00  0.00    +0.000 A 
ATOM      3  C   UNL     1       0.007  14.344  22.196  0.00  0.00    +0.000 A 
ATOM      4  C   UNL     1       0.085  13.128  21.495  0.00  0.00    +0.000 A 
ATOM      5  C   UNL     1       0.707  13.103  20.242  0.00  0.00    +0.000 A 
ATOM      6  C   UNL     1       1.205  14.289  19.680  0.00  0.00    +0.000 A 
ATOM      7  C   UNL     1       0.817  11.874  19.424  0.00  0.00    +0.000 C 
ATOM      8  O   UNL     1       0.790  12.022  18.200  0.00  0.00    +0.000 OA
ATOM      9  C   UNL     1       0.988  10.502  19.976  0.00  0.00    +0.000 A 
ATOM     10  C   UNL     1       1.322   9.499  19.045  0.00  0.00    +0.000 A 
ATOM     11  C   UNL     1       1.559   8.181  19.448  0.00  0.00    +0.000 A 
ATOM     12  C   UNL     1       1.499   7.835  20.796  0.00  0.00    +0.000 A 
ATOM     13  C   UNL     1       1.149   8.826  21.721  0.00  0.00    +0.000 A 
ATOM     14  C   UNL     1       0.884  10.145  21.323  0.00  0.00    +0.000 A 
ATOM     15  O   UNL     1       0.563  10.973  22.361  0.00  0.00    +0.000 OA
ATOM     16  C   UNL     1      -0.496  11.878  22.074  0.00  0.00    +0.000 C 
ENDROOT
BRANCH   1  18
ATOM     17  N   UNL     1       0.997  17.215  18.650  0.00  0.00    +0.000 N 
ATOM     18  C   UNL     1       1.603  16.769  19.791  0.00  0.00    +0.000 C 
ATOM     19  O   UNL     1       2.493  17.410  20.333  0.00  0.00    +0.000 OA
ATOM     20  H   UNL     1       1.278  18.127  18.313  0.00  0.00    +0.000 HD
ATOM     21  H   UNL     1       0.126  16.836  18.304  0.00  0.00    +0.000 HD
ENDBRANCH   1  18
BRANCH  12  22
ATOM     22  N   UNL     1       1.718   6.489  21.168  0.00  0.00    +0.000 N 
ATOM     23  H   UNL     1       2.392   6.447  21.929  0.00  0.00    +0.000 HD
BRANCH  22  24
ATOM     24  C   UNL     1       1.819   5.380  20.300  0.00  0.00    +0.000 A 
ATOM     25  C   UNL     1       0.968   4.283  20.458  0.00  0.00    +0.000 A 
ATOM     26  C   UNL     1       1.100   3.171  19.628  0.00  0.00    +0.000 A 
ATOM     27  C   UNL     1       2.055   3.158  18.610  0.00  0.00    +0.000 A 
ATOM     28  F   UNL     1       2.195   2.013  17.934  0.00  0.00    +0.000 F 
ATOM     29  C   UNL     1       2.862   4.272  18.371  0.00  0.00    +0.000 A 
ATOM     30  C   UNL     1       2.732   5.374  19.231  0.00  0.00    +0.000 A 
BRANCH  29  31
ATOM     31  N   UNL     1       3.825   4.403  17.347  0.00  0.00    +0.000 N 
ATOM     32  C   UNL     1       5.196   4.247  17.420  0.00  0.00    +0.000 C 
ATOM     33  O   UNL     1       5.817   3.931  18.428  0.00  0.00    +0.000 OA
ATOM     34  H   UNL     1       3.468   4.536  16.408  0.00  0.00    +0.000 HD
BRANCH  32  35
ATOM     35  C   UNL     1       5.893   4.433  16.143  0.00  0.00    +0.000 A 
ATOM     36  C   UNL     1       7.013   5.217  15.924  0.00  0.00    +0.000 A 
ATOM     37  C   UNL     1       7.486   5.144  14.582  0.00  0.00    +0.000 A 
ATOM     38  C   UNL     1       6.704   4.317  13.809  0.00  0.00    +0.000 A 
ATOM     39  S   UNL     1       5.405   3.648  14.696  0.00  0.00    +0.000 S 
ENDBRANCH  32  35
ENDBRANCH  29  31
ENDBRANCH  22  24
ENDBRANCH  12  22
TORSDOF 5
ENDMDL
MODEL 5
REMARK VINA RESULT:      -8.0      1.974      2.955
REMARK  Name = 
REMARK  5 active torsions:
REMARK  status: ('A' for Active; 'I' for Inactive)
REMARK    1  A    between atoms: C_2  and  C_4
REMARK    2  A    between atoms: C_15  and  N_16
REMARK    3  A    between atoms: N_16  and  C_17
REMARK    4  A    between atoms: C_22  and  N_23
REMARK    5  A    between atoms: C_24  and  C_26
REMARK                            x       y       z     vdW  Elec       q    Type
REMARK                         _______ _______ _______ _____ _____    ______ ____
ROOT
ATOM      1  C   UNL     1      -1.037  14.803  20.483  0.00  0.00    +0.000 A 
ATOM      2  C   UNL     1      -1.177  14.635  21.864  0.00  0.00    +0.000 A 
ATOM      3  C   UNL     1      -1.062  13.363  22.430  0.00  0.00    +0.000 A 
ATOM      4  C   UNL     1      -0.793  12.244  21.625  0.00  0.00    +0.000 A 
ATOM      5  C   UNL     1      -0.611  12.421  20.249  0.00  0.00    +0.000 A 
ATOM      6  C   UNL     1      -0.742  13.698  19.681  0.00  0.00    +0.000 A 
ATOM      7  C   UNL     1      -0.345  11.298  19.322  0.00  0.00    +0.000 C 
ATOM      8  O   UNL     1      -0.791  11.410  18.178  0.00  0.00    +0.000 OA
ATOM      9  C   UNL     1       0.442  10.082  19.669  0.00  0.00    +0.000 A 
ATOM     10  C   UNL     1       0.797   9.248  18.592  0.00  0.00    +0.000 A 
ATOM     11  C   UNL     1       1.578   8.104  18.783  0.00  0.00    +0.000 A 
ATOM     12  C   UNL     1       2.052   7.778  20.051  0.00  0.00    +0.000 A 
ATOM     13  C   UNL     1       1.685   8.595  21.127  0.00  0.00    +0.000 A 
ATOM     14  C   UNL     1       0.880   9.731  20.949  0.00  0.00    +0.000 A 
ATOM     15  O   UNL     1       0.629  10.407  22.109  0.00  0.00    +0.000 OA
ATOM     16  C   UNL     1      -0.709  10.877  22.227  0.00  0.00    +0.000 C 
ENDROOT
BRANCH   1  18
ATOM     17  N   UNL     1      -0.954  16.300  18.569  0.00  0.00    +0.000 N 
ATOM     18  C   UNL     1      -1.197  16.161  19.906  0.00  0.00    +0.000 C 
ATOM     19  O   UNL     1      -1.568  17.106  20.589  0.00  0.00    +0.000 OA
ATOM     20  H   UNL     1      -1.155  17.205  18.162  0.00  0.00    +0.000 HD
ATOM     21  H   UNL     1      -0.864  15.514  17.940  0.00  0.00    +0.000 HD
ENDBRANCH   1  18
BRANCH  12  22
ATOM     22  N   UNL     1       2.817   6.601  20.215  0.00  0.00    +0.000 N 
ATOM     23  H   UNL     1       3.763   6.843  20.503  0.00  0.00    +0.000 HD
BRANCH  22  24
ATOM     24  C   UNL     1       2.781   5.451  19.397  0.00  0.00    +0.000 A 
ATOM     25  C   UNL     1       1.938   4.385  19.719  0.00  0.00    +0.000 A 
ATOM     26  C   UNL     1       1.938   3.232  18.935  0.00  0.00    +0.000 A 
ATOM     27  C   UNL     1       2.750   3.148  17.802  0.00  0.00    +0.000 A 
ATOM     28  F   UNL     1       2.778   1.970  17.171  0.00  0.00    +0.000 F 
ATOM     29  C   UNL     1       3.540   4.229  17.405  0.00  0.00    +0.000 A 
ATOM     30  C   UNL     1       3.545   5.372  18.220  0.00  0.00    +0.000 A 
BRANCH  29  31
ATOM     31  N   UNL     1       4.362   4.288  16.259  0.00  0.00    +0.000 N 
ATOM     32  C   UNL     1       5.733   4.437  16.181  0.00  0.00    +0.000 C 
ATOM     33  O   UNL     1       6.489   4.522  17.142  0.00  0.00    +0.000 OA
ATOM     34  H   UNL     1       3.910   4.102  15.372  0.00  0.00    +0.000 HD
BRANCH  32  35
ATOM     35  C   UNL     1       6.265   4.430  14.815  0.00  0.00    +0.000 A 
ATOM     36  C   UNL     1       7.354   5.148  14.351  0.00  0.00    +0.000 A 
ATOM     37  C   UNL     1       7.651   4.881  12.984  0.00  0.00    +0.000 A 
ATOM     38  C   UNL     1       6.772   3.976  12.437  0.00  0.00    +0.000 A 
ATOM     39  S   UNL     1       5.591   3.467  13.562  0.00  0.00    +0.000 S 
ENDBRANCH  32  35
ENDBRANCH  29  31
ENDBRANCH  22  24
ENDBRANCH  12  22
TORSDOF 5
ENDMDL
MODEL 6
REMARK VINA RESULT:      -8.0      2.544      3.769
REMARK  Name = 
REMARK  5 active torsions:
REMARK  status: ('A' for Active; 'I' for Inactive)
REMARK    1  A    between atoms: C_2  and  C_4
REMARK    2  A    between atoms: C_15  and  N_16
REMARK    3  A    between atoms: N_16  and  C_17
REMARK    4  A    between atoms: C_22  and  N_23
REMARK    5  A    between atoms: C_24  and  C_26
REMARK                            x       y       z     vdW  Elec       q    Type
REMARK                         _______ _______ _______ _____ _____    ______ ____
ROOT
ATOM      1  C   UNL     1      -0.082  15.543  21.050  0.00  0.00    +0.000 A 
ATOM      2  C   UNL     1      -0.606  15.414  22.339  0.00  0.00    +0.000 A 
ATOM      3  C   UNL     1      -0.925  14.150  22.842  0.00  0.00    +0.000 A 
ATOM      4  C   UNL     1      -0.711  12.998  22.067  0.00  0.00    +0.000 A 
ATOM      5  C   UNL     1      -0.147  13.126  20.794  0.00  0.00    +0.000 A 
ATOM      6  C   UNL     1       0.158  14.399  20.285  0.00  0.00    +0.000 A 
ATOM      7  C   UNL     1       0.094  11.971  19.900  0.00  0.00    +0.000 C 
ATOM      8  O   UNL     1      -0.007  12.180  18.689  0.00  0.00    +0.000 OA
ATOM      9  C   UNL     1       0.476  10.609  20.363  0.00  0.00    +0.000 A 
ATOM     10  C   UNL     1       0.903   9.714  19.363  0.00  0.00    +0.000 A 
ATOM     11  C   UNL     1       1.335   8.422  19.678  0.00  0.00    +0.000 A 
ATOM     12  C   UNL     1       1.383   7.999  21.004  0.00  0.00    +0.000 A 
ATOM     13  C   UNL     1       0.941   8.879  21.998  0.00  0.00    +0.000 A 
ATOM     14  C   UNL     1       0.481  10.168  21.689  0.00  0.00    +0.000 A 
ATOM     15  O   UNL     1       0.095  10.886  22.786  0.00  0.00    +0.000 OA
ATOM     16  C   UNL     1      -1.090  11.649  22.591  0.00  0.00    +0.000 C 
ENDROOT
BRANCH   1  18
ATOM     17  N   UNL     1      -0.081  17.144  19.219  0.00  0.00    +0.000 N 
ATOM     18  C   UNL     1       0.217  16.901  20.530  0.00  0.00    +0.000 C 
ATOM     19  O   UNL     1       0.672  17.777  21.253  0.00  0.00    +0.000 OA
ATOM     20  H   UNL     1       0.035  18.096  18.895  0.00  0.00    +0.000 HD
ATOM     21  H   UNL     1      -0.654  16.526  18.660  0.00  0.00    +0.000 HD
ENDBRANCH   1  18
BRANCH  12  22
ATOM     22  N   UNL     1       1.801   6.678  21.287  0.00  0.00    +0.000 N 
ATOM     23  H   UNL     1       2.647   6.698  21.851  0.00  0.00    +0.000 HD
BRANCH  22  24
ATOM     24  C   UNL     1       1.769   5.576  20.405  0.00  0.00    +0.000 A 
ATOM     25  C   UNL     1       0.848   4.544  20.602  0.00  0.00    +0.000 A 
ATOM     26  C   UNL     1       0.849   3.435  19.755  0.00  0.00    +0.000 A 
ATOM     27  C   UNL     1       1.742   3.365  18.684  0.00  0.00    +0.000 A 
ATOM     28  F   UNL     1       1.758   2.221  17.991  0.00  0.00    +0.000 F 
ATOM     29  C   UNL     1       2.616   4.419  18.410  0.00  0.00    +0.000 A 
ATOM     30  C   UNL     1       2.617   5.516  19.286  0.00  0.00    +0.000 A 
BRANCH  29  31
ATOM     31  N   UNL     1       3.527   4.492  17.334  0.00  0.00    +0.000 N 
ATOM     32  C   UNL     1       4.882   4.223  17.325  0.00  0.00    +0.000 C 
ATOM     33  O   UNL     1       5.531   3.838  18.291  0.00  0.00    +0.000 OA
ATOM     34  H   UNL     1       3.129   4.671  16.420  0.00  0.00    +0.000 HD
BRANCH  32  35
ATOM     35  C   UNL     1       5.519   4.377  16.013  0.00  0.00    +0.000 A 
ATOM     36  C   UNL     1       6.045   3.364  15.229  0.00  0.00    +0.000 A 
ATOM     37  C   UNL     1       6.545   3.834  13.981  0.00  0.00    +0.000 A 
ATOM     38  C   UNL     1       6.400   5.196  13.852  0.00  0.00    +0.000 A 
ATOM     39  S   UNL     1       5.680   5.899  15.233  0.00  0.00    +0.000 S 
ENDBRANCH  32  35
ENDBRANCH  29  31
ENDBRANCH  22  24
ENDBRANCH  12  22
TORSDOF 5
ENDMDL
MODEL 7
REMARK VINA RESULT:      -8.0      4.924     11.083
REMARK  Name = 
REMARK  5 active torsions:
REMARK  status: ('A' for Active; 'I' for Inactive)
REMARK    1  A    between atoms: C_2  and  C_4
REMARK    2  A    between atoms: C_15  and  N_16
REMARK    3  A    between atoms: N_16  and  C_17
REMARK    4  A    between atoms: C_22  and  N_23
REMARK    5  A    between atoms: C_24  and  C_26
REMARK                            x       y       z     vdW  Elec       q    Type
REMARK                         _______ _______ _______ _____ _____    ______ ____
ROOT
ATOM      1  C   UNL     1       4.427   5.781  18.413  0.00  0.00    +0.000 A 
ATOM      2  C   UNL     1       4.445   6.666  17.332  0.00  0.00    +0.000 A 
ATOM      3  C   UNL     1       3.500   7.692  17.251  0.00  0.00    +0.000 A 
ATOM      4  C   UNL     1       2.532   7.854  18.256  0.00  0.00    +0.000 A 
ATOM      5  C   UNL     1       2.542   6.992  19.358  0.00  0.00    +0.000 A 
ATOM      6  C   UNL     1       3.484   5.953  19.430  0.00  0.00    +0.000 A 
ATOM      7  C   UNL     1       1.549   7.074  20.452  0.00  0.00    +0.000 C 
ATOM      8  O   UNL     1       1.240   6.012  20.997  0.00  0.00    +0.000 OA
ATOM      9  C   UNL     1       0.939   8.339  20.948  0.00  0.00    +0.000 A 
ATOM     10  C   UNL     1       0.212   8.244  22.150  0.00  0.00    +0.000 A 
ATOM     11  C   UNL     1      -0.366   9.370  22.744  0.00  0.00    +0.000 A 
ATOM     12  C   UNL     1      -0.206  10.629  22.168  0.00  0.00    +0.000 A 
ATOM     13  C   UNL     1       0.500  10.723  20.964  0.00  0.00    +0.000 A 
ATOM     14  C   UNL     1       1.060   9.594  20.348  0.00  0.00    +0.000 A 
ATOM     15  O   UNL     1       1.716   9.879  19.183  0.00  0.00    +0.000 OA
ATOM     16  C   UNL     1       1.496   8.927  18.148  0.00  0.00    +0.000 C 
ENDROOT
BRANCH   1  18
ATOM     17  N   UNL     1       5.103   3.528  17.797  0.00  0.00    +0.000 N 
ATOM     18  C   UNL     1       5.423   4.681  18.456  0.00  0.00    +0.000 C 
ATOM     19  O   UNL     1       6.498   4.814  19.023  0.00  0.00    +0.000 OA
ATOM     20  H   UNL     1       5.823   2.817  17.748  0.00  0.00    +0.000 HD
ATOM     21  H   UNL     1       4.336   3.461  17.142  0.00  0.00    +0.000 HD
ENDBRANCH   1  18
BRANCH  12  22
ATOM     22  N   UNL     1      -0.824  11.744  22.779  0.00  0.00    +0.000 N 
ATOM     23  H   UNL     1      -1.086  11.513  23.735  0.00  0.00    +0.000 HD
BRANCH  22  24
ATOM     24  C   UNL     1      -1.732  12.641  22.175  0.00  0.00    +0.000 A 
ATOM     25  C   UNL     1      -3.092  12.582  22.489  0.00  0.00    +0.000 A 
ATOM     26  C   UNL     1      -3.993  13.439  21.857  0.00  0.00    +0.000 A 
ATOM     27  C   UNL     1      -3.541  14.384  20.935  0.00  0.00    +0.000 A 
ATOM     28  F   UNL     1      -4.477  15.087  20.289  0.00  0.00    +0.000 F 
ATOM     29  C   UNL     1      -2.179  14.526  20.663  0.00  0.00    +0.000 A 
ATOM     30  C   UNL     1      -1.289  13.639  21.291  0.00  0.00    +0.000 A 
BRANCH  29  31
ATOM     31  N   UNL     1      -1.592  15.471  19.794  0.00  0.00    +0.000 N 
ATOM     32  C   UNL     1      -0.259  15.795  19.636  0.00  0.00    +0.000 C 
ATOM     33  O   UNL     1       0.671  15.269  20.238  0.00  0.00    +0.000 OA
ATOM     34  H   UNL     1      -2.213  15.910  19.124  0.00  0.00    +0.000 HD
BRANCH  32  35
ATOM     35  C   UNL     1      -0.002  16.814  18.614  0.00  0.00    +0.000 A 
ATOM     36  C   UNL     1      -0.954  17.535  17.912  0.00  0.00    +0.000 A 
ATOM     37  C   UNL     1      -0.381  18.492  17.027  0.00  0.00    +0.000 A 
ATOM     38  C   UNL     1       0.994  18.467  17.066  0.00  0.00    +0.000 A 
ATOM     39  S   UNL     1       1.584  17.287  18.152  0.00  0.00    +0.000 S 
ENDBRANCH  32  35
ENDBRANCH  29  31
ENDBRANCH  22  24
ENDBRANCH  12  22
TORSDOF 5
ENDMDL
MODEL 8
REMARK VINA RESULT:      -8.0      3.283      4.319
REMARK  Name = 
REMARK  5 active torsions:
REMARK  status: ('A' for Active; 'I' for Inactive)
REMARK    1  A    between atoms: C_2  and  C_4
REMARK    2  A    between atoms: C_15  and  N_16
REMARK    3  A    between atoms: N_16  and  C_17
REMARK    4  A    between atoms: C_22  and  N_23
REMARK    5  A    between atoms: C_24  and  C_26
REMARK                            x       y       z     vdW  Elec       q    Type
REMARK                         _______ _______ _______ _____ _____    ______ ____
ROOT
ATOM      1  C   UNL     1      -5.840  12.437  18.214  0.00  0.00    +0.000 A 
ATOM      2  C   UNL     1      -5.585  11.969  16.922  0.00  0.00    +0.000 A 
ATOM      3  C   UNL     1      -4.300  11.545  16.572  0.00  0.00    +0.000 A 
ATOM      4  C   UNL     1      -3.257  11.572  17.513  0.00  0.00    +0.000 A 
ATOM      5  C   UNL     1      -3.525  12.002  18.817  0.00  0.00    +0.000 A 
ATOM      6  C   UNL     1      -4.814  12.441  19.161  0.00  0.00    +0.000 A 
ATOM      7  C   UNL     1      -2.486  12.084  19.867  0.00  0.00    +0.000 C 
ATOM      8  O   UNL     1      -2.618  12.978  20.706  0.00  0.00    +0.000 OA
ATOM      9  C   UNL     1      -1.333  11.150  19.991  0.00  0.00    +0.000 A 
ATOM     10  C   UNL     1      -0.596  11.233  21.189  0.00  0.00    +0.000 A 
ATOM     11  C   UNL     1       0.477  10.375  21.445  0.00  0.00    +0.000 A 
ATOM     12  C   UNL     1       0.826   9.389  20.525  0.00  0.00    +0.000 A 
ATOM     13  C   UNL     1       0.108   9.316  19.326  0.00  0.00    +0.000 A 
ATOM     14  C   UNL     1      -0.954  10.190  19.049  0.00  0.00    +0.000 A 
ATOM     15  O   UNL     1      -1.539   9.969  17.834  0.00  0.00    +0.000 OA
ATOM     16  C   UNL     1      -1.873  11.157  17.127  0.00  0.00    +0.000 C 
ENDROOT
BRANCH   1  18
ATOM     17  N   UNL     1      -7.720  12.527  19.754  0.00  0.00    +0.000 N 
ATOM     18  C   UNL     1      -7.207  12.910  18.547  0.00  0.00    +0.000 C 
ATOM     19  O   UNL     1      -7.831  13.643  17.792  0.00  0.00    +0.000 OA
ATOM     20  H   UNL     1      -8.611  12.929  20.017  0.00  0.00    +0.000 HD
ATOM     21  H   UNL     1      -7.158  12.115  20.486  0.00  0.00    +0.000 HD
ENDBRANCH   1  18
BRANCH  12  22
ATOM     22  N   UNL     1       1.933   8.554  20.802  0.00  0.00    +0.000 N 
ATOM     23  H   UNL     1       2.797   9.082  20.702  0.00  0.00    +0.000 HD
BRANCH  22  24
ATOM     24  C   UNL     1       2.083   7.201  20.425  0.00  0.00    +0.000 A 
ATOM     25  C   UNL     1       1.297   6.213  21.024  0.00  0.00    +0.000 A 
ATOM     26  C   UNL     1       1.479   4.873  20.683  0.00  0.00    +0.000 A 
ATOM     27  C   UNL     1       2.419   4.512  19.716  0.00  0.00    +0.000 A 
ATOM     28  F   UNL     1       2.614   3.202  19.529  0.00  0.00    +0.000 F 
ATOM     29  C   UNL     1       3.159   5.483  19.037  0.00  0.00    +0.000 A 
ATOM     30  C   UNL     1       2.979   6.824  19.410  0.00  0.00    +0.000 A 
BRANCH  29  31
ATOM     31  N   UNL     1       4.098   5.252  18.009  0.00  0.00    +0.000 N 
ATOM     32  C   UNL     1       3.982   4.450  16.890  0.00  0.00    +0.000 C 
ATOM     33  O   UNL     1       2.987   3.800  16.589  0.00  0.00    +0.000 OA
ATOM     34  H   UNL     1       4.938   5.819  18.033  0.00  0.00    +0.000 HD
BRANCH  32  35
ATOM     35  C   UNL     1       5.155   4.467  16.011  0.00  0.00    +0.000 A 
ATOM     36  C   UNL     1       5.261   3.865  14.769  0.00  0.00    +0.000 A 
ATOM     37  C   UNL     1       6.515   4.113  14.139  0.00  0.00    +0.000 A 
ATOM     38  C   UNL     1       7.337   4.886  14.925  0.00  0.00    +0.000 A 
ATOM     39  S   UNL     1       6.605   5.295  16.414  0.00  0.00    +0.000 S 
ENDBRANCH  32  35
ENDBRANCH  29  31
ENDBRANCH  22  24
ENDBRANCH  12  22
TORSDOF 5
ENDMDL
MODEL 9
REMARK VINA RESULT:      -8.0      1.970      2.984
REMARK  Name = 
REMARK  5 active torsions:
REMARK  status: ('A' for Active; 'I' for Inactive)
REMARK    1  A    between atoms: C_2  and  C_4
REMARK    2  A    between atoms: C_15  and  N_16
REMARK    3  A    between atoms: N_16  and  C_17
REMARK    4  A    between atoms: C_22  and  N_23
REMARK    5  A    between atoms: C_24  and  C_26
REMARK                            x       y       z     vdW  Elec       q    Type
REMARK                         _______ _______ _______ _____ _____    ______ ____
ROOT
ATOM      1  C   UNL     1      -1.879  14.317  21.319  0.00  0.00    +0.000 A 
ATOM      2  C   UNL     1      -1.911  13.989  22.677  0.00  0.00    +0.000 A 
ATOM      3  C   UNL     1      -1.601  12.691  23.091  0.00  0.00    +0.000 A 
ATOM      4  C   UNL     1      -1.243  11.708  22.153  0.00  0.00    +0.000 A 
ATOM      5  C   UNL     1      -1.172  12.050  20.799  0.00  0.00    +0.000 A 
ATOM      6  C   UNL     1      -1.498  13.352  20.385  0.00  0.00    +0.000 A 
ATOM      7  C   UNL     1      -0.825  11.077  19.740  0.00  0.00    +0.000 C 
ATOM      8  O   UNL     1      -1.352  11.248  18.638  0.00  0.00    +0.000 OA
ATOM      9  C   UNL     1       0.129   9.946  19.909  0.00  0.00    +0.000 A 
ATOM     10  C   UNL     1       0.518   9.283  18.729  0.00  0.00    +0.000 A 
ATOM     11  C   UNL     1       1.447   8.239  18.752  0.00  0.00    +0.000 A 
ATOM     12  C   UNL     1       2.037   7.847  19.952  0.00  0.00    +0.000 A 
ATOM     13  C   UNL     1       1.638   8.491  21.129  0.00  0.00    +0.000 A 
ATOM     14  C   UNL     1       0.687   9.523  21.118  0.00  0.00    +0.000 A 
ATOM     15  O   UNL     1       0.426  10.034  22.358  0.00  0.00    +0.000 OA
ATOM     16  C   UNL     1      -0.951  10.309  22.593  0.00  0.00    +0.000 C 
ENDROOT
BRANCH   1  18
ATOM     17  N   UNL     1      -1.583  16.218  19.832  0.00  0.00    +0.000 N 
ATOM     18  C   UNL     1      -2.245  15.696  20.907  0.00  0.00    +0.000 C 
ATOM     19  O   UNL     1      -3.126  16.322  21.478  0.00  0.00    +0.000 OA
ATOM     20  H   UNL     1      -1.901  17.119  19.496  0.00  0.00    +0.000 HD
ATOM     21  H   UNL     1      -1.017  15.660  19.208  0.00  0.00    +0.000 HD
ENDBRANCH   1  18
BRANCH  12  22
ATOM     22  N   UNL     1       2.954   6.771  19.945  0.00  0.00    +0.000 N 
ATOM     23  H   UNL     1       3.906   7.130  19.919  0.00  0.00    +0.000 HD
BRANCH  22  24
ATOM     24  C   UNL     1       2.819   5.553  19.244  0.00  0.00    +0.000 A 
ATOM     25  C   UNL     1       1.947   4.566  19.712  0.00  0.00    +0.000 A 
ATOM     26  C   UNL     1       1.849   3.346  19.043  0.00  0.00    +0.000 A 
ATOM     27  C   UNL     1       2.591   3.115  17.883  0.00  0.00    +0.000 A 
ATOM     28  F   UNL     1       2.529   1.883  17.367  0.00  0.00    +0.000 F 
ATOM     29  C   UNL     1       3.405   4.112  17.343  0.00  0.00    +0.000 A 
ATOM     30  C   UNL     1       3.510   5.325  18.042  0.00  0.00    +0.000 A 
BRANCH  29  31
ATOM     31  N   UNL     1       4.163   4.022  16.155  0.00  0.00    +0.000 N 
ATOM     32  C   UNL     1       5.239   4.788  15.751  0.00  0.00    +0.000 C 
ATOM     33  O   UNL     1       5.743   5.694  16.404  0.00  0.00    +0.000 OA
ATOM     34  H   UNL     1       3.961   3.232  15.552  0.00  0.00    +0.000 HD
BRANCH  32  35
ATOM     35  C   UNL     1       5.807   4.396  14.457  0.00  0.00    +0.000 A 
ATOM     36  C   UNL     1       5.185   3.638  13.480  0.00  0.00    +0.000 A 
ATOM     37  C   UNL     1       5.984   3.478  12.312  0.00  0.00    +0.000 A 
ATOM     38  C   UNL     1       7.201   4.108  12.434  0.00  0.00    +0.000 A 
ATOM     39  S   UNL     1       7.380   4.871  13.953  0.00  0.00    +0.000 S 
ENDBRANCH  32  35
ENDBRANCH  29  31
ENDBRANCH  22  24
ENDBRANCH  12  22
TORSDOF 5
ENDMDL
