MODEL 1
REMARK VINA RESULT:      -5.7      0.000      0.000
REMARK  Name = 
REMARK  10 active torsions:
REMARK  status: ('A' for Active; 'I' for Inactive)
REMARK    1  A    between atoms: C_1  and  S_2
REMARK    2  A    between atoms: S_2  and  C_3
REMARK    3  A    between atoms: C_3  and  C_4
REMARK    4  A    between atoms: C_4  and  C_5
REMARK    5  A    between atoms: C_4  and  N_8
REMARK    6  A    between atoms: C_5  and  C_6
REMARK    7  A    between atoms: C_6  and  O_7
REMARK    8  A    between atoms: N_11  and  C_12
REMARK    9  A    between atoms: C_14  and  C_15
REMARK   10  A    between atoms: C_18  and  C_19
REMARK                            x       y       z     vdW  Elec       q    Type
REMARK                         _______ _______ _______ _____ _____    ______ ____
ROOT
ATOM      1  N   UNL     1       3.375   5.071  19.608  0.00  0.00    +0.000 N 
ATOM      2  C   UNL     1       2.277   5.859  19.895  0.00  0.00    +0.000 C 
ATOM      3  O   UNL     1       1.154   5.371  19.924  0.00  0.00    +0.000 OA
ATOM      4  N   UNL     1       2.606   7.183  20.073  0.00  0.00    +0.000 N 
ATOM      5  H   UNL     1       4.198   5.310  20.148  0.00  0.00    +0.000 HD
ATOM      6  H   UNL     1       3.547   7.443  19.809  0.00  0.00    +0.000 HD
ENDROOT
BRANCH   4   7
ATOM      7  C   UNL     1       1.685   8.235  20.309  0.00  0.00    +0.000 A 
ATOM      8  C   UNL     1       1.179   8.487  21.595  0.00  0.00    +0.000 A 
ATOM      9  C   UNL     1       0.203   9.458  21.838  0.00  0.00    +0.000 A 
ATOM     10  C   UNL     1      -0.351   9.636  23.220  0.00  0.00    +0.000 C 
ATOM     11  C   UNL     1      -0.257  10.232  20.776  0.00  0.00    +0.000 A 
ATOM     12  C   UNL     1       0.264  10.033  19.496  0.00  0.00    +0.000 A 
ATOM     13  C   UNL     1       1.239   9.045  19.242  0.00  0.00    +0.000 A 
ATOM     14  C   UNL     1       1.748   8.891  17.837  0.00  0.00    +0.000 C 
ENDBRANCH   4   7
BRANCH   1  15
ATOM     15  C   UNL     1       3.156   3.631  19.367  0.00  0.00    +0.000 C 
BRANCH  15  16
ATOM     16  C   UNL     1       3.830   3.174  18.046  0.00  0.00    +0.000 C 
BRANCH  16  18
ATOM     17  C   UNL     1       6.235   4.489  17.609  0.00  0.00    +0.000 C 
ATOM     18  S   UNL     1       4.526   4.509  17.006  0.00  0.00    +0.000 S 
ENDBRANCH  16  18
ENDBRANCH  15  16
BRANCH  15  19
ATOM     19  C   UNL     1       3.579   2.800  20.596  0.00  0.00    +0.000 C 
BRANCH  19  20
ATOM     20  C   UNL     1       2.458   2.482  21.577  0.00  0.00    +0.000 C 
BRANCH  20  21
ATOM     21  O   UNL     1       1.194   2.828  21.025  0.00  0.00    +0.000 OA
ATOM     22  H   UNL     1       0.534   2.662  21.723  0.00  0.00    +0.000 HD
ENDBRANCH  20  21
ENDBRANCH  19  20
ENDBRANCH  15  19
ENDBRANCH   1  15
TORSDOF 7
ENDMDL
MODEL 2
REMARK VINA RESULT:      -5.6      1.441      1.568
REMARK  Name = 
REMARK  10 active torsions:
REMARK  status: ('A' for Active; 'I' for Inactive)
REMARK    1  A    between atoms: C_1  and  S_2
REMARK    2  A    between atoms: S_2  and  C_3
REMARK    3  A    between atoms: C_3  and  C_4
REMARK    4  A    between atoms: C_4  and  C_5
REMARK    5  A    between atoms: C_4  and  N_8
REMARK    6  A    between atoms: C_5  and  C_6
REMARK    7  A    between atoms: C_6  and  O_7
REMARK    8  A    between atoms: N_11  and  C_12
REMARK    9  A    between atoms: C_14  and  C_15
REMARK   10  A    between atoms: C_18  and  C_19
REMARK                            x       y       z     vdW  Elec       q    Type
REMARK                         _______ _______ _______ _____ _____    ______ ____
ROOT
ATOM      1  N   UNL     1       3.698   4.811  18.924  0.00  0.00    +0.000 N 
ATOM      2  C   UNL     1       2.615   5.666  18.977  0.00  0.00    +0.000 C 
ATOM      3  O   UNL     1       1.612   5.438  18.311  0.00  0.00    +0.000 OA
ATOM      4  N   UNL     1       2.838   6.758  19.785  0.00  0.00    +0.000 N 
ATOM      5  H   UNL     1       4.157   4.682  19.818  0.00  0.00    +0.000 HD
ATOM      6  H   UNL     1       3.792   6.892  20.091  0.00  0.00    +0.000 HD
ENDROOT
BRANCH   4   7
ATOM      7  C   UNL     1       1.937   7.837  19.978  0.00  0.00    +0.000 A 
ATOM      8  C   UNL     1       1.248   8.003  21.190  0.00  0.00    +0.000 A 
ATOM      9  C   UNL     1       0.289   9.003  21.374  0.00  0.00    +0.000 A 
ATOM     10  C   UNL     1      -0.466   9.091  22.667  0.00  0.00    +0.000 C 
ATOM     11  C   UNL     1       0.035   9.893  20.334  0.00  0.00    +0.000 A 
ATOM     12  C   UNL     1       0.741   9.778  19.135  0.00  0.00    +0.000 A 
ATOM     13  C   UNL     1       1.700   8.762  18.938  0.00  0.00    +0.000 A 
ATOM     14  C   UNL     1       2.416   8.703  17.619  0.00  0.00    +0.000 C 
ENDBRANCH   4   7
BRANCH   1  15
ATOM     15  C   UNL     1       3.599   3.612  18.070  0.00  0.00    +0.000 C 
BRANCH  15  16
ATOM     16  C   UNL     1       4.769   3.549  17.051  0.00  0.00    +0.000 C 
BRANCH  16  18
ATOM     17  C   UNL     1       7.091   4.436  15.813  0.00  0.00    +0.000 C 
ATOM     18  S   UNL     1       6.086   4.799  17.279  0.00  0.00    +0.000 S 
ENDBRANCH  16  18
ENDBRANCH  15  16
BRANCH  15  19
ATOM     19  C   UNL     1       3.459   2.338  18.928  0.00  0.00    +0.000 C 
BRANCH  19  20
ATOM     20  C   UNL     1       4.242   2.350  20.234  0.00  0.00    +0.000 C 
BRANCH  20  21
ATOM     21  O   UNL     1       5.361   1.476  20.157  0.00  0.00    +0.000 OA
ATOM     22  H   UNL     1       5.009   0.571  20.233  0.00  0.00    +0.000 HD
ENDBRANCH  20  21
ENDBRANCH  19  20
ENDBRANCH  15  19
ENDBRANCH   1  15
TORSDOF 7
ENDMDL
MODEL 3
REMARK VINA RESULT:      -5.4      0.996      1.096
REMARK  Name = 
REMARK  10 active torsions:
REMARK  status: ('A' for Active; 'I' for Inactive)
REMARK    1  A    between atoms: C_1  and  S_2
REMARK    2  A    between atoms: S_2  and  C_3
REMARK    3  A    between atoms: C_3  and  C_4
REMARK    4  A    between atoms: C_4  and  C_5
REMARK    5  A    between atoms: C_4  and  N_8
REMARK    6  A    between atoms: C_5  and  C_6
REMARK    7  A    between atoms: C_6  and  O_7
REMARK    8  A    between atoms: N_11  and  C_12
REMARK    9  A    between atoms: C_14  and  C_15
REMARK   10  A    between atoms: C_18  and  C_19
REMARK                            x       y       z     vdW  Elec       q    Type
REMARK                         _______ _______ _______ _____ _____    ______ ____
ROOT
ATOM      1  N   UNL     1       3.403   4.974  20.268  0.00  0.00    +0.000 N 
ATOM      2  C   UNL     1       2.415   5.840  19.841  0.00  0.00    +0.000 C 
ATOM      3  O   UNL     1       1.550   5.459  19.062  0.00  0.00    +0.000 OA
ATOM      4  N   UNL     1       2.572   7.113  20.342  0.00  0.00    +0.000 N 
ATOM      5  H   UNL     1       3.659   5.097  21.240  0.00  0.00    +0.000 HD
ATOM      6  H   UNL     1       3.453   7.301  20.800  0.00  0.00    +0.000 HD
ENDROOT
BRANCH   4   7
ATOM      7  C   UNL     1       1.755   8.228  20.025  0.00  0.00    +0.000 A 
ATOM      8  C   UNL     1       0.929   8.824  20.990  0.00  0.00    +0.000 A 
ATOM      9  C   UNL     1       0.047   9.865  20.682  0.00  0.00    +0.000 A 
ATOM     10  C   UNL     1      -0.862  10.418  21.738  0.00  0.00    +0.000 C 
ATOM     11  C   UNL     1       0.016  10.358  19.380  0.00  0.00    +0.000 A 
ATOM     12  C   UNL     1       0.862   9.814  18.412  0.00  0.00    +0.000 A 
ATOM     13  C   UNL     1       1.743   8.753  18.714  0.00  0.00    +0.000 A 
ATOM     14  C   UNL     1       2.620   8.220  17.617  0.00  0.00    +0.000 C 
ENDBRANCH   4   7
BRANCH   1  15
ATOM     15  C   UNL     1       3.367   3.581  19.780  0.00  0.00    +0.000 C 
BRANCH  15  16
ATOM     16  C   UNL     1       4.715   3.180  19.124  0.00  0.00    +0.000 C 
BRANCH  16  18
ATOM     17  C   UNL     1       4.595   4.805  16.876  0.00  0.00    +0.000 C 
ATOM     18  S   UNL     1       5.646   4.541  18.330  0.00  0.00    +0.000 S 
ENDBRANCH  16  18
ENDBRANCH  15  16
BRANCH  15  19
ATOM     19  C   UNL     1       2.916   2.621  20.900  0.00  0.00    +0.000 C 
BRANCH  19  20
ATOM     20  C   UNL     1       1.631   3.020  21.615  0.00  0.00    +0.000 C 
BRANCH  20  21
ATOM     21  O   UNL     1       0.543   3.068  20.701  0.00  0.00    +0.000 OA
ATOM     22  H   UNL     1      -0.179   2.554  21.106  0.00  0.00    +0.000 HD
ENDBRANCH  20  21
ENDBRANCH  19  20
ENDBRANCH  15  19
ENDBRANCH   1  15
TORSDOF 7
ENDMDL
MODEL 4
REMARK VINA RESULT:      -5.3      2.968      6.760
REMARK  Name = 
REMARK  10 active torsions:
REMARK  status: ('A' for Active; 'I' for Inactive)
REMARK    1  A    between atoms: C_1  and  S_2
REMARK    2  A    between atoms: S_2  and  C_3
REMARK    3  A    between atoms: C_3  and  C_4
REMARK    4  A    between atoms: C_4  and  C_5
REMARK    5  A    between atoms: C_4  and  N_8
REMARK    6  A    between atoms: C_5  and  C_6
REMARK    7  A    between atoms: C_6  and  O_7
REMARK    8  A    between atoms: N_11  and  C_12
REMARK    9  A    between atoms: C_14  and  C_15
REMARK   10  A    between atoms: C_18  and  C_19
REMARK                            x       y       z     vdW  Elec       q    Type
REMARK                         _______ _______ _______ _____ _____    ______ ____
ROOT
ATOM      1  N   UNL     1       1.581   7.859  20.633  0.00  0.00    +0.000 N 
ATOM      2  C   UNL     1       2.389   7.400  19.612  0.00  0.00    +0.000 C 
ATOM      3  O   UNL     1       2.631   8.111  18.644  0.00  0.00    +0.000 OA
ATOM      4  N   UNL     1       2.803   6.101  19.806  0.00  0.00    +0.000 N 
ATOM      5  H   UNL     1       1.884   7.567  21.554  0.00  0.00    +0.000 HD
ATOM      6  H   UNL     1       2.342   5.598  20.552  0.00  0.00    +0.000 HD
ENDROOT
BRANCH   4   7
ATOM      7  C   UNL     1       3.582   5.341  18.896  0.00  0.00    +0.000 A 
ATOM      8  C   UNL     1       4.984   5.408  18.905  0.00  0.00    +0.000 A 
ATOM      9  C   UNL     1       5.771   4.740  17.961  0.00  0.00    +0.000 A 
ATOM     10  C   UNL     1       7.262   4.902  17.975  0.00  0.00    +0.000 C 
ATOM     11  C   UNL     1       5.146   3.947  17.002  0.00  0.00    +0.000 A 
ATOM     12  C   UNL     1       3.755   3.827  17.001  0.00  0.00    +0.000 A 
ATOM     13  C   UNL     1       2.955   4.510  17.942  0.00  0.00    +0.000 A 
ATOM     14  C   UNL     1       1.465   4.332  17.875  0.00  0.00    +0.000 C 
ENDBRANCH   4   7
BRANCH   1  15
ATOM     15  C   UNL     1       1.045   9.232  20.534  0.00  0.00    +0.000 C 
BRANCH  15  16
ATOM     16  C   UNL     1      -0.322   9.249  19.799  0.00  0.00    +0.000 C 
BRANCH  16  18
ATOM     17  C   UNL     1      -1.795  10.056  17.588  0.00  0.00    +0.000 C 
ATOM     18  S   UNL     1      -0.687  10.762  18.837  0.00  0.00    +0.000 S 
ENDBRANCH  16  18
ENDBRANCH  15  16
BRANCH  15  19
ATOM     19  C   UNL     1       1.010   9.906  21.920  0.00  0.00    +0.000 C 
BRANCH  19  20
ATOM     20  C   UNL     1      -0.293   9.732  22.691  0.00  0.00    +0.000 C 
BRANCH  20  21
ATOM     21  O   UNL     1      -0.032   9.415  24.052  0.00  0.00    +0.000 OA
ATOM     22  H   UNL     1       0.184   8.465  24.077  0.00  0.00    +0.000 HD
ENDBRANCH  20  21
ENDBRANCH  19  20
ENDBRANCH  15  19
ENDBRANCH   1  15
TORSDOF 7
ENDMDL
MODEL 5
REMARK VINA RESULT:      -5.3      3.595      7.442
REMARK  Name = 
REMARK  10 active torsions:
REMARK  status: ('A' for Active; 'I' for Inactive)
REMARK    1  A    between atoms: C_1  and  S_2
REMARK    2  A    between atoms: S_2  and  C_3
REMARK    3  A    between atoms: C_3  and  C_4
REMARK    4  A    between atoms: C_4  and  C_5
REMARK    5  A    between atoms: C_4  and  N_8
REMARK    6  A    between atoms: C_5  and  C_6
REMARK    7  A    between atoms: C_6  and  O_7
REMARK    8  A    between atoms: N_11  and  C_12
REMARK    9  A    between atoms: C_14  and  C_15
REMARK   10  A    between atoms: C_18  and  C_19
REMARK                            x       y       z     vdW  Elec       q    Type
REMARK                         _______ _______ _______ _____ _____    ______ ____
ROOT
ATOM      1  N   UNL     1       1.309   9.410  19.464  0.00  0.00    +0.000 N 
ATOM      2  C   UNL     1       1.856   8.533  18.548  0.00  0.00    +0.000 C 
ATOM      3  O   UNL     1       1.723   8.729  17.346  0.00  0.00    +0.000 OA
ATOM      4  N   UNL     1       2.477   7.460  19.145  0.00  0.00    +0.000 N 
ATOM      5  H   UNL     1       1.893   9.563  20.277  0.00  0.00    +0.000 HD
ATOM      6  H   UNL     1       2.313   7.351  20.136  0.00  0.00    +0.000 HD
ENDROOT
BRANCH   4   7
ATOM      7  C   UNL     1       3.067   6.366  18.461  0.00  0.00    +0.000 A 
ATOM      8  C   UNL     1       4.068   6.563  17.497  0.00  0.00    +0.000 A 
ATOM      9  C   UNL     1       4.601   5.510  16.745  0.00  0.00    +0.000 A 
ATOM     10  C   UNL     1       5.620   5.788  15.681  0.00  0.00    +0.000 C 
ATOM     11  C   UNL     1       4.153   4.215  16.988  0.00  0.00    +0.000 A 
ATOM     12  C   UNL     1       3.191   3.987  17.974  0.00  0.00    +0.000 A 
ATOM     13  C   UNL     1       2.639   5.046  18.726  0.00  0.00    +0.000 A 
ATOM     14  C   UNL     1       1.607   4.720  19.768  0.00  0.00    +0.000 C 
ENDBRANCH   4   7
BRANCH   1  15
ATOM     15  C   UNL     1       0.589  10.594  18.953  0.00  0.00    +0.000 C 
BRANCH  15  16
ATOM     16  C   UNL     1      -0.833  10.694  19.567  0.00  0.00    +0.000 C 
BRANCH  16  18
ATOM     17  C   UNL     1      -1.842   9.937  17.094  0.00  0.00    +0.000 C 
ATOM     18  S   UNL     1      -2.170  11.148  18.403  0.00  0.00    +0.000 S 
ENDBRANCH  16  18
ENDBRANCH  15  16
BRANCH  15  19
ATOM     19  C   UNL     1       1.433  11.871  19.139  0.00  0.00    +0.000 C 
BRANCH  19  20
ATOM     20  C   UNL     1       2.539  12.070  18.110  0.00  0.00    +0.000 C 
BRANCH  20  21
ATOM     21  O   UNL     1       2.310  13.250  17.350  0.00  0.00    +0.000 OA
ATOM     22  H   UNL     1       3.169  13.496  16.960  0.00  0.00    +0.000 HD
ENDBRANCH  20  21
ENDBRANCH  19  20
ENDBRANCH  15  19
ENDBRANCH   1  15
TORSDOF 7
ENDMDL
MODEL 6
REMARK VINA RESULT:      -5.2      1.780      2.594
REMARK  Name = 
REMARK  10 active torsions:
REMARK  status: ('A' for Active; 'I' for Inactive)
REMARK    1  A    between atoms: C_1  and  S_2
REMARK    2  A    between atoms: S_2  and  C_3
REMARK    3  A    between atoms: C_3  and  C_4
REMARK    4  A    between atoms: C_4  and  C_5
REMARK    5  A    between atoms: C_4  and  N_8
REMARK    6  A    between atoms: C_5  and  C_6
REMARK    7  A    between atoms: C_6  and  O_7
REMARK    8  A    between atoms: N_11  and  C_12
REMARK    9  A    between atoms: C_14  and  C_15
REMARK   10  A    between atoms: C_18  and  C_19
REMARK                            x       y       z     vdW  Elec       q    Type
REMARK                         _______ _______ _______ _____ _____    ______ ____
ROOT
ATOM      1  N   UNL     1       3.434   5.581  19.484  0.00  0.00    +0.000 N 
ATOM      2  C   UNL     1       2.377   6.283  20.029  0.00  0.00    +0.000 C 
ATOM      3  O   UNL     1       1.438   5.688  20.544  0.00  0.00    +0.000 OA
ATOM      4  N   UNL     1       2.503   7.644  19.866  0.00  0.00    +0.000 N 
ATOM      5  H   UNL     1       4.335   6.018  19.638  0.00  0.00    +0.000 HD
ATOM      6  H   UNL     1       3.234   7.947  19.237  0.00  0.00    +0.000 HD
ENDROOT
BRANCH   4   7
ATOM      7  C   UNL     1       1.543   8.612  20.259  0.00  0.00    +0.000 A 
ATOM      8  C   UNL     1       1.095   8.696  21.587  0.00  0.00    +0.000 A 
ATOM      9  C   UNL     1       0.085   9.579  21.981  0.00  0.00    +0.000 A 
ATOM     10  C   UNL     1      -0.402   9.579  23.400  0.00  0.00    +0.000 C 
ATOM     11  C   UNL     1      -0.469  10.435  21.033  0.00  0.00    +0.000 A 
ATOM     12  C   UNL     1      -0.008  10.404  19.716  0.00  0.00    +0.000 A 
ATOM     13  C   UNL     1       1.001   9.504  19.309  0.00  0.00    +0.000 A 
ATOM     14  C   UNL     1       1.442   9.529  17.873  0.00  0.00    +0.000 C 
ENDBRANCH   4   7
BRANCH   1  15
ATOM     15  C   UNL     1       3.410   4.107  19.566  0.00  0.00    +0.000 C 
BRANCH  15  16
ATOM     16  C   UNL     1       2.383   3.506  18.569  0.00  0.00    +0.000 C 
BRANCH  16  18
ATOM     17  C   UNL     1       1.605   2.380  20.985  0.00  0.00    +0.000 C 
ATOM     18  S   UNL     1       1.381   2.114  19.205  0.00  0.00    +0.000 S 
ENDBRANCH  16  18
ENDBRANCH  15  16
BRANCH  15  19
ATOM     19  C   UNL     1       4.831   3.527  19.415  0.00  0.00    +0.000 C 
BRANCH  19  20
ATOM     20  C   UNL     1       5.794   4.382  18.602  0.00  0.00    +0.000 C 
BRANCH  20  21
ATOM     21  O   UNL     1       6.628   5.151  19.460  0.00  0.00    +0.000 OA
ATOM     22  H   UNL     1       7.424   5.374  18.943  0.00  0.00    +0.000 HD
ENDBRANCH  20  21
ENDBRANCH  19  20
ENDBRANCH  15  19
ENDBRANCH   1  15
TORSDOF 7
ENDMDL
MODEL 7
REMARK VINA RESULT:      -5.2      3.169      7.005
REMARK  Name = 
REMARK  10 active torsions:
REMARK  status: ('A' for Active; 'I' for Inactive)
REMARK    1  A    between atoms: C_1  and  S_2
REMARK    2  A    between atoms: S_2  and  C_3
REMARK    3  A    between atoms: C_3  and  C_4
REMARK    4  A    between atoms: C_4  and  C_5
REMARK    5  A    between atoms: C_4  and  N_8
REMARK    6  A    between atoms: C_5  and  C_6
REMARK    7  A    between atoms: C_6  and  O_7
REMARK    8  A    between atoms: N_11  and  C_12
REMARK    9  A    between atoms: C_14  and  C_15
REMARK   10  A    between atoms: C_18  and  C_19
REMARK                            x       y       z     vdW  Elec       q    Type
REMARK                         _______ _______ _______ _____ _____    ______ ____
ROOT
ATOM      1  N   UNL     1       0.904   9.106  20.914  0.00  0.00    +0.000 N 
ATOM      2  C   UNL     1       1.484   8.431  19.859  0.00  0.00    +0.000 C 
ATOM      3  O   UNL     1       1.487   8.920  18.736  0.00  0.00    +0.000 OA
ATOM      4  N   UNL     1       1.972   7.196  20.222  0.00  0.00    +0.000 N 
ATOM      5  H   UNL     1       1.410   9.009  21.786  0.00  0.00    +0.000 HD
ATOM      6  H   UNL     1       1.701   6.867  21.138  0.00  0.00    +0.000 HD
ENDROOT
BRANCH   4   7
ATOM      7  C   UNL     1       2.557   6.251  19.341  0.00  0.00    +0.000 A 
ATOM      8  C   UNL     1       3.524   6.634  18.398  0.00  0.00    +0.000 A 
ATOM      9  C   UNL     1       4.050   5.741  17.459  0.00  0.00    +0.000 A 
ATOM     10  C   UNL     1       5.030   6.222  16.431  0.00  0.00    +0.000 C 
ATOM     11  C   UNL     1       3.630   4.414  17.484  0.00  0.00    +0.000 A 
ATOM     12  C   UNL     1       2.704   3.996  18.441  0.00  0.00    +0.000 A 
ATOM     13  C   UNL     1       2.160   4.896  19.382  0.00  0.00    +0.000 A 
ATOM     14  C   UNL     1       1.166   4.371  20.380  0.00  0.00    +0.000 C 
ENDBRANCH   4   7
BRANCH   1  15
ATOM     15  C   UNL     1       0.317  10.435  20.653  0.00  0.00    +0.000 C 
BRANCH  15  16
ATOM     16  C   UNL     1      -0.826  10.349  19.606  0.00  0.00    +0.000 C 
BRANCH  16  18
ATOM     17  C   UNL     1      -2.933  12.134  19.324  0.00  0.00    +0.000 C 
ATOM     18  S   UNL     1      -1.231  11.911  18.742  0.00  0.00    +0.000 S 
ENDBRANCH  16  18
ENDBRANCH  15  16
BRANCH  15  19
ATOM     19  C   UNL     1      -0.105  11.116  21.972  0.00  0.00    +0.000 C 
BRANCH  19  20
ATOM     20  C   UNL     1      -0.649  10.175  23.039  0.00  0.00    +0.000 C 
BRANCH  20  21
ATOM     21  O   UNL     1       0.409   9.649  23.831  0.00  0.00    +0.000 OA
ATOM     22  H   UNL     1       0.112   8.774  24.141  0.00  0.00    +0.000 HD
ENDBRANCH  20  21
ENDBRANCH  19  20
ENDBRANCH  15  19
ENDBRANCH   1  15
TORSDOF 7
ENDMDL
MODEL 8
REMARK VINA RESULT:      -5.2      2.884      6.905
REMARK  Name = 
REMARK  10 active torsions:
REMARK  status: ('A' for Active; 'I' for Inactive)
REMARK    1  A    between atoms: C_1  and  S_2
REMARK    2  A    between atoms: S_2  and  C_3
REMARK    3  A    between atoms: C_3  and  C_4
REMARK    4  A    between atoms: C_4  and  C_5
REMARK    5  A    between atoms: C_4  and  N_8
REMARK    6  A    between atoms: C_5  and  C_6
REMARK    7  A    between atoms: C_6  and  O_7
REMARK    8  A    between atoms: N_11  and  C_12
REMARK    9  A    between atoms: C_14  and  C_15
REMARK   10  A    between atoms: C_18  and  C_19
REMARK                            x       y       z     vdW  Elec       q    Type
REMARK                         _______ _______ _______ _____ _____    ______ ____
ROOT
ATOM      1  N   UNL     1       2.536   5.160  18.437  0.00  0.00    +0.000 N 
ATOM      2  C   UNL     1       3.693   4.707  17.836  0.00  0.00    +0.000 C 
ATOM      3  O   UNL     1       4.365   3.831  18.366  0.00  0.00    +0.000 OA
ATOM      4  N   UNL     1       3.983   5.377  16.669  0.00  0.00    +0.000 N 
ATOM      5  H   UNL     1       1.790   5.363  17.783  0.00  0.00    +0.000 HD
ATOM      6  H   UNL     1       3.435   6.207  16.490  0.00  0.00    +0.000 HD
ENDROOT
BRANCH   4   7
ATOM      7  C   UNL     1       5.139   5.178  15.871  0.00  0.00    +0.000 A 
ATOM      8  C   UNL     1       5.076   4.474  14.659  0.00  0.00    +0.000 A 
ATOM      9  C   UNL     1       6.215   4.187  13.900  0.00  0.00    +0.000 A 
ATOM     10  C   UNL     1       6.096   3.371  12.646  0.00  0.00    +0.000 C 
ATOM     11  C   UNL     1       7.452   4.649  14.340  0.00  0.00    +0.000 A 
ATOM     12  C   UNL     1       7.535   5.392  15.519  0.00  0.00    +0.000 A 
ATOM     13  C   UNL     1       6.392   5.673  16.296  0.00  0.00    +0.000 A 
ATOM     14  C   UNL     1       6.564   6.476  17.554  0.00  0.00    +0.000 C 
ENDBRANCH   4   7
BRANCH   1  15
ATOM     15  C   UNL     1       2.125   4.542  19.714  0.00  0.00    +0.000 C 
BRANCH  15  16
ATOM     16  C   UNL     1       1.744   5.621  20.763  0.00  0.00    +0.000 C 
BRANCH  16  18
ATOM     17  C   UNL     1       0.874   8.172  21.429  0.00  0.00    +0.000 C 
ATOM     18  S   UNL     1       1.967   7.358  20.233  0.00  0.00    +0.000 S 
ENDBRANCH  16  18
ENDBRANCH  15  16
BRANCH  15  19
ATOM     19  C   UNL     1       1.021   3.490  19.482  0.00  0.00    +0.000 C 
BRANCH  19  20
ATOM     20  C   UNL     1       1.514   2.055  19.350  0.00  0.00    +0.000 C 
BRANCH  20  21
ATOM     21  O   UNL     1       2.071   1.832  18.060  0.00  0.00    +0.000 OA
ATOM     22  H   UNL     1       1.322   1.636  17.468  0.00  0.00    +0.000 HD
ENDBRANCH  20  21
ENDBRANCH  19  20
ENDBRANCH  15  19
ENDBRANCH   1  15
TORSDOF 7
ENDMDL
MODEL 9
REMARK VINA RESULT:      -5.2      3.395      7.250
REMARK  Name = 
REMARK  10 active torsions:
REMARK  status: ('A' for Active; 'I' for Inactive)
REMARK    1  A    between atoms: C_1  and  S_2
REMARK    2  A    between atoms: S_2  and  C_3
REMARK    3  A    between atoms: C_3  and  C_4
REMARK    4  A    between atoms: C_4  and  C_5
REMARK    5  A    between atoms: C_4  and  N_8
REMARK    6  A    between atoms: C_5  and  C_6
REMARK    7  A    between atoms: C_6  and  O_7
REMARK    8  A    between atoms: N_11  and  C_12
REMARK    9  A    between atoms: C_14  and  C_15
REMARK   10  A    between atoms: C_18  and  C_19
REMARK                            x       y       z     vdW  Elec       q    Type
REMARK                         _______ _______ _______ _____ _____    ______ ____
ROOT
ATOM      1  N   UNL     1       1.541   9.467  19.401  0.00  0.00    +0.000 N 
ATOM      2  C   UNL     1       1.741   8.415  18.529  0.00  0.00    +0.000 C 
ATOM      3  O   UNL     1       1.289   8.457  17.392  0.00  0.00    +0.000 OA
ATOM      4  N   UNL     1       2.426   7.370  19.106  0.00  0.00    +0.000 N 
ATOM      5  H   UNL     1       2.340   9.663  19.992  0.00  0.00    +0.000 HD
ATOM      6  H   UNL     1       2.541   7.418  20.109  0.00  0.00    +0.000 HD
ENDROOT
BRANCH   4   7
ATOM      7  C   UNL     1       2.717   6.131  18.480  0.00  0.00    +0.000 A 
ATOM      8  C   UNL     1       1.914   5.000  18.692  0.00  0.00    +0.000 A 
ATOM      9  C   UNL     1       2.230   3.746  18.159  0.00  0.00    +0.000 A 
ATOM     10  C   UNL     1       1.373   2.557  18.475  0.00  0.00    +0.000 C 
ATOM     11  C   UNL     1       3.360   3.621  17.355  0.00  0.00    +0.000 A 
ATOM     12  C   UNL     1       4.150   4.742  17.090  0.00  0.00    +0.000 A 
ATOM     13  C   UNL     1       3.844   6.006  17.637  0.00  0.00    +0.000 A 
ATOM     14  C   UNL     1       4.744   7.163  17.308  0.00  0.00    +0.000 C 
ENDBRANCH   4   7
BRANCH   1  15
ATOM     15  C   UNL     1       0.794  10.644  18.914  0.00  0.00    +0.000 C 
BRANCH  15  16
ATOM     16  C   UNL     1      -0.720  10.521  19.238  0.00  0.00    +0.000 C 
BRANCH  16  18
ATOM     17  C   UNL     1      -3.105  11.535  18.243  0.00  0.00    +0.000 C 
ATOM     18  S   UNL     1      -1.827  10.330  17.793  0.00  0.00    +0.000 S 
ENDBRANCH  16  18
ENDBRANCH  15  16
BRANCH  15  19
ATOM     19  C   UNL     1       1.432  11.949  19.430  0.00  0.00    +0.000 C 
BRANCH  19  20
ATOM     20  C   UNL     1       2.216  12.740  18.391  0.00  0.00    +0.000 C 
BRANCH  20  21
ATOM     21  O   UNL     1       2.657  11.888  17.340  0.00  0.00    +0.000 OA
ATOM     22  H   UNL     1       2.098  11.091  17.380  0.00  0.00    +0.000 HD
ENDBRANCH  20  21
ENDBRANCH  19  20
ENDBRANCH  15  19
ENDBRANCH   1  15
TORSDOF 7
ENDMDL
