MODEL 1
REMARK VINA RESULT:      -8.8      0.000      0.000
REMARK  Name = 
REMARK  4 active torsions:
REMARK  status: ('A' for Active; 'I' for Inactive)
REMARK    1  A    between atoms: C_7  and  C_8
REMARK    2  A    between atoms: C_10  and  C_11
REMARK    3  A    between atoms: C_18  and  N_19
REMARK    4  A    between atoms: N_19  and  C_20
REMARK                            x       y       z     vdW  Elec       q    Type
REMARK                         _______ _______ _______ _____ _____    ______ ____
ROOT
ATOM      1  C   UNL     1       4.181   6.183  18.108  0.00  0.00    +0.000 A 
ATOM      2  N   UNL     1       3.488   7.344  17.802  0.00  0.00    +0.000 NA
ATOM      3  C   UNL     1       2.633   7.473  18.791  0.00  0.00    +0.000 A 
ATOM      4  O   UNL     1       2.668   6.457  19.700  0.00  0.00    +0.000 OA
ATOM      5  C   UNL     1       3.656   5.617  19.266  0.00  0.00    +0.000 A 
ENDROOT
BRANCH   1  12
ATOM      6  F   UNL     1       6.787   5.263  18.977  0.00  0.00    +0.000 F 
ATOM      7  C   UNL     1       6.461   5.222  17.675  0.00  0.00    +0.000 A 
ATOM      8  C   UNL     1       7.415   4.727  16.782  0.00  0.00    +0.000 A 
ATOM      9  C   UNL     1       7.143   4.687  15.414  0.00  0.00    +0.000 A 
ATOM     10  C   UNL     1       5.926   5.166  14.941  0.00  0.00    +0.000 A 
ATOM     11  C   UNL     1       4.977   5.664  15.839  0.00  0.00    +0.000 A 
ATOM     12  C   UNL     1       5.219   5.677  17.226  0.00  0.00    +0.000 A 
ENDBRANCH   1  12
BRANCH   3  13
ATOM     13  C   UNL     1       1.652   8.517  19.048  0.00  0.00    +0.000 A 
ATOM     14  C   UNL     1       1.200   9.339  18.008  0.00  0.00    +0.000 A 
ATOM     15  C   UNL     1       0.254  10.337  18.254  0.00  0.00    +0.000 A 
ATOM     16  C   UNL     1      -0.235  10.532  19.544  0.00  0.00    +0.000 A 
ATOM     17  C   UNL     1       0.216   9.731  20.592  0.00  0.00    +0.000 A 
ATOM     18  C   UNL     1       1.153   8.727  20.342  0.00  0.00    +0.000 A 
ENDBRANCH   3  13
BRANCH   5  19
ATOM     19  N   UNL     1       3.874   4.501  20.002  0.00  0.00    +0.000 N 
ATOM     20  H   UNL     1       4.003   4.596  21.007  0.00  0.00    +0.000 HD
BRANCH  19  21
ATOM     21  C   UNL     1       3.531   3.168  19.495  0.00  0.00    +0.000 C 
ATOM     22  C   UNL     1       2.687   2.397  20.520  0.00  0.00    +0.000 C 
ATOM     23  C   UNL     1       1.241   2.886  20.612  0.00  0.00    +0.000 C 
ATOM     24  C   UNL     1       0.568   2.899  19.245  0.00  0.00    +0.000 C 
ATOM     25  C   UNL     1       1.367   3.716  18.236  0.00  0.00    +0.000 C 
ATOM     26  C   UNL     1       2.818   3.247  18.138  0.00  0.00    +0.000 C 
ENDBRANCH  19  21
ENDBRANCH   5  19
TORSDOF 4
ENDMDL
MODEL 2
REMARK VINA RESULT:      -8.8      0.726      1.607
REMARK  Name = 
REMARK  4 active torsions:
REMARK  status: ('A' for Active; 'I' for Inactive)
REMARK    1  A    between atoms: C_7  and  C_8
REMARK    2  A    between atoms: C_10  and  C_11
REMARK    3  A    between atoms: C_18  and  N_19
REMARK    4  A    between atoms: N_19  and  C_20
REMARK                            x       y       z     vdW  Elec       q    Type
REMARK                         _______ _______ _______ _____ _____    ______ ____
ROOT
ATOM      1  C   UNL     1       3.848   6.329  18.524  0.00  0.00    +0.000 A 
ATOM      2  N   UNL     1       3.233   7.503  18.118  0.00  0.00    +0.000 NA
ATOM      3  C   UNL     1       2.307   7.707  19.028  0.00  0.00    +0.000 A 
ATOM      4  O   UNL     1       2.226   6.728  19.975  0.00  0.00    +0.000 OA
ATOM      5  C   UNL     1       3.209   5.833  19.656  0.00  0.00    +0.000 A 
ENDROOT
BRANCH   1  12
ATOM      6  F   UNL     1       6.405   5.507  19.612  0.00  0.00    +0.000 F 
ATOM      7  C   UNL     1       6.148   5.343  18.305  0.00  0.00    +0.000 A 
ATOM      8  C   UNL     1       7.148   4.770  17.514  0.00  0.00    +0.000 A 
ATOM      9  C   UNL     1       6.949   4.599  16.143  0.00  0.00    +0.000 A 
ATOM     10  C   UNL     1       5.759   5.026  15.563  0.00  0.00    +0.000 A 
ATOM     11  C   UNL     1       4.763   5.603  16.359  0.00  0.00    +0.000 A 
ATOM     12  C   UNL     1       4.932   5.748  17.750  0.00  0.00    +0.000 A 
ENDBRANCH   1  12
BRANCH   3  13
ATOM     13  C   UNL     1       1.353   8.798  19.164  0.00  0.00    +0.000 A 
ATOM     14  C   UNL     1       0.872   9.165  20.428  0.00  0.00    +0.000 A 
ATOM     15  C   UNL     1      -0.039  10.216  20.560  0.00  0.00    +0.000 A 
ATOM     16  C   UNL     1      -0.488  10.897  19.430  0.00  0.00    +0.000 A 
ATOM     17  C   UNL     1      -0.029  10.532  18.165  0.00  0.00    +0.000 A 
ATOM     18  C   UNL     1       0.890   9.489  18.036  0.00  0.00    +0.000 A 
ENDBRANCH   3  13
BRANCH   5  19
ATOM     19  N   UNL     1       3.320   4.741  20.449  0.00  0.00    +0.000 N 
ATOM     20  H   UNL     1       3.806   4.831  21.339  0.00  0.00    +0.000 HD
BRANCH  19  21
ATOM     21  C   UNL     1       2.443   3.578  20.281  0.00  0.00    +0.000 C 
ATOM     22  C   UNL     1       1.308   3.890  19.295  0.00  0.00    +0.000 C 
ATOM     23  C   UNL     1       1.762   3.932  17.835  0.00  0.00    +0.000 C 
ATOM     24  C   UNL     1       2.495   2.656  17.442  0.00  0.00    +0.000 C 
ATOM     25  C   UNL     1       3.665   2.371  18.379  0.00  0.00    +0.000 C 
ATOM     26  C   UNL     1       3.231   2.335  19.844  0.00  0.00    +0.000 C 
ENDBRANCH  19  21
ENDBRANCH   5  19
TORSDOF 4
ENDMDL
MODEL 3
REMARK VINA RESULT:      -8.8      0.913      1.066
REMARK  Name = 
REMARK  4 active torsions:
REMARK  status: ('A' for Active; 'I' for Inactive)
REMARK    1  A    between atoms: C_7  and  C_8
REMARK    2  A    between atoms: C_10  and  C_11
REMARK    3  A    between atoms: C_18  and  N_19
REMARK    4  A    between atoms: N_19  and  C_20
REMARK                            x       y       z     vdW  Elec       q    Type
REMARK                         _______ _______ _______ _____ _____    ______ ____
ROOT
ATOM      1  C   UNL     1       3.957   6.422  18.034  0.00  0.00    +0.000 A 
ATOM      2  N   UNL     1       3.228   7.565  17.747  0.00  0.00    +0.000 NA
ATOM      3  C   UNL     1       2.475   7.736  18.811  0.00  0.00    +0.000 A 
ATOM      4  O   UNL     1       2.611   6.762  19.756  0.00  0.00    +0.000 OA
ATOM      5  C   UNL     1       3.557   5.908  19.263  0.00  0.00    +0.000 A 
ENDROOT
BRANCH   1  12
ATOM      6  F   UNL     1       6.562   7.554  17.464  0.00  0.00    +0.000 F 
ATOM      7  C   UNL     1       6.164   6.438  16.833  0.00  0.00    +0.000 A 
ATOM      8  C   UNL     1       7.044   5.863  15.912  0.00  0.00    +0.000 A 
ATOM      9  C   UNL     1       6.674   4.718  15.206  0.00  0.00    +0.000 A 
ATOM     10  C   UNL     1       5.412   4.166  15.405  0.00  0.00    +0.000 A 
ATOM     11  C   UNL     1       4.534   4.749  16.325  0.00  0.00    +0.000 A 
ATOM     12  C   UNL     1       4.906   5.882  17.074  0.00  0.00    +0.000 A 
ENDBRANCH   1  12
BRANCH   3  13
ATOM     13  C   UNL     1       1.516   8.786  19.120  0.00  0.00    +0.000 A 
ATOM     14  C   UNL     1       1.162   9.732  18.149  0.00  0.00    +0.000 A 
ATOM     15  C   UNL     1       0.237  10.737  18.444  0.00  0.00    +0.000 A 
ATOM     16  C   UNL     1      -0.328  10.814  19.716  0.00  0.00    +0.000 A 
ATOM     17  C   UNL     1       0.026   9.889  20.696  0.00  0.00    +0.000 A 
ATOM     18  C   UNL     1       0.942   8.878  20.396  0.00  0.00    +0.000 A 
ENDBRANCH   3  13
BRANCH   5  19
ATOM     19  N   UNL     1       3.858   4.826  20.021  0.00  0.00    +0.000 N 
ATOM     20  H   UNL     1       4.121   4.971  20.994  0.00  0.00    +0.000 HD
BRANCH  19  21
ATOM     21  C   UNL     1       3.435   3.477  19.636  0.00  0.00    +0.000 C 
ATOM     22  C   UNL     1       3.465   2.530  20.846  0.00  0.00    +0.000 C 
ATOM     23  C   UNL     1       2.317   2.761  21.829  0.00  0.00    +0.000 C 
ATOM     24  C   UNL     1       0.965   2.712  21.130  0.00  0.00    +0.000 C 
ATOM     25  C   UNL     1       0.902   3.695  19.965  0.00  0.00    +0.000 C 
ATOM     26  C   UNL     1       2.048   3.487  18.976  0.00  0.00    +0.000 C 
ENDBRANCH  19  21
ENDBRANCH   5  19
TORSDOF 4
ENDMDL
MODEL 4
REMARK VINA RESULT:      -8.8      0.715      1.200
REMARK  Name = 
REMARK  4 active torsions:
REMARK  status: ('A' for Active; 'I' for Inactive)
REMARK    1  A    between atoms: C_7  and  C_8
REMARK    2  A    between atoms: C_10  and  C_11
REMARK    3  A    between atoms: C_18  and  N_19
REMARK    4  A    between atoms: N_19  and  C_20
REMARK                            x       y       z     vdW  Elec       q    Type
REMARK                         _______ _______ _______ _____ _____    ______ ____
ROOT
ATOM      1  C   UNL     1       4.319   6.022  17.774  0.00  0.00    +0.000 A 
ATOM      2  N   UNL     1       3.546   7.149  17.543  0.00  0.00    +0.000 NA
ATOM      3  C   UNL     1       2.840   7.281  18.643  0.00  0.00    +0.000 A 
ATOM      4  O   UNL     1       3.045   6.294  19.563  0.00  0.00    +0.000 OA
ATOM      5  C   UNL     1       3.990   5.475  19.011  0.00  0.00    +0.000 A 
ENDROOT
BRANCH   1  12
ATOM      6  F   UNL     1       7.159   6.584  17.693  0.00  0.00    +0.000 F 
ATOM      7  C   UNL     1       6.605   5.796  16.759  0.00  0.00    +0.000 A 
ATOM      8  C   UNL     1       7.443   5.273  15.770  0.00  0.00    +0.000 A 
ATOM      9  C   UNL     1       6.919   4.470  14.756  0.00  0.00    +0.000 A 
ATOM     10  C   UNL     1       5.552   4.213  14.721  0.00  0.00    +0.000 A 
ATOM     11  C   UNL     1       4.718   4.743  15.710  0.00  0.00    +0.000 A 
ATOM     12  C   UNL     1       5.235   5.524  16.762  0.00  0.00    +0.000 A 
ENDBRANCH   1  12
BRANCH   3  13
ATOM     13  C   UNL     1       1.869   8.299  19.016  0.00  0.00    +0.000 A 
ATOM     14  C   UNL     1       1.395   8.380  20.332  0.00  0.00    +0.000 A 
ATOM     15  C   UNL     1       0.467   9.361  20.691  0.00  0.00    +0.000 A 
ATOM     16  C   UNL     1      -0.006  10.257  19.735  0.00  0.00    +0.000 A 
ATOM     17  C   UNL     1       0.445  10.179  18.419  0.00  0.00    +0.000 A 
ATOM     18  C   UNL     1       1.381   9.205  18.064  0.00  0.00    +0.000 A 
ENDBRANCH   3  13
BRANCH   5  19
ATOM     19  N   UNL     1       4.354   4.390  19.734  0.00  0.00    +0.000 N 
ATOM     20  H   UNL     1       4.854   4.532  20.610  0.00  0.00    +0.000 HD
BRANCH  19  21
ATOM     21  C   UNL     1       3.720   3.083  19.531  0.00  0.00    +0.000 C 
ATOM     22  C   UNL     1       3.047   2.598  20.824  0.00  0.00    +0.000 C 
ATOM     23  C   UNL     1       1.747   3.334  21.148  0.00  0.00    +0.000 C 
ATOM     24  C   UNL     1       0.776   3.293  19.975  0.00  0.00    +0.000 C 
ATOM     25  C   UNL     1       1.415   3.833  18.700  0.00  0.00    +0.000 C 
ATOM     26  C   UNL     1       2.722   3.116  18.365  0.00  0.00    +0.000 C 
ENDBRANCH  19  21
ENDBRANCH   5  19
TORSDOF 4
ENDMDL
MODEL 5
REMARK VINA RESULT:      -8.7      0.988      1.209
REMARK  Name = 
REMARK  4 active torsions:
REMARK  status: ('A' for Active; 'I' for Inactive)
REMARK    1  A    between atoms: C_7  and  C_8
REMARK    2  A    between atoms: C_10  and  C_11
REMARK    3  A    between atoms: C_18  and  N_19
REMARK    4  A    between atoms: N_19  and  C_20
REMARK                            x       y       z     vdW  Elec       q    Type
REMARK                         _______ _______ _______ _____ _____    ______ ____
ROOT
ATOM      1  C   UNL     1       3.910   6.111  17.526  0.00  0.00    +0.000 A 
ATOM      2  N   UNL     1       3.763   7.464  17.790  0.00  0.00    +0.000 NA
ATOM      3  C   UNL     1       2.569   7.553  18.334  0.00  0.00    +0.000 A 
ATOM      4  O   UNL     1       1.893   6.369  18.398  0.00  0.00    +0.000 OA
ATOM      5  C   UNL     1       2.744   5.437  17.875  0.00  0.00    +0.000 A 
ENDROOT
BRANCH   1  12
ATOM      6  F   UNL     1       6.227   5.096  18.938  0.00  0.00    +0.000 F 
ATOM      7  C   UNL     1       6.209   5.100  17.596  0.00  0.00    +0.000 A 
ATOM      8  C   UNL     1       7.332   4.604  16.930  0.00  0.00    +0.000 A 
ATOM      9  C   UNL     1       7.382   4.608  15.535  0.00  0.00    +0.000 A 
ATOM     10  C   UNL     1       6.317   5.134  14.811  0.00  0.00    +0.000 A 
ATOM     11  C   UNL     1       5.197   5.633  15.484  0.00  0.00    +0.000 A 
ATOM     12  C   UNL     1       5.114   5.602  16.889  0.00  0.00    +0.000 A 
ENDBRANCH   1  12
BRANCH   3  13
ATOM     13  C   UNL     1       1.862   8.713  18.854  0.00  0.00    +0.000 A 
ATOM     14  C   UNL     1       1.746   9.877  18.084  0.00  0.00    +0.000 A 
ATOM     15  C   UNL     1       1.062  10.990  18.581  0.00  0.00    +0.000 A 
ATOM     16  C   UNL     1       0.503  10.952  19.857  0.00  0.00    +0.000 A 
ATOM     17  C   UNL     1       0.623   9.806  20.640  0.00  0.00    +0.000 A 
ATOM     18  C   UNL     1       1.297   8.691  20.138  0.00  0.00    +0.000 A 
ENDBRANCH   3  13
BRANCH   5  19
ATOM     19  N   UNL     1       2.287   4.163  17.807  0.00  0.00    +0.000 N 
ATOM     20  H   UNL     1       1.771   3.874  16.979  0.00  0.00    +0.000 HD
BRANCH  19  21
ATOM     21  C   UNL     1       2.841   3.103  18.655  0.00  0.00    +0.000 C 
ATOM     22  C   UNL     1       3.404   3.687  19.959  0.00  0.00    +0.000 C 
ATOM     23  C   UNL     1       2.322   4.109  20.955  0.00  0.00    +0.000 C 
ATOM     24  C   UNL     1       1.349   2.972  21.237  0.00  0.00    +0.000 C 
ATOM     25  C   UNL     1       0.736   2.428  19.951  0.00  0.00    +0.000 C 
ATOM     26  C   UNL     1       1.802   2.009  18.940  0.00  0.00    +0.000 C 
ENDBRANCH  19  21
ENDBRANCH   5  19
TORSDOF 4
ENDMDL
MODEL 6
REMARK VINA RESULT:      -8.7      1.133      1.719
REMARK  Name = 
REMARK  4 active torsions:
REMARK  status: ('A' for Active; 'I' for Inactive)
REMARK    1  A    between atoms: C_7  and  C_8
REMARK    2  A    between atoms: C_10  and  C_11
REMARK    3  A    between atoms: C_18  and  N_19
REMARK    4  A    between atoms: N_19  and  C_20
REMARK                            x       y       z     vdW  Elec       q    Type
REMARK                         _______ _______ _______ _____ _____    ______ ____
ROOT
ATOM      1  C   UNL     1       3.957   6.448  18.046  0.00  0.00    +0.000 A 
ATOM      2  N   UNL     1       3.235   7.588  17.729  0.00  0.00    +0.000 NA
ATOM      3  C   UNL     1       2.432   7.751  18.757  0.00  0.00    +0.000 A 
ATOM      4  O   UNL     1       2.529   6.775  19.705  0.00  0.00    +0.000 OA
ATOM      5  C   UNL     1       3.502   5.927  19.254  0.00  0.00    +0.000 A 
ENDROOT
BRANCH   1  12
ATOM      6  F   UNL     1       3.618   4.064  16.436  0.00  0.00    +0.000 F 
ATOM      7  C   UNL     1       4.754   4.774  16.352  0.00  0.00    +0.000 A 
ATOM      8  C   UNL     1       5.741   4.319  15.473  0.00  0.00    +0.000 A 
ATOM      9  C   UNL     1       6.953   5.000  15.363  0.00  0.00    +0.000 A 
ATOM     10  C   UNL     1       7.186   6.121  16.153  0.00  0.00    +0.000 A 
ATOM     11  C   UNL     1       6.197   6.569  17.035  0.00  0.00    +0.000 A 
ATOM     12  C   UNL     1       4.952   5.916  17.131  0.00  0.00    +0.000 A 
ENDBRANCH   1  12
BRANCH   3  13
ATOM     13  C   UNL     1       1.454   8.795  19.023  0.00  0.00    +0.000 A 
ATOM     14  C   UNL     1       1.067   9.086  20.338  0.00  0.00    +0.000 A 
ATOM     15  C   UNL     1       0.132  10.092  20.595  0.00  0.00    +0.000 A 
ATOM     16  C   UNL     1      -0.435  10.804  19.539  0.00  0.00    +0.000 A 
ATOM     17  C   UNL     1      -0.070  10.516  18.226  0.00  0.00    +0.000 A 
ATOM     18  C   UNL     1       0.873   9.518  17.971  0.00  0.00    +0.000 A 
ENDBRANCH   3  13
BRANCH   5  19
ATOM     19  N   UNL     1       3.773   4.846  20.022  0.00  0.00    +0.000 N 
ATOM     20  H   UNL     1       4.016   4.991  21.000  0.00  0.00    +0.000 HD
BRANCH  19  21
ATOM     21  C   UNL     1       3.342   3.500  19.633  0.00  0.00    +0.000 C 
ATOM     22  C   UNL     1       3.464   2.525  20.814  0.00  0.00    +0.000 C 
ATOM     23  C   UNL     1       2.380   2.716  21.876  0.00  0.00    +0.000 C 
ATOM     24  C   UNL     1       0.986   2.665  21.265  0.00  0.00    +0.000 C 
ATOM     25  C   UNL     1       0.835   3.674  20.131  0.00  0.00    +0.000 C 
ATOM     26  C   UNL     1       1.916   3.506  19.065  0.00  0.00    +0.000 C 
ENDBRANCH  19  21
ENDBRANCH   5  19
TORSDOF 4
ENDMDL
MODEL 7
REMARK VINA RESULT:      -8.7      1.057      1.446
REMARK  Name = 
REMARK  4 active torsions:
REMARK  status: ('A' for Active; 'I' for Inactive)
REMARK    1  A    between atoms: C_7  and  C_8
REMARK    2  A    between atoms: C_10  and  C_11
REMARK    3  A    between atoms: C_18  and  N_19
REMARK    4  A    between atoms: N_19  and  C_20
REMARK                            x       y       z     vdW  Elec       q    Type
REMARK                         _______ _______ _______ _____ _____    ______ ____
ROOT
ATOM      1  C   UNL     1       3.762   6.446  18.177  0.00  0.00    +0.000 A 
ATOM      2  N   UNL     1       3.057   7.587  17.828  0.00  0.00    +0.000 NA
ATOM      3  C   UNL     1       2.262   7.795  18.853  0.00  0.00    +0.000 A 
ATOM      4  O   UNL     1       2.346   6.847  19.831  0.00  0.00    +0.000 OA
ATOM      5  C   UNL     1       3.303   5.970  19.402  0.00  0.00    +0.000 A 
ENDROOT
BRANCH   1  12
ATOM      6  F   UNL     1       6.289   7.676  17.476  0.00  0.00    +0.000 F 
ATOM      7  C   UNL     1       5.964   6.477  16.970  0.00  0.00    +0.000 A 
ATOM      8  C   UNL     1       6.880   5.865  16.109  0.00  0.00    +0.000 A 
ATOM      9  C   UNL     1       6.585   4.630  15.530  0.00  0.00    +0.000 A 
ATOM     10  C   UNL     1       5.362   4.022  15.794  0.00  0.00    +0.000 A 
ATOM     11  C   UNL     1       4.447   4.641  16.652  0.00  0.00    +0.000 A 
ATOM     12  C   UNL     1       4.744   5.869  17.275  0.00  0.00    +0.000 A 
ENDBRANCH   1  12
BRANCH   3  13
ATOM     13  C   UNL     1       1.303   8.863  19.092  0.00  0.00    +0.000 A 
ATOM     14  C   UNL     1       0.796   9.613  18.023  0.00  0.00    +0.000 A 
ATOM     15  C   UNL     1      -0.130  10.635  18.251  0.00  0.00    +0.000 A 
ATOM     16  C   UNL     1      -0.543  10.925  19.550  0.00  0.00    +0.000 A 
ATOM     17  C   UNL     1      -0.035  10.197  20.624  0.00  0.00    +0.000 A 
ATOM     18  C   UNL     1       0.881   9.169  20.394  0.00  0.00    +0.000 A 
ENDBRANCH   3  13
BRANCH   5  19
ATOM     19  N   UNL     1       3.560   4.907  20.202  0.00  0.00    +0.000 N 
ATOM     20  H   UNL     1       4.385   4.934  20.799  0.00  0.00    +0.000 HD
BRANCH  19  21
ATOM     21  C   UNL     1       2.517   3.935  20.546  0.00  0.00    +0.000 C 
ATOM     22  C   UNL     1       1.287   4.115  19.644  0.00  0.00    +0.000 C 
ATOM     23  C   UNL     1       1.494   3.599  18.220  0.00  0.00    +0.000 C 
ATOM     24  C   UNL     1       1.971   2.152  18.214  0.00  0.00    +0.000 C 
ATOM     25  C   UNL     1       3.230   1.976  19.056  0.00  0.00    +0.000 C 
ATOM     26  C   UNL     1       3.046   2.496  20.481  0.00  0.00    +0.000 C 
ENDBRANCH  19  21
ENDBRANCH   5  19
TORSDOF 4
ENDMDL
MODEL 8
REMARK VINA RESULT:      -8.7      1.160      1.451
REMARK  Name = 
REMARK  4 active torsions:
REMARK  status: ('A' for Active; 'I' for Inactive)
REMARK    1  A    between atoms: C_7  and  C_8
REMARK    2  A    between atoms: C_10  and  C_11
REMARK    3  A    between atoms: C_18  and  N_19
REMARK    4  A    between atoms: N_19  and  C_20
REMARK                            x       y       z     vdW  Elec       q    Type
REMARK                         _______ _______ _______ _____ _____    ______ ____
ROOT
ATOM      1  C   UNL     1       4.118   6.134  17.798  0.00  0.00    +0.000 A 
ATOM      2  N   UNL     1       3.436   7.312  17.535  0.00  0.00    +0.000 NA
ATOM      3  C   UNL     1       2.718   7.511  18.617  0.00  0.00    +0.000 A 
ATOM      4  O   UNL     1       2.829   6.525  19.553  0.00  0.00    +0.000 OA
ATOM      5  C   UNL     1       3.722   5.630  19.033  0.00  0.00    +0.000 A 
ENDROOT
BRANCH   1  12
ATOM      6  F   UNL     1       3.588   3.719  16.289  0.00  0.00    +0.000 F 
ATOM      7  C   UNL     1       4.727   4.400  16.086  0.00  0.00    +0.000 A 
ATOM      8  C   UNL     1       5.623   3.900  15.136  0.00  0.00    +0.000 A 
ATOM      9  C   UNL     1       6.835   4.550  14.902  0.00  0.00    +0.000 A 
ATOM     10  C   UNL     1       7.159   5.685  15.638  0.00  0.00    +0.000 A 
ATOM     11  C   UNL     1       6.262   6.178  16.591  0.00  0.00    +0.000 A 
ATOM     12  C   UNL     1       5.017   5.556  16.813  0.00  0.00    +0.000 A 
ENDBRANCH   1  12
BRANCH   3  13
ATOM     13  C   UNL     1       1.817   8.603  18.955  0.00  0.00    +0.000 A 
ATOM     14  C   UNL     1       1.585   9.639  18.041  0.00  0.00    +0.000 A 
ATOM     15  C   UNL     1       0.716  10.685  18.363  0.00  0.00    +0.000 A 
ATOM     16  C   UNL     1       0.085  10.711  19.606  0.00  0.00    +0.000 A 
ATOM     17  C   UNL     1       0.318   9.694  20.529  0.00  0.00    +0.000 A 
ATOM     18  C   UNL     1       1.178   8.644  20.202  0.00  0.00    +0.000 A 
ENDBRANCH   3  13
BRANCH   5  19
ATOM     19  N   UNL     1       3.989   4.531  19.778  0.00  0.00    +0.000 N 
ATOM     20  H   UNL     1       4.396   4.655  20.703  0.00  0.00    +0.000 HD
BRANCH  19  21
ATOM     21  C   UNL     1       3.357   3.239  19.494  0.00  0.00    +0.000 C 
ATOM     22  C   UNL     1       3.422   2.319  20.722  0.00  0.00    +0.000 C 
ATOM     23  C   UNL     1       2.444   2.711  21.830  0.00  0.00    +0.000 C 
ATOM     24  C   UNL     1       1.019   2.822  21.303  0.00  0.00    +0.000 C 
ATOM     25  C   UNL     1       0.933   3.783  20.122  0.00  0.00    +0.000 C 
ATOM     26  C   UNL     1       1.911   3.413  19.008  0.00  0.00    +0.000 C 
ENDBRANCH  19  21
ENDBRANCH   5  19
TORSDOF 4
ENDMDL
MODEL 9
REMARK VINA RESULT:      -8.6      1.155      1.905
REMARK  Name = 
REMARK  4 active torsions:
REMARK  status: ('A' for Active; 'I' for Inactive)
REMARK    1  A    between atoms: C_7  and  C_8
REMARK    2  A    between atoms: C_10  and  C_11
REMARK    3  A    between atoms: C_18  and  N_19
REMARK    4  A    between atoms: N_19  and  C_20
REMARK                            x       y       z     vdW  Elec       q    Type
REMARK                         _______ _______ _______ _____ _____    ______ ____
ROOT
ATOM      1  C   UNL     1       3.640   6.925  18.033  0.00  0.00    +0.000 A 
ATOM      2  N   UNL     1       3.273   8.192  17.607  0.00  0.00    +0.000 NA
ATOM      3  C   UNL     1       2.229   8.486  18.349  0.00  0.00    +0.000 A 
ATOM      4  O   UNL     1       1.843   7.487  19.195  0.00  0.00    +0.000 OA
ATOM      5  C   UNL     1       2.740   6.476  18.994  0.00  0.00    +0.000 A 
ENDROOT
BRANCH   1  12
ATOM      6  F   UNL     1       5.735   5.565  19.501  0.00  0.00    +0.000 F 
ATOM      7  C   UNL     1       5.749   5.565  18.159  0.00  0.00    +0.000 A 
ATOM      8  C   UNL     1       6.795   4.894  17.519  0.00  0.00    +0.000 A 
ATOM      9  C   UNL     1       6.877   4.883  16.127  0.00  0.00    +0.000 A 
ATOM     10  C   UNL     1       5.924   5.566  15.377  0.00  0.00    +0.000 A 
ATOM     11  C   UNL     1       4.882   6.240  16.022  0.00  0.00    +0.000 A 
ATOM     12  C   UNL     1       4.763   6.229  17.426  0.00  0.00    +0.000 A 
ENDBRANCH   1  12
BRANCH   3  13
ATOM     13  C   UNL     1       1.421   9.695  18.390  0.00  0.00    +0.000 A 
ATOM     14  C   UNL     1       2.026  10.947  18.558  0.00  0.00    +0.000 A 
ATOM     15  C   UNL     1       1.250  12.109  18.592  0.00  0.00    +0.000 A 
ATOM     16  C   UNL     1      -0.136  12.027  18.473  0.00  0.00    +0.000 A 
ATOM     17  C   UNL     1      -0.752  10.786  18.320  0.00  0.00    +0.000 A 
ATOM     18  C   UNL     1       0.025   9.627  18.275  0.00  0.00    +0.000 A 
ENDBRANCH   3  13
BRANCH   5  19
ATOM     19  N   UNL     1       2.555   5.344  19.715  0.00  0.00    +0.000 N 
ATOM     20  H   UNL     1       2.895   5.315  20.674  0.00  0.00    +0.000 HD
BRANCH  19  21
ATOM     21  C   UNL     1       1.554   4.344  19.330  0.00  0.00    +0.000 C 
ATOM     22  C   UNL     1       1.526   4.161  17.805  0.00  0.00    +0.000 C 
ATOM     23  C   UNL     1       2.721   3.378  17.262  0.00  0.00    +0.000 C 
ATOM     24  C   UNL     1       2.880   2.039  17.972  0.00  0.00    +0.000 C 
ATOM     25  C   UNL     1       2.973   2.215  19.484  0.00  0.00    +0.000 C 
ATOM     26  C   UNL     1       1.791   3.005  20.043  0.00  0.00    +0.000 C 
ENDBRANCH  19  21
ENDBRANCH   5  19
TORSDOF 4
ENDMDL
