MODEL 1
REMARK VINA RESULT:      -7.5      0.000      0.000
REMARK  Name = 
REMARK  4 active torsions:
REMARK  status: ('A' for Active; 'I' for Inactive)
REMARK    1  A    between atoms: N_2  and  C_4
REMARK    2  A    between atoms: C_7  and  C_8
REMARK    3  A    between atoms: C_8  and  S_9
REMARK    4  A    between atoms: S_9  and  C_10
REMARK                            x       y       z     vdW  Elec       q    Type
REMARK                         _______ _______ _______ _____ _____    ______ ____
ROOT
ATOM      1  C   UNL     1       2.587   5.688  19.557  0.00  0.00    +0.000 A 
ATOM      2  N   UNL     1       2.071   6.254  20.620  0.00  0.00    +0.000 NA
ATOM      3  C   UNL     1       1.761   7.535  20.223  0.00  0.00    +0.000 A 
ATOM      4  C   UNL     1       1.129   8.566  20.936  0.00  0.00    +0.000 A 
ATOM      5  C   UNL     1       0.837   9.757  20.262  0.00  0.00    +0.000 A 
ATOM      6 CL   UNL     1       0.003  11.009  21.104  0.00  0.00    +0.000 Cl
ATOM      7  C   UNL     1       1.191   9.928  18.921  0.00  0.00    +0.000 A 
ATOM      8  F   UNL     1       0.876  11.063  18.277  0.00  0.00    +0.000 F 
ATOM      9  C   UNL     1       1.862   8.933  18.206  0.00  0.00    +0.000 A 
ATOM     10  C   UNL     1       2.124   7.745  18.893  0.00  0.00    +0.000 A 
ATOM     11  N   UNL     1       2.714   6.564  18.517  0.00  0.00    +0.000 N 
ATOM     12  H   UNL     1       3.102   6.340  17.612  0.00  0.00    +0.000 HD
ENDROOT
BRANCH   1  13
ATOM     13  S   UNL     1       3.021   4.032  19.341  0.00  0.00    +0.000 S 
BRANCH  13  14
ATOM     14  C   UNL     1       4.837   4.144  19.382  0.00  0.00    +0.000 C 
BRANCH  14  18
ATOM     15  C   UNL     1       6.515   4.604  15.422  0.00  0.00    +0.000 A 
ATOM     16  C   UNL     1       7.300   4.877  16.549  0.00  0.00    +0.000 A 
ATOM     17  C   UNL     1       6.751   4.725  17.826  0.00  0.00    +0.000 A 
ATOM     18  C   UNL     1       5.423   4.298  17.994  0.00  0.00    +0.000 A 
ATOM     19  C   UNL     1       4.649   4.029  16.851  0.00  0.00    +0.000 A 
ATOM     20  C   UNL     1       5.189   4.179  15.569  0.00  0.00    +0.000 A 
BRANCH  15  22
ATOM     21  O   UNL     1       6.635   4.064  13.166  0.00  0.00    +0.000 OA
ATOM     22  N   UNL     1       7.082   4.777  14.080  0.00  0.00    +0.000 N 
ATOM     23  O   UNL     1       7.975   5.622  13.933  0.00  0.00    +0.000 OA
ENDBRANCH  15  22
ENDBRANCH  14  18
ENDBRANCH  13  14
ENDBRANCH   1  13
TORSDOF 4
ENDMDL
MODEL 2
REMARK VINA RESULT:      -7.4      1.115      2.044
REMARK  Name = 
REMARK  4 active torsions:
REMARK  status: ('A' for Active; 'I' for Inactive)
REMARK    1  A    between atoms: N_2  and  C_4
REMARK    2  A    between atoms: C_7  and  C_8
REMARK    3  A    between atoms: C_8  and  S_9
REMARK    4  A    between atoms: S_9  and  C_10
REMARK                            x       y       z     vdW  Elec       q    Type
REMARK                         _______ _______ _______ _____ _____    ______ ____
ROOT
ATOM      1  C   UNL     1       2.583   6.137  19.616  0.00  0.00    +0.000 A 
ATOM      2  N   UNL     1       2.397   7.018  18.665  0.00  0.00    +0.000 NA
ATOM      3  C   UNL     1       1.813   8.096  19.291  0.00  0.00    +0.000 A 
ATOM      4  C   UNL     1       1.451   9.347  18.769  0.00  0.00    +0.000 A 
ATOM      5  C   UNL     1       0.960  10.318  19.651  0.00  0.00    +0.000 A 
ATOM      6 CL   UNL     1       0.572  11.882  19.038  0.00  0.00    +0.000 Cl
ATOM      7  C   UNL     1       0.806  10.039  21.012  0.00  0.00    +0.000 A 
ATOM      8  F   UNL     1       0.365  10.988  21.851  0.00  0.00    +0.000 F 
ATOM      9  C   UNL     1       1.116   8.784  21.544  0.00  0.00    +0.000 A 
ATOM     10  C   UNL     1       1.624   7.839  20.649  0.00  0.00    +0.000 A 
ATOM     11  N   UNL     1       2.064   6.549  20.810  0.00  0.00    +0.000 N 
ATOM     12  H   UNL     1       2.084   6.017  21.668  0.00  0.00    +0.000 HD
ENDROOT
BRANCH   1  13
ATOM     13  S   UNL     1       3.431   4.637  19.523  0.00  0.00    +0.000 S 
BRANCH  13  14
ATOM     14  C   UNL     1       5.150   5.222  19.385  0.00  0.00    +0.000 C 
BRANCH  14  18
ATOM     15  C   UNL     1       6.607   4.926  15.324  0.00  0.00    +0.000 A 
ATOM     16  C   UNL     1       5.245   5.140  15.563  0.00  0.00    +0.000 A 
ATOM     17  C   UNL     1       4.781   5.236  16.878  0.00  0.00    +0.000 A 
ATOM     18  C   UNL     1       5.666   5.124  17.965  0.00  0.00    +0.000 A 
ATOM     19  C   UNL     1       7.031   4.909  17.706  0.00  0.00    +0.000 A 
ATOM     20  C   UNL     1       7.504   4.811  16.393  0.00  0.00    +0.000 A 
BRANCH  15  22
ATOM     21  O   UNL     1       8.032   5.549  13.598  0.00  0.00    +0.000 OA
ATOM     22  N   UNL     1       7.096   4.810  13.945  0.00  0.00    +0.000 N 
ATOM     23  O   UNL     1       6.547   3.983  13.204  0.00  0.00    +0.000 OA
ENDBRANCH  15  22
ENDBRANCH  14  18
ENDBRANCH  13  14
ENDBRANCH   1  13
TORSDOF 4
ENDMDL
MODEL 3
REMARK VINA RESULT:      -7.4      1.369      2.033
REMARK  Name = 
REMARK  4 active torsions:
REMARK  status: ('A' for Active; 'I' for Inactive)
REMARK    1  A    between atoms: N_2  and  C_4
REMARK    2  A    between atoms: C_7  and  C_8
REMARK    3  A    between atoms: C_8  and  S_9
REMARK    4  A    between atoms: S_9  and  C_10
REMARK                            x       y       z     vdW  Elec       q    Type
REMARK                         _______ _______ _______ _____ _____    ______ ____
ROOT
ATOM      1  C   UNL     1       3.717   5.928  19.124  0.00  0.00    +0.000 A 
ATOM      2  N   UNL     1       3.434   6.818  18.205  0.00  0.00    +0.000 NA
ATOM      3  C   UNL     1       2.481   7.629  18.780  0.00  0.00    +0.000 A 
ATOM      4  C   UNL     1       1.861   8.781  18.273  0.00  0.00    +0.000 A 
ATOM      5  C   UNL     1       0.989   9.488  19.110  0.00  0.00    +0.000 A 
ATOM      6 CL   UNL     1       0.269  10.942  18.526  0.00  0.00    +0.000 Cl
ATOM      7  C   UNL     1       0.719   9.042  20.406  0.00  0.00    +0.000 A 
ATOM      8  F   UNL     1      -0.094   9.747  21.209  0.00  0.00    +0.000 F 
ATOM      9  C   UNL     1       1.289   7.872  20.914  0.00  0.00    +0.000 A 
ATOM     10  C   UNL     1       2.173   7.195  20.069  0.00  0.00    +0.000 A 
ATOM     11  N   UNL     1       2.931   6.062  20.232  0.00  0.00    +0.000 N 
ATOM     12  H   UNL     1       2.973   5.472  21.049  0.00  0.00    +0.000 HD
ENDROOT
BRANCH   1  13
ATOM     13  S   UNL     1       4.961   4.732  19.095  0.00  0.00    +0.000 S 
BRANCH  13  14
ATOM     14  C   UNL     1       4.481   3.773  17.623  0.00  0.00    +0.000 C 
BRANCH  14  18
ATOM     15  C   UNL     1       6.937   4.773  14.206  0.00  0.00    +0.000 A 
ATOM     16  C   UNL     1       7.433   4.960  15.501  0.00  0.00    +0.000 A 
ATOM     17  C   UNL     1       6.635   4.633  16.602  0.00  0.00    +0.000 A 
ATOM     18  C   UNL     1       5.340   4.116  16.424  0.00  0.00    +0.000 A 
ATOM     19  C   UNL     1       4.857   3.936  15.116  0.00  0.00    +0.000 A 
ATOM     20  C   UNL     1       5.649   4.260  14.009  0.00  0.00    +0.000 A 
BRANCH  15  22
ATOM     21  O   UNL     1       8.701   5.926  13.229  0.00  0.00    +0.000 OA
ATOM     22  N   UNL     1       7.766   5.128  13.049  0.00  0.00    +0.000 N 
ATOM     23  O   UNL     1       7.485   4.616  11.957  0.00  0.00    +0.000 OA
ENDBRANCH  15  22
ENDBRANCH  14  18
ENDBRANCH  13  14
ENDBRANCH   1  13
TORSDOF 4
ENDMDL
MODEL 4
REMARK VINA RESULT:      -7.4      1.164      1.830
REMARK  Name = 
REMARK  4 active torsions:
REMARK  status: ('A' for Active; 'I' for Inactive)
REMARK    1  A    between atoms: N_2  and  C_4
REMARK    2  A    between atoms: C_7  and  C_8
REMARK    3  A    between atoms: C_8  and  S_9
REMARK    4  A    between atoms: S_9  and  C_10
REMARK                            x       y       z     vdW  Elec       q    Type
REMARK                         _______ _______ _______ _____ _____    ______ ____
ROOT
ATOM      1  C   UNL     1       2.449   6.376  19.564  0.00  0.00    +0.000 A 
ATOM      2  N   UNL     1       2.340   7.266  18.610  0.00  0.00    +0.000 NA
ATOM      3  C   UNL     1       1.777   8.366  19.215  0.00  0.00    +0.000 A 
ATOM      4  C   UNL     1       1.489   9.633  18.683  0.00  0.00    +0.000 A 
ATOM      5  C   UNL     1       1.004  10.621  19.547  0.00  0.00    +0.000 A 
ATOM      6 CL   UNL     1       0.707  12.202  18.924  0.00  0.00    +0.000 Cl
ATOM      7  C   UNL     1       0.783  10.347  20.900  0.00  0.00    +0.000 A 
ATOM      8  F   UNL     1       0.348  11.313  21.724  0.00  0.00    +0.000 F 
ATOM      9  C   UNL     1       1.018   9.080  21.440  0.00  0.00    +0.000 A 
ATOM     10  C   UNL     1       1.522   8.116  20.563  0.00  0.00    +0.000 A 
ATOM     11  N   UNL     1       1.901   6.807  20.738  0.00  0.00    +0.000 N 
ATOM     12  H   UNL     1       1.863   6.273  21.594  0.00  0.00    +0.000 HD
ENDROOT
BRANCH   1  13
ATOM     13  S   UNL     1       3.237   4.842  19.500  0.00  0.00    +0.000 S 
BRANCH  13  14
ATOM     14  C   UNL     1       4.981   5.355  19.398  0.00  0.00    +0.000 C 
BRANCH  14  18
ATOM     15  C   UNL     1       6.557   4.962  15.389  0.00  0.00    +0.000 A 
ATOM     16  C   UNL     1       7.421   4.893  16.488  0.00  0.00    +0.000 A 
ATOM     17  C   UNL     1       6.904   5.020  17.782  0.00  0.00    +0.000 A 
ATOM     18  C   UNL     1       5.528   5.212  17.993  0.00  0.00    +0.000 A 
ATOM     19  C   UNL     1       4.675   5.279  16.877  0.00  0.00    +0.000 A 
ATOM     20  C   UNL     1       5.183   5.153  15.579  0.00  0.00    +0.000 A 
BRANCH  15  22
ATOM     21  O   UNL     1       8.068   5.557  13.728  0.00  0.00    +0.000 OA
ATOM     22  N   UNL     1       7.096   4.844  14.029  0.00  0.00    +0.000 N 
ATOM     23  O   UNL     1       6.551   4.044  13.257  0.00  0.00    +0.000 OA
ENDBRANCH  15  22
ENDBRANCH  14  18
ENDBRANCH  13  14
ENDBRANCH   1  13
TORSDOF 4
ENDMDL
MODEL 5
REMARK VINA RESULT:      -7.4      0.252      1.062
REMARK  Name = 
REMARK  4 active torsions:
REMARK  status: ('A' for Active; 'I' for Inactive)
REMARK    1  A    between atoms: N_2  and  C_4
REMARK    2  A    between atoms: C_7  and  C_8
REMARK    3  A    between atoms: C_8  and  S_9
REMARK    4  A    between atoms: S_9  and  C_10
REMARK                            x       y       z     vdW  Elec       q    Type
REMARK                         _______ _______ _______ _____ _____    ______ ____
ROOT
ATOM      1  C   UNL     1       2.511   5.492  19.502  0.00  0.00    +0.000 A 
ATOM      2  N   UNL     1       1.987   5.978  20.599  0.00  0.00    +0.000 NA
ATOM      3  C   UNL     1       1.703   7.292  20.304  0.00  0.00    +0.000 A 
ATOM      4  C   UNL     1       1.076   8.271  21.090  0.00  0.00    +0.000 A 
ATOM      5  C   UNL     1       0.813   9.519  20.511  0.00  0.00    +0.000 A 
ATOM      6 CL   UNL     1      -0.015  10.711  21.441  0.00  0.00    +0.000 Cl
ATOM      7  C   UNL     1       1.192   9.793  19.194  0.00  0.00    +0.000 A 
ATOM      8  F   UNL     1       0.905  10.982  18.641  0.00  0.00    +0.000 F 
ATOM      9  C   UNL     1       1.859   8.848  18.410  0.00  0.00    +0.000 A 
ATOM     10  C   UNL     1       2.091   7.604  19.002  0.00  0.00    +0.000 A 
ATOM     11  N   UNL     1       2.669   6.447  18.538  0.00  0.00    +0.000 N 
ATOM     12  H   UNL     1       3.068   6.292  17.625  0.00  0.00    +0.000 HD
ENDROOT
BRANCH   1  13
ATOM     13  S   UNL     1       2.923   3.852  19.157  0.00  0.00    +0.000 S 
BRANCH  13  14
ATOM     14  C   UNL     1       4.738   3.919  19.282  0.00  0.00    +0.000 C 
BRANCH  14  18
ATOM     15  C   UNL     1       6.581   4.661  15.440  0.00  0.00    +0.000 A 
ATOM     16  C   UNL     1       5.282   4.144  15.503  0.00  0.00    +0.000 A 
ATOM     17  C   UNL     1       4.691   3.907  16.749  0.00  0.00    +0.000 A 
ATOM     18  C   UNL     1       5.385   4.186  17.939  0.00  0.00    +0.000 A 
ATOM     19  C   UNL     1       6.689   4.705  17.857  0.00  0.00    +0.000 A 
ATOM     20  C   UNL     1       7.288   4.944  16.615  0.00  0.00    +0.000 A 
BRANCH  15  22
ATOM     21  O   UNL     1       6.705   4.348  13.141  0.00  0.00    +0.000 OA
ATOM     22  N   UNL     1       7.209   4.896  14.135  0.00  0.00    +0.000 N 
ATOM     23  O   UNL     1       8.210   5.626  14.098  0.00  0.00    +0.000 OA
ENDBRANCH  15  22
ENDBRANCH  14  18
ENDBRANCH  13  14
ENDBRANCH   1  13
TORSDOF 4
ENDMDL
MODEL 6
REMARK VINA RESULT:      -7.3      1.306      2.212
REMARK  Name = 
REMARK  4 active torsions:
REMARK  status: ('A' for Active; 'I' for Inactive)
REMARK    1  A    between atoms: N_2  and  C_4
REMARK    2  A    between atoms: C_7  and  C_8
REMARK    3  A    between atoms: C_8  and  S_9
REMARK    4  A    between atoms: S_9  and  C_10
REMARK                            x       y       z     vdW  Elec       q    Type
REMARK                         _______ _______ _______ _____ _____    ______ ____
ROOT
ATOM      1  C   UNL     1       3.437   5.774  19.193  0.00  0.00    +0.000 A 
ATOM      2  N   UNL     1       3.196   6.668  18.267  0.00  0.00    +0.000 NA
ATOM      3  C   UNL     1       2.378   7.594  18.873  0.00  0.00    +0.000 A 
ATOM      4  C   UNL     1       1.859   8.797  18.369  0.00  0.00    +0.000 A 
ATOM      5  C   UNL     1       1.124   9.617  19.234  0.00  0.00    +0.000 A 
ATOM      6 CL   UNL     1       0.534  11.128  18.651  0.00  0.00    +0.000 Cl
ATOM      7  C   UNL     1       0.888   9.234  20.558  0.00  0.00    +0.000 A 
ATOM      8  F   UNL     1       0.211  10.045  21.385  0.00  0.00    +0.000 F 
ATOM      9  C   UNL     1       1.356   8.020  21.066  0.00  0.00    +0.000 A 
ATOM     10  C   UNL     1       2.104   7.228  20.191  0.00  0.00    +0.000 A 
ATOM     11  N   UNL     1       2.742   6.022  20.342  0.00  0.00    +0.000 N 
ATOM     12  H   UNL     1       2.769   5.449  21.173  0.00  0.00    +0.000 HD
ENDROOT
BRANCH   1  13
ATOM     13  S   UNL     1       4.536   4.446  19.126  0.00  0.00    +0.000 S 
BRANCH  13  14
ATOM     14  C   UNL     1       4.087   3.708  17.524  0.00  0.00    +0.000 C 
BRANCH  14  18
ATOM     15  C   UNL     1       6.857   4.819  14.393  0.00  0.00    +0.000 A 
ATOM     16  C   UNL     1       5.577   4.359  14.062  0.00  0.00    +0.000 A 
ATOM     17  C   UNL     1       4.686   4.002  15.079  0.00  0.00    +0.000 A 
ATOM     18  C   UNL     1       5.058   4.103  16.431  0.00  0.00    +0.000 A 
ATOM     19  C   UNL     1       6.348   4.566  16.745  0.00  0.00    +0.000 A 
ATOM     20  C   UNL     1       7.246   4.925  15.734  0.00  0.00    +0.000 A 
BRANCH  15  22
ATOM     21  O   UNL     1       8.730   5.951  13.615  0.00  0.00    +0.000 OA
ATOM     22  N   UNL     1       7.800   5.179  13.328  0.00  0.00    +0.000 N 
ATOM     23  O   UNL     1       7.615   4.696  12.203  0.00  0.00    +0.000 OA
ENDBRANCH  15  22
ENDBRANCH  14  18
ENDBRANCH  13  14
ENDBRANCH   1  13
TORSDOF 4
ENDMDL
MODEL 7
REMARK VINA RESULT:      -7.2      3.992      4.523
REMARK  Name = 
REMARK  4 active torsions:
REMARK  status: ('A' for Active; 'I' for Inactive)
REMARK    1  A    between atoms: N_2  and  C_4
REMARK    2  A    between atoms: C_7  and  C_8
REMARK    3  A    between atoms: C_8  and  S_9
REMARK    4  A    between atoms: S_9  and  C_10
REMARK                            x       y       z     vdW  Elec       q    Type
REMARK                         _______ _______ _______ _____ _____    ______ ____
ROOT
ATOM      1  C   UNL     1       4.757   6.058  18.089  0.00  0.00    +0.000 A 
ATOM      2  N   UNL     1       4.676   5.713  19.350  0.00  0.00    +0.000 NA
ATOM      3  C   UNL     1       3.549   4.926  19.430  0.00  0.00    +0.000 A 
ATOM      4  C   UNL     1       3.015   4.235  20.528  0.00  0.00    +0.000 A 
ATOM      5  C   UNL     1       1.900   3.415  20.318  0.00  0.00    +0.000 A 
ATOM      6 CL   UNL     1       1.271   2.508  21.642  0.00  0.00    +0.000 Cl
ATOM      7  C   UNL     1       1.315   3.309  19.053  0.00  0.00    +0.000 A 
ATOM      8  F   UNL     1       0.267   2.494  18.858  0.00  0.00    +0.000 F 
ATOM      9  C   UNL     1       1.803   4.025  17.956  0.00  0.00    +0.000 A 
ATOM     10  C   UNL     1       2.929   4.820  18.185  0.00  0.00    +0.000 A 
ATOM     11  N   UNL     1       3.689   5.614  17.363  0.00  0.00    +0.000 N 
ATOM     12  H   UNL     1       3.545   5.782  16.378  0.00  0.00    +0.000 HD
ENDROOT
BRANCH   1  13
ATOM     13  S   UNL     1       6.039   6.900  17.299  0.00  0.00    +0.000 S 
BRANCH  13  14
ATOM     14  C   UNL     1       7.150   5.520  16.879  0.00  0.00    +0.000 C 
BRANCH  14  18
ATOM     15  C   UNL     1       6.026   3.612  13.163  0.00  0.00    +0.000 A 
ATOM     16  C   UNL     1       5.380   3.258  14.353  0.00  0.00    +0.000 A 
ATOM     17  C   UNL     1       5.747   3.880  15.551  0.00  0.00    +0.000 A 
ATOM     18  C   UNL     1       6.756   4.859  15.574  0.00  0.00    +0.000 A 
ATOM     19  C   UNL     1       7.395   5.201  14.370  0.00  0.00    +0.000 A 
ATOM     20  C   UNL     1       7.034   4.584  13.167  0.00  0.00    +0.000 A 
BRANCH  15  22
ATOM     21  O   UNL     1       4.562   3.249  11.397  0.00  0.00    +0.000 OA
ATOM     22  N   UNL     1       5.655   2.951  11.907  0.00  0.00    +0.000 N 
ATOM     23  O   UNL     1       6.449   2.132  11.427  0.00  0.00    +0.000 OA
ENDBRANCH  15  22
ENDBRANCH  14  18
ENDBRANCH  13  14
ENDBRANCH   1  13
TORSDOF 4
ENDMDL
MODEL 8
REMARK VINA RESULT:      -7.2      5.564      7.966
REMARK  Name = 
REMARK  4 active torsions:
REMARK  status: ('A' for Active; 'I' for Inactive)
REMARK    1  A    between atoms: N_2  and  C_4
REMARK    2  A    between atoms: C_7  and  C_8
REMARK    3  A    between atoms: C_8  and  S_9
REMARK    4  A    between atoms: S_9  and  C_10
REMARK                            x       y       z     vdW  Elec       q    Type
REMARK                         _______ _______ _______ _____ _____    ______ ____
ROOT
ATOM      1  C   UNL     1       6.815   4.839  16.587  0.00  0.00    +0.000 A 
ATOM      2  N   UNL     1       5.877   4.066  16.097  0.00  0.00    +0.000 NA
ATOM      3  C   UNL     1       6.081   4.080  14.736  0.00  0.00    +0.000 A 
ATOM      4  C   UNL     1       5.409   3.381  13.722  0.00  0.00    +0.000 A 
ATOM      5  C   UNL     1       5.884   3.495  12.410  0.00  0.00    +0.000 A 
ATOM      6 CL   UNL     1       5.110   2.592  11.162  0.00  0.00    +0.000 Cl
ATOM      7  C   UNL     1       6.980   4.309  12.112  0.00  0.00    +0.000 A 
ATOM      8  F   UNL     1       7.445   4.384  10.855  0.00  0.00    +0.000 F 
ATOM      9  C   UNL     1       7.635   5.050  13.099  0.00  0.00    +0.000 A 
ATOM     10  C   UNL     1       7.157   4.903  14.404  0.00  0.00    +0.000 A 
ATOM     11  N   UNL     1       7.561   5.429  15.606  0.00  0.00    +0.000 N 
ATOM     12  H   UNL     1       8.323   6.072  15.763  0.00  0.00    +0.000 HD
ENDROOT
BRANCH   1  13
ATOM     13  S   UNL     1       7.217   5.102  18.244  0.00  0.00    +0.000 S 
BRANCH  13  14
ATOM     14  C   UNL     1       5.799   6.108  18.786  0.00  0.00    +0.000 C 
BRANCH  14  18
ATOM     15  C   UNL     1       2.555   3.665  20.275  0.00  0.00    +0.000 A 
ATOM     16  C   UNL     1       2.388   5.049  20.154  0.00  0.00    +0.000 A 
ATOM     17  C   UNL     1       3.440   5.833  19.670  0.00  0.00    +0.000 A 
ATOM     18  C   UNL     1       4.664   5.248  19.301  0.00  0.00    +0.000 A 
ATOM     19  C   UNL     1       4.815   3.856  19.431  0.00  0.00    +0.000 A 
ATOM     20  C   UNL     1       3.767   3.064  19.914  0.00  0.00    +0.000 A 
BRANCH  15  22
ATOM     21  O   UNL     1       0.547   2.527  20.013  0.00  0.00    +0.000 OA
ATOM     22  N   UNL     1       1.459   2.840  20.796  0.00  0.00    +0.000 N 
ATOM     23  O   UNL     1       1.502   2.506  21.988  0.00  0.00    +0.000 OA
ENDBRANCH  15  22
ENDBRANCH  14  18
ENDBRANCH  13  14
ENDBRANCH   1  13
TORSDOF 4
ENDMDL
MODEL 9
REMARK VINA RESULT:      -7.2      0.964      1.525
REMARK  Name = 
REMARK  4 active torsions:
REMARK  status: ('A' for Active; 'I' for Inactive)
REMARK    1  A    between atoms: N_2  and  C_4
REMARK    2  A    between atoms: C_7  and  C_8
REMARK    3  A    between atoms: C_8  and  S_9
REMARK    4  A    between atoms: S_9  and  C_10
REMARK                            x       y       z     vdW  Elec       q    Type
REMARK                         _______ _______ _______ _____ _____    ______ ____
ROOT
ATOM      1  C   UNL     1       2.248   6.692  19.699  0.00  0.00    +0.000 A 
ATOM      2  N   UNL     1       1.729   7.112  20.826  0.00  0.00    +0.000 NA
ATOM      3  C   UNL     1       1.326   8.403  20.570  0.00  0.00    +0.000 A 
ATOM      4  C   UNL     1       0.651   9.312  21.399  0.00  0.00    +0.000 A 
ATOM      5  C   UNL     1       0.263  10.543  20.857  0.00  0.00    +0.000 A 
ATOM      6 CL   UNL     1      -0.624  11.646  21.843  0.00  0.00    +0.000 Cl
ATOM      7  C   UNL     1       0.564  10.871  19.533  0.00  0.00    +0.000 A 
ATOM      8  F   UNL     1       0.157  12.041  19.016  0.00  0.00    +0.000 F 
ATOM      9  C   UNL     1       1.276  10.000  18.704  0.00  0.00    +0.000 A 
ATOM     10  C   UNL     1       1.634   8.769  19.260  0.00  0.00    +0.000 A 
ATOM     11  N   UNL     1       2.287   7.674  18.751  0.00  0.00    +0.000 N 
ATOM     12  H   UNL     1       2.661   7.568  17.820  0.00  0.00    +0.000 HD
ENDROOT
BRANCH   1  13
ATOM     13  S   UNL     1       2.780   5.099  19.305  0.00  0.00    +0.000 S 
BRANCH  13  14
ATOM     14  C   UNL     1       4.586   5.299  19.424  0.00  0.00    +0.000 C 
BRANCH  14  18
ATOM     15  C   UNL     1       6.474   5.011  15.543  0.00  0.00    +0.000 A 
ATOM     16  C   UNL     1       5.171   5.511  15.650  0.00  0.00    +0.000 A 
ATOM     17  C   UNL     1       4.567   5.603  16.908  0.00  0.00    +0.000 A 
ATOM     18  C   UNL     1       5.253   5.202  18.068  0.00  0.00    +0.000 A 
ATOM     19  C   UNL     1       6.560   4.701  17.941  0.00  0.00    +0.000 A 
ATOM     20  C   UNL     1       7.173   4.605  16.687  0.00  0.00    +0.000 A 
BRANCH  15  22
ATOM     21  O   UNL     1       8.107   5.599  13.999  0.00  0.00    +0.000 OA
ATOM     22  N   UNL     1       7.106   4.898  14.224  0.00  0.00    +0.000 N 
ATOM     23  O   UNL     1       6.605   4.113  13.407  0.00  0.00    +0.000 OA
ENDBRANCH  15  22
ENDBRANCH  14  18
ENDBRANCH  13  14
ENDBRANCH   1  13
TORSDOF 4
ENDMDL
