MODEL 1
REMARK VINA RESULT:      -7.6      0.000      0.000
REMARK  Name = 
REMARK  5 active torsions:
REMARK  status: ('A' for Active; 'I' for Inactive)
REMARK    1  A    between atoms: C_1  and  C_2
REMARK    2  A    between atoms: C_8  and  O_9
REMARK    3  A    between atoms: O_9  and  C_10
REMARK    4  A    between atoms: C_10  and  C_11
REMARK    5  A    between atoms: C_16  and  C_17
REMARK                            x       y       z     vdW  Elec       q    Type
REMARK                         _______ _______ _______ _____ _____    ______ ____
ROOT
ATOM      1  C   UNL     1       1.834   3.152  21.191  0.00  0.00    +0.000 C 
ATOM      2  O   UNL     1       1.175   2.667  22.103  0.00  0.00    +0.000 OA
ATOM      3  N   UNL     1       3.007   2.544  20.801  0.00  0.00    +0.000 N 
ATOM      4  C   UNL     1       3.725   3.012  19.738  0.00  0.00    +0.000 A 
ATOM      5  N   UNL     1       4.553   4.020  19.783  0.00  0.00    +0.000 NA
ATOM      6  C   UNL     1       4.943   4.342  18.488  0.00  0.00    +0.000 A 
ATOM      7  C   UNL     1       4.324   3.603  17.498  0.00  0.00    +0.000 A 
ATOM      8  S   UNL     1       3.361   2.366  18.209  0.00  0.00    +0.000 S 
ATOM      9  H   UNL     1       3.191   1.623  21.163  0.00  0.00    +0.000 HD
ENDROOT
BRANCH   6  10
ATOM     10  C   UNL     1       5.968   5.405  18.246  0.00  0.00    +0.000 A 
ATOM     11  C   UNL     1       7.027   5.626  19.103  0.00  0.00    +0.000 A 
ATOM     12  C   UNL     1       7.918   6.627  18.617  0.00  0.00    +0.000 A 
ATOM     13  C   UNL     1       7.478   7.173  17.433  0.00  0.00    +0.000 A 
ATOM     14  S   UNL     1       6.026   6.444  16.892  0.00  0.00    +0.000 S 
ENDBRANCH   6  10
BRANCH   1  15
ATOM     15  C   UNL     1       1.382   4.427  20.440  0.00  0.00    +0.000 C 
BRANCH  15  16
ATOM     16  O   UNL     1       1.870   5.611  21.059  0.00  0.00    +0.000 OA
BRANCH  16  24
ATOM     17  C   UNL     1       0.410   8.210  22.026  0.00  0.00    +0.000 C 
ATOM     18  C   UNL     1       1.168   7.995  20.747  0.00  0.00    +0.000 A 
ATOM     19  C   UNL     1       1.241   9.105  19.873  0.00  0.00    +0.000 A 
ATOM     20  C   UNL     1       1.903   9.027  18.651  0.00  0.00    +0.000 A 
ATOM     21 CL   UNL     1       1.935  10.394  17.607  0.00  0.00    +0.000 Cl
ATOM     22  C   UNL     1       2.525   7.845  18.278  0.00  0.00    +0.000 A 
ATOM     23  C   UNL     1       2.483   6.746  19.140  0.00  0.00    +0.000 A 
ATOM     24  C   UNL     1       1.795   6.794  20.367  0.00  0.00    +0.000 A 
ENDBRANCH  16  24
ENDBRANCH  15  16
ENDBRANCH   1  15
TORSDOF 4
ENDMDL
MODEL 2
REMARK VINA RESULT:      -7.2      1.071      1.874
REMARK  Name = 
REMARK  5 active torsions:
REMARK  status: ('A' for Active; 'I' for Inactive)
REMARK    1  A    between atoms: C_1  and  C_2
REMARK    2  A    between atoms: C_8  and  O_9
REMARK    3  A    between atoms: O_9  and  C_10
REMARK    4  A    between atoms: C_10  and  C_11
REMARK    5  A    between atoms: C_16  and  C_17
REMARK                            x       y       z     vdW  Elec       q    Type
REMARK                         _______ _______ _______ _____ _____    ______ ____
ROOT
ATOM      1  C   UNL     1       1.998   3.400  20.923  0.00  0.00    +0.000 C 
ATOM      2  O   UNL     1       1.287   2.901  21.787  0.00  0.00    +0.000 OA
ATOM      3  N   UNL     1       3.158   2.762  20.543  0.00  0.00    +0.000 N 
ATOM      4  C   UNL     1       3.931   3.248  19.528  0.00  0.00    +0.000 A 
ATOM      5  N   UNL     1       4.798   4.217  19.649  0.00  0.00    +0.000 NA
ATOM      6  C   UNL     1       5.246   4.583  18.385  0.00  0.00    +0.000 A 
ATOM      7  C   UNL     1       4.632   3.919  17.340  0.00  0.00    +0.000 A 
ATOM      8  S   UNL     1       3.595   2.692  17.958  0.00  0.00    +0.000 S 
ATOM      9  H   UNL     1       3.291   1.818  20.865  0.00  0.00    +0.000 HD
ENDROOT
BRANCH   6  10
ATOM     10  C   UNL     1       6.321   5.612  18.228  0.00  0.00    +0.000 A 
ATOM     11  C   UNL     1       6.304   6.559  17.224  0.00  0.00    +0.000 A 
ATOM     12  C   UNL     1       7.383   7.484  17.333  0.00  0.00    +0.000 A 
ATOM     13  C   UNL     1       8.216   7.177  18.385  0.00  0.00    +0.000 A 
ATOM     14  S   UNL     1       7.667   5.811  19.259  0.00  0.00    +0.000 S 
ENDBRANCH   6  10
BRANCH   1  15
ATOM     15  C   UNL     1       1.624   4.727  20.219  0.00  0.00    +0.000 C 
BRANCH  15  16
ATOM     16  O   UNL     1       2.108   5.861  20.930  0.00  0.00    +0.000 OA
BRANCH  16  24
ATOM     17  C   UNL     1       2.854   7.184  18.189  0.00  0.00    +0.000 C 
ATOM     18  C   UNL     1       2.017   7.757  19.297  0.00  0.00    +0.000 A 
ATOM     19  C   UNL     1       1.490   9.050  19.073  0.00  0.00    +0.000 A 
ATOM     20  C   UNL     1       0.711   9.695  20.029  0.00  0.00    +0.000 A 
ATOM     21 CL   UNL     1       0.122  11.283  19.725  0.00  0.00    +0.000 Cl
ATOM     22  C   UNL     1       0.420   9.057  21.226  0.00  0.00    +0.000 A 
ATOM     23  C   UNL     1       0.912   7.769  21.453  0.00  0.00    +0.000 A 
ATOM     24  C   UNL     1       1.727   7.111  20.512  0.00  0.00    +0.000 A 
ENDBRANCH  16  24
ENDBRANCH  15  16
ENDBRANCH   1  15
TORSDOF 4
ENDMDL
MODEL 3
REMARK VINA RESULT:      -7.1      2.869      5.292
REMARK  Name = 
REMARK  5 active torsions:
REMARK  status: ('A' for Active; 'I' for Inactive)
REMARK    1  A    between atoms: C_1  and  C_2
REMARK    2  A    between atoms: C_8  and  O_9
REMARK    3  A    between atoms: O_9  and  C_10
REMARK    4  A    between atoms: C_10  and  C_11
REMARK    5  A    between atoms: C_16  and  C_17
REMARK                            x       y       z     vdW  Elec       q    Type
REMARK                         _______ _______ _______ _____ _____    ______ ____
ROOT
ATOM      1  C   UNL     1       3.815   2.858  18.603  0.00  0.00    +0.000 C 
ATOM      2  O   UNL     1       4.124   1.766  18.142  0.00  0.00    +0.000 OA
ATOM      3  N   UNL     1       2.498   3.258  18.584  0.00  0.00    +0.000 N 
ATOM      4  C   UNL     1       2.108   4.433  19.160  0.00  0.00    +0.000 A 
ATOM      5  N   UNL     1       2.213   5.608  18.602  0.00  0.00    +0.000 NA
ATOM      6  C   UNL     1       1.914   6.584  19.546  0.00  0.00    +0.000 A 
ATOM      7  C   UNL     1       1.668   6.103  20.817  0.00  0.00    +0.000 A 
ATOM      8  S   UNL     1       1.643   4.382  20.794  0.00  0.00    +0.000 S 
ATOM      9  H   UNL     1       1.809   2.562  18.351  0.00  0.00    +0.000 HD
ENDROOT
BRANCH   6  10
ATOM     10  C   UNL     1       1.864   8.028  19.155  0.00  0.00    +0.000 A 
ATOM     11  C   UNL     1       2.434   8.504  17.992  0.00  0.00    +0.000 A 
ATOM     12  C   UNL     1       2.179   9.892  17.792  0.00  0.00    +0.000 A 
ATOM     13  C   UNL     1       1.469  10.438  18.837  0.00  0.00    +0.000 A 
ATOM     14  S   UNL     1       1.074   9.269  20.023  0.00  0.00    +0.000 S 
ENDBRANCH   6  10
BRANCH   1  15
ATOM     15  C   UNL     1       4.863   3.809  19.231  0.00  0.00    +0.000 C 
BRANCH  15  16
ATOM     16  O   UNL     1       6.004   3.970  18.397  0.00  0.00    +0.000 OA
BRANCH  16  24
ATOM     17  C   UNL     1       4.809   5.999  16.330  0.00  0.00    +0.000 C 
ATOM     18  C   UNL     1       5.975   6.199  17.255  0.00  0.00    +0.000 A 
ATOM     19  C   UNL     1       6.608   7.462  17.195  0.00  0.00    +0.000 A 
ATOM     20  C   UNL     1       7.708   7.764  17.992  0.00  0.00    +0.000 A 
ATOM     21 CL   UNL     1       8.466   9.303  17.857  0.00  0.00    +0.000 Cl
ATOM     22  C   UNL     1       8.194   6.820  18.884  0.00  0.00    +0.000 A 
ATOM     23  C   UNL     1       7.565   5.575  18.974  0.00  0.00    +0.000 A 
ATOM     24  C   UNL     1       6.470   5.238  18.157  0.00  0.00    +0.000 A 
ENDBRANCH  16  24
ENDBRANCH  15  16
ENDBRANCH   1  15
TORSDOF 4
ENDMDL
MODEL 4
REMARK VINA RESULT:      -7.1      1.323      2.076
REMARK  Name = 
REMARK  5 active torsions:
REMARK  status: ('A' for Active; 'I' for Inactive)
REMARK    1  A    between atoms: C_1  and  C_2
REMARK    2  A    between atoms: C_8  and  O_9
REMARK    3  A    between atoms: O_9  and  C_10
REMARK    4  A    between atoms: C_10  and  C_11
REMARK    5  A    between atoms: C_16  and  C_17
REMARK                            x       y       z     vdW  Elec       q    Type
REMARK                         _______ _______ _______ _____ _____    ______ ____
ROOT
ATOM      1  C   UNL     1       2.270   3.502  21.253  0.00  0.00    +0.000 C 
ATOM      2  O   UNL     1       1.891   3.341  22.407  0.00  0.00    +0.000 OA
ATOM      3  N   UNL     1       3.141   2.597  20.689  0.00  0.00    +0.000 N 
ATOM      4  C   UNL     1       3.521   2.702  19.382  0.00  0.00    +0.000 A 
ATOM      5  N   UNL     1       4.454   3.500  18.938  0.00  0.00    +0.000 NA
ATOM      6  C   UNL     1       4.429   3.495  17.548  0.00  0.00    +0.000 A 
ATOM      7  C   UNL     1       3.412   2.743  16.991  0.00  0.00    +0.000 A 
ATOM      8  S   UNL     1       2.574   1.889  18.228  0.00  0.00    +0.000 S 
ATOM      9  H   UNL     1       3.299   1.737  21.188  0.00  0.00    +0.000 HD
ENDROOT
BRANCH   6  10
ATOM     10  C   UNL     1       5.457   4.252  16.767  0.00  0.00    +0.000 A 
ATOM     11  C   UNL     1       6.235   5.246  17.328  0.00  0.00    +0.000 A 
ATOM     12  C   UNL     1       7.202   5.757  16.415  0.00  0.00    +0.000 A 
ATOM     13  C   UNL     1       7.092   5.174  15.173  0.00  0.00    +0.000 A 
ATOM     14  S   UNL     1       5.862   3.984  15.130  0.00  0.00    +0.000 S 
ENDBRANCH   6  10
BRANCH   1  15
ATOM     15  C   UNL     1       1.783   4.691  20.388  0.00  0.00    +0.000 C 
BRANCH  15  16
ATOM     16  O   UNL     1       2.591   5.847  20.571  0.00  0.00    +0.000 OA
BRANCH  16  24
ATOM     17  C   UNL     1       3.199   7.047  17.740  0.00  0.00    +0.000 C 
ATOM     18  C   UNL     1       2.361   7.640  18.837  0.00  0.00    +0.000 A 
ATOM     19  C   UNL     1       1.762   8.889  18.555  0.00  0.00    +0.000 A 
ATOM     20  C   UNL     1       0.973   9.547  19.494  0.00  0.00    +0.000 A 
ATOM     21 CL   UNL     1       0.295  11.083  19.117  0.00  0.00    +0.000 Cl
ATOM     22  C   UNL     1       0.746   8.966  20.733  0.00  0.00    +0.000 A 
ATOM     23  C   UNL     1       1.310   7.720  21.019  0.00  0.00    +0.000 A 
ATOM     24  C   UNL     1       2.134   7.050  20.094  0.00  0.00    +0.000 A 
ENDBRANCH  16  24
ENDBRANCH  15  16
ENDBRANCH   1  15
TORSDOF 4
ENDMDL
MODEL 5
REMARK VINA RESULT:      -6.7      5.262      8.111
REMARK  Name = 
REMARK  5 active torsions:
REMARK  status: ('A' for Active; 'I' for Inactive)
REMARK    1  A    between atoms: C_1  and  C_2
REMARK    2  A    between atoms: C_8  and  O_9
REMARK    3  A    between atoms: O_9  and  C_10
REMARK    4  A    between atoms: C_10  and  C_11
REMARK    5  A    between atoms: C_16  and  C_17
REMARK                            x       y       z     vdW  Elec       q    Type
REMARK                         _______ _______ _______ _____ _____    ______ ____
ROOT
ATOM      1  C   UNL     1       0.695   9.748  22.070  0.00  0.00    +0.000 C 
ATOM      2  O   UNL     1       1.110   9.397  23.168  0.00  0.00    +0.000 OA
ATOM      3  N   UNL     1       0.138  10.999  21.920  0.00  0.00    +0.000 N 
ATOM      4  C   UNL     1      -0.260  11.452  20.695  0.00  0.00    +0.000 A 
ATOM      5  N   UNL     1      -1.393  11.151  20.121  0.00  0.00    +0.000 NA
ATOM      6  C   UNL     1      -1.373  11.616  18.811  0.00  0.00    +0.000 A 
ATOM      7  C   UNL     1      -0.178  12.188  18.419  0.00  0.00    +0.000 A 
ATOM      8  S   UNL     1       0.885  12.300  19.769  0.00  0.00    +0.000 S 
ATOM      9  H   UNL     1       0.251  11.648  22.681  0.00  0.00    +0.000 HD
ENDROOT
BRANCH   6  10
ATOM     10  C   UNL     1      -2.586  11.492  17.942  0.00  0.00    +0.000 A 
ATOM     11  C   UNL     1      -2.514  11.123  16.614  0.00  0.00    +0.000 A 
ATOM     12  C   UNL     1      -3.802  10.985  16.020  0.00  0.00    +0.000 A 
ATOM     13  C   UNL     1      -4.809  11.307  16.901  0.00  0.00    +0.000 A 
ATOM     14  S   UNL     1      -4.200  11.724  18.445  0.00  0.00    +0.000 S 
ENDBRANCH   6  10
BRANCH   1  15
ATOM     15  C   UNL     1       0.795   8.834  20.825  0.00  0.00    +0.000 C 
BRANCH  15  16
ATOM     16  O   UNL     1       1.957   8.013  20.859  0.00  0.00    +0.000 OA
BRANCH  16  24
ATOM     17  C   UNL     1       2.852   8.116  17.858  0.00  0.00    +0.000 C 
ATOM     18  C   UNL     1       2.431   6.916  18.658  0.00  0.00    +0.000 A 
ATOM     19  C   UNL     1       2.451   5.677  17.978  0.00  0.00    +0.000 A 
ATOM     20  C   UNL     1       2.069   4.495  18.607  0.00  0.00    +0.000 A 
ATOM     21 CL   UNL     1       2.075   3.017  17.726  0.00  0.00    +0.000 Cl
ATOM     22  C   UNL     1       1.677   4.517  19.937  0.00  0.00    +0.000 A 
ATOM     23  C   UNL     1       1.676   5.729  20.631  0.00  0.00    +0.000 A 
ATOM     24  C   UNL     1       2.030   6.940  20.007  0.00  0.00    +0.000 A 
ENDBRANCH  16  24
ENDBRANCH  15  16
ENDBRANCH   1  15
TORSDOF 4
ENDMDL
MODEL 6
REMARK VINA RESULT:      -6.7      1.820      2.483
REMARK  Name = 
REMARK  5 active torsions:
REMARK  status: ('A' for Active; 'I' for Inactive)
REMARK    1  A    between atoms: C_1  and  C_2
REMARK    2  A    between atoms: C_8  and  O_9
REMARK    3  A    between atoms: O_9  and  C_10
REMARK    4  A    between atoms: C_10  and  C_11
REMARK    5  A    between atoms: C_16  and  C_17
REMARK                            x       y       z     vdW  Elec       q    Type
REMARK                         _______ _______ _______ _____ _____    ______ ____
ROOT
ATOM      1  C   UNL     1       2.394   3.810  21.107  0.00  0.00    +0.000 C 
ATOM      2  O   UNL     1       2.130   3.739  22.301  0.00  0.00    +0.000 OA
ATOM      3  N   UNL     1       3.207   2.859  20.531  0.00  0.00    +0.000 N 
ATOM      4  C   UNL     1       3.456   2.863  19.189  0.00  0.00    +0.000 A 
ATOM      5  N   UNL     1       4.340   3.618  18.597  0.00  0.00    +0.000 NA
ATOM      6  C   UNL     1       4.180   3.509  17.220  0.00  0.00    +0.000 A 
ATOM      7  C   UNL     1       3.114   2.724  16.824  0.00  0.00    +0.000 A 
ATOM      8  S   UNL     1       2.401   1.971  18.199  0.00  0.00    +0.000 S 
ATOM      9  H   UNL     1       3.413   2.038  21.076  0.00  0.00    +0.000 HD
ENDROOT
BRANCH   6  10
ATOM     10  C   UNL     1       5.126   4.198  16.288  0.00  0.00    +0.000 A 
ATOM     11  C   UNL     1       5.860   3.518  15.337  0.00  0.00    +0.000 A 
ATOM     12  C   UNL     1       6.620   4.395  14.510  0.00  0.00    +0.000 A 
ATOM     13  C   UNL     1       6.481   5.709  14.894  0.00  0.00    +0.000 A 
ATOM     14  S   UNL     1       5.402   5.881  16.212  0.00  0.00    +0.000 S 
ENDBRANCH   6  10
BRANCH   1  15
ATOM     15  C   UNL     1       1.824   4.933  20.207  0.00  0.00    +0.000 C 
BRANCH  15  16
ATOM     16  O   UNL     1       2.592   6.127  20.295  0.00  0.00    +0.000 OA
BRANCH  16  24
ATOM     17  C   UNL     1       2.798   7.980  17.776  0.00  0.00    +0.000 C 
ATOM     18  C   UNL     1       1.998   8.204  19.027  0.00  0.00    +0.000 A 
ATOM     19  C   UNL     1       1.233   9.393  19.071  0.00  0.00    +0.000 A 
ATOM     20  C   UNL     1       0.460   9.720  20.182  0.00  0.00    +0.000 A 
ATOM     21 CL   UNL     1      -0.425  11.196  20.203  0.00  0.00    +0.000 Cl
ATOM     22  C   UNL     1       0.415   8.860  21.269  0.00  0.00    +0.000 A 
ATOM     23  C   UNL     1       1.145   7.669  21.231  0.00  0.00    +0.000 A 
ATOM     24  C   UNL     1       1.956   7.332  20.131  0.00  0.00    +0.000 A 
ENDBRANCH  16  24
ENDBRANCH  15  16
ENDBRANCH   1  15
TORSDOF 4
ENDMDL
MODEL 7
REMARK VINA RESULT:      -6.6      1.550      1.826
REMARK  Name = 
REMARK  5 active torsions:
REMARK  status: ('A' for Active; 'I' for Inactive)
REMARK    1  A    between atoms: C_1  and  C_2
REMARK    2  A    between atoms: C_8  and  O_9
REMARK    3  A    between atoms: O_9  and  C_10
REMARK    4  A    between atoms: C_10  and  C_11
REMARK    5  A    between atoms: C_16  and  C_17
REMARK                            x       y       z     vdW  Elec       q    Type
REMARK                         _______ _______ _______ _____ _____    ______ ____
ROOT
ATOM      1  C   UNL     1       2.460   3.432  21.304  0.00  0.00    +0.000 C 
ATOM      2  O   UNL     1       2.108   3.055  22.416  0.00  0.00    +0.000 OA
ATOM      3  N   UNL     1       2.625   2.511  20.294  0.00  0.00    +0.000 N 
ATOM      4  C   UNL     1       2.938   2.904  19.025  0.00  0.00    +0.000 A 
ATOM      5  N   UNL     1       4.139   3.202  18.611  0.00  0.00    +0.000 NA
ATOM      6  C   UNL     1       4.055   3.753  17.337  0.00  0.00    +0.000 A 
ATOM      7  C   UNL     1       2.768   3.922  16.865  0.00  0.00    +0.000 A 
ATOM      8  S   UNL     1       1.646   3.222  17.968  0.00  0.00    +0.000 S 
ATOM      9  H   UNL     1       2.280   1.579  20.459  0.00  0.00    +0.000 HD
ENDROOT
BRANCH   6  10
ATOM     10  C   UNL     1       5.296   4.103  16.578  0.00  0.00    +0.000 A 
ATOM     11  C   UNL     1       5.368   4.038  15.200  0.00  0.00    +0.000 A 
ATOM     12  C   UNL     1       6.619   4.504  14.701  0.00  0.00    +0.000 A 
ATOM     13  C   UNL     1       7.477   4.856  15.717  0.00  0.00    +0.000 A 
ATOM     14  S   UNL     1       6.756   4.670  17.259  0.00  0.00    +0.000 S 
ENDBRANCH   6  10
BRANCH   1  15
ATOM     15  C   UNL     1       2.708   4.926  20.985  0.00  0.00    +0.000 C 
BRANCH  15  16
ATOM     16  O   UNL     1       1.494   5.632  20.762  0.00  0.00    +0.000 OA
BRANCH  16  24
ATOM     17  C   UNL     1       0.144   8.238  21.860  0.00  0.00    +0.000 C 
ATOM     18  C   UNL     1       0.980   8.079  20.622  0.00  0.00    +0.000 A 
ATOM     19  C   UNL     1       1.195   9.252  19.862  0.00  0.00    +0.000 A 
ATOM     20  C   UNL     1       1.940   9.231  18.687  0.00  0.00    +0.000 A 
ATOM     21 CL   UNL     1       2.144  10.678  17.777  0.00  0.00    +0.000 Cl
ATOM     22  C   UNL     1       2.507   8.044  18.250  0.00  0.00    +0.000 A 
ATOM     23  C   UNL     1       2.326   6.880  19.003  0.00  0.00    +0.000 A 
ATOM     24  C   UNL     1       1.552   6.872  20.178  0.00  0.00    +0.000 A 
ENDBRANCH  16  24
ENDBRANCH  15  16
ENDBRANCH   1  15
TORSDOF 4
ENDMDL
MODEL 8
REMARK VINA RESULT:      -6.6      2.851      3.654
REMARK  Name = 
REMARK  5 active torsions:
REMARK  status: ('A' for Active; 'I' for Inactive)
REMARK    1  A    between atoms: C_1  and  C_2
REMARK    2  A    between atoms: C_8  and  O_9
REMARK    3  A    between atoms: O_9  and  C_10
REMARK    4  A    between atoms: C_10  and  C_11
REMARK    5  A    between atoms: C_16  and  C_17
REMARK                            x       y       z     vdW  Elec       q    Type
REMARK                         _______ _______ _______ _____ _____    ______ ____
ROOT
ATOM      1  C   UNL     1       1.608   7.678  20.685  0.00  0.00    +0.000 C 
ATOM      2  O   UNL     1       1.090   8.315  21.594  0.00  0.00    +0.000 OA
ATOM      3  N   UNL     1       2.090   6.411  20.930  0.00  0.00    +0.000 N 
ATOM      4  C   UNL     1       2.600   5.643  19.923  0.00  0.00    +0.000 A 
ATOM      5  N   UNL     1       3.812   5.744  19.449  0.00  0.00    +0.000 NA
ATOM      6  C   UNL     1       3.917   4.959  18.306  0.00  0.00    +0.000 A 
ATOM      7  C   UNL     1       2.741   4.349  17.914  0.00  0.00    +0.000 A 
ATOM      8  S   UNL     1       1.518   4.628  19.093  0.00  0.00    +0.000 S 
ATOM      9  H   UNL     1       1.841   5.985  21.807  0.00  0.00    +0.000 HD
ENDROOT
BRANCH   6  10
ATOM     10  C   UNL     1       5.231   4.810  17.605  0.00  0.00    +0.000 A 
ATOM     11  C   UNL     1       6.441   4.910  18.263  0.00  0.00    +0.000 A 
ATOM     12  C   UNL     1       7.547   4.643  17.406  0.00  0.00    +0.000 A 
ATOM     13  C   UNL     1       7.146   4.402  16.112  0.00  0.00    +0.000 A 
ATOM     14  S   UNL     1       5.442   4.451  15.950  0.00  0.00    +0.000 S 
ENDBRANCH   6  10
BRANCH   1  15
ATOM     15  C   UNL     1       1.723   8.244  19.249  0.00  0.00    +0.000 C 
BRANCH  15  16
ATOM     16  O   UNL     1       1.566   9.658  19.221  0.00  0.00    +0.000 OA
BRANCH  16  24
ATOM     17  C   UNL     1       0.128  11.743  21.065  0.00  0.00    +0.000 C 
ATOM     18  C   UNL     1      -0.385  11.118  19.799  0.00  0.00    +0.000 A 
ATOM     19  C   UNL     1      -1.672  11.528  19.381  0.00  0.00    +0.000 A 
ATOM     20  C   UNL     1      -2.262  11.011  18.231  0.00  0.00    +0.000 A 
ATOM     21 CL   UNL     1      -3.845  11.514  17.782  0.00  0.00    +0.000 Cl
ATOM     22  C   UNL     1      -1.575  10.086  17.459  0.00  0.00    +0.000 A 
ATOM     23  C   UNL     1      -0.293   9.688  17.845  0.00  0.00    +0.000 A 
ATOM     24  C   UNL     1       0.312  10.176  19.019  0.00  0.00    +0.000 A 
ENDBRANCH  16  24
ENDBRANCH  15  16
ENDBRANCH   1  15
TORSDOF 4
ENDMDL
MODEL 9
REMARK VINA RESULT:      -6.6      2.915      3.878
REMARK  Name = 
REMARK  5 active torsions:
REMARK  status: ('A' for Active; 'I' for Inactive)
REMARK    1  A    between atoms: C_1  and  C_2
REMARK    2  A    between atoms: C_8  and  O_9
REMARK    3  A    between atoms: O_9  and  C_10
REMARK    4  A    between atoms: C_10  and  C_11
REMARK    5  A    between atoms: C_16  and  C_17
REMARK                            x       y       z     vdW  Elec       q    Type
REMARK                         _______ _______ _______ _____ _____    ______ ____
ROOT
ATOM      1  C   UNL     1       1.950   7.690  20.186  0.00  0.00    +0.000 C 
ATOM      2  O   UNL     1       1.553   8.364  21.129  0.00  0.00    +0.000 OA
ATOM      3  N   UNL     1       2.562   6.479  20.423  0.00  0.00    +0.000 N 
ATOM      4  C   UNL     1       2.944   5.667  19.395  0.00  0.00    +0.000 A 
ATOM      5  N   UNL     1       4.043   5.805  18.704  0.00  0.00    +0.000 NA
ATOM      6  C   UNL     1       4.005   4.940  17.617  0.00  0.00    +0.000 A 
ATOM      7  C   UNL     1       2.827   4.229  17.485  0.00  0.00    +0.000 A 
ATOM      8  S   UNL     1       1.813   4.524  18.844  0.00  0.00    +0.000 S 
ATOM      9  H   UNL     1       2.503   6.109  21.358  0.00  0.00    +0.000 HD
ENDROOT
BRANCH   6  10
ATOM     10  C   UNL     1       5.183   4.818  16.702  0.00  0.00    +0.000 A 
ATOM     11  C   UNL     1       5.108   4.197  15.471  0.00  0.00    +0.000 A 
ATOM     12  C   UNL     1       6.330   4.284  14.745  0.00  0.00    +0.000 A 
ATOM     13  C   UNL     1       7.312   4.921  15.469  0.00  0.00    +0.000 A 
ATOM     14  S   UNL     1       6.742   5.450  16.994  0.00  0.00    +0.000 S 
ENDBRANCH   6  10
BRANCH   1  15
ATOM     15  C   UNL     1       1.769   8.147  18.718  0.00  0.00    +0.000 C 
BRANCH  15  16
ATOM     16  O   UNL     1       1.666   9.562  18.610  0.00  0.00    +0.000 OA
BRANCH  16  24
ATOM     17  C   UNL     1       0.758  11.719  20.694  0.00  0.00    +0.000 C 
ATOM     18  C   UNL     1      -0.045  11.114  19.578  0.00  0.00    +0.000 A 
ATOM     19  C   UNL     1      -1.372  11.582  19.442  0.00  0.00    +0.000 A 
ATOM     20  C   UNL     1      -2.221  11.089  18.455  0.00  0.00    +0.000 A 
ATOM     21 CL   UNL     1      -3.839  11.664  18.352  0.00  0.00    +0.000 Cl
ATOM     22  C   UNL     1      -1.760  10.130  17.565  0.00  0.00    +0.000 A 
ATOM     23  C   UNL     1      -0.444   9.674  17.670  0.00  0.00    +0.000 A 
ATOM     24  C   UNL     1       0.422  10.138  18.678  0.00  0.00    +0.000 A 
ENDBRANCH  16  24
ENDBRANCH  15  16
ENDBRANCH   1  15
TORSDOF 4
ENDMDL
