MODEL 1
REMARK VINA RESULT:      -8.1      0.000      0.000
REMARK  Name = 
REMARK  6 active torsions:
REMARK  status: ('A' for Active; 'I' for Inactive)
REMARK    1  A    between atoms: C_1  and  C_2
REMARK    2  A    between atoms: C_2  and  C_3
REMARK    3  A    between atoms: C_6  and  S_7
REMARK    4  A    between atoms: S_7  and  C_8
REMARK    5  A    between atoms: C_8  and  C_9
REMARK    6  A    between atoms: C_20  and  C_21
REMARK                            x       y       z     vdW  Elec       q    Type
REMARK                         _______ _______ _______ _____ _____    ______ ____
ROOT
ATOM      1  C   UNL     1       3.103   3.636  19.747  0.00  0.00    +0.000 A 
ATOM      2  N   UNL     1       3.671   2.659  19.099  0.00  0.00    +0.000 NA
ATOM      3  N   UNL     1       4.195   2.874  17.782  0.00  0.00    +0.000 NA
ATOM      4  C   UNL     1       4.124   4.049  17.245  0.00  0.00    +0.000 A 
ATOM      5  C   UNL     1       3.497   5.154  17.926  0.00  0.00    +0.000 A 
ATOM      6  C   UNL     1       3.286   6.475  17.587  0.00  0.00    +0.000 A 
ATOM      7  C   UNL     1       2.595   7.048  18.689  0.00  0.00    +0.000 A 
ATOM      8  S   UNL     1       1.937   8.583  19.142  0.00  0.00    +0.000 S 
ATOM      9  C   UNL     1       1.404   7.923  20.632  0.00  0.00    +0.000 A 
ATOM     10  C   UNL     1       0.690   8.788  21.621  0.00  0.00    +0.000 C 
ATOM     11  C   UNL     1       1.707   6.583  20.782  0.00  0.00    +0.000 A 
ATOM     12  C   UNL     1       2.411   6.086  19.644  0.00  0.00    +0.000 A 
ATOM     13  N   UNL     1       2.985   4.906  19.183  0.00  0.00    +0.000 N 
ENDROOT
BRANCH   1  15
ATOM     14  C   UNL     1       1.206   2.798  21.145  0.00  0.00    +0.000 C 
ATOM     15  C   UNL     1       2.586   3.440  21.148  0.00  0.00    +0.000 C 
ENDBRANCH   1  15
BRANCH   4  16
ATOM     16  S   UNL     1       4.818   4.408  15.683  0.00  0.00    +0.000 S 
BRANCH  16  17
ATOM     17  C   UNL     1       6.589   4.108  15.952  0.00  0.00    +0.000 C 
BRANCH  17  18
ATOM     18  C   UNL     1       7.156   5.120  16.933  0.00  0.00    +0.000 A 
ATOM     19  C   UNL     1       7.650   4.703  18.183  0.00  0.00    +0.000 A 
ATOM     20  C   UNL     1       8.107   5.635  19.121  0.00  0.00    +0.000 A 
ATOM     21  C   UNL     1       8.069   6.997  18.830  0.00  0.00    +0.000 A 
ATOM     22  C   UNL     1       7.592   7.417  17.594  0.00  0.00    +0.000 A 
ATOM     23  F   UNL     1       7.559   8.725  17.309  0.00  0.00    +0.000 F 
ATOM     24  C   UNL     1       7.139   6.496  16.647  0.00  0.00    +0.000 A 
ENDBRANCH  17  18
ENDBRANCH  16  17
ENDBRANCH   4  16
TORSDOF 4
ENDMDL
MODEL 2
REMARK VINA RESULT:      -8.0      3.556      5.435
REMARK  Name = 
REMARK  6 active torsions:
REMARK  status: ('A' for Active; 'I' for Inactive)
REMARK    1  A    between atoms: C_1  and  C_2
REMARK    2  A    between atoms: C_2  and  C_3
REMARK    3  A    between atoms: C_6  and  S_7
REMARK    4  A    between atoms: S_7  and  C_8
REMARK    5  A    between atoms: C_8  and  C_9
REMARK    6  A    between atoms: C_20  and  C_21
REMARK                            x       y       z     vdW  Elec       q    Type
REMARK                         _______ _______ _______ _____ _____    ______ ____
ROOT
ATOM      1  C   UNL     1       6.110   4.899  15.681  0.00  0.00    +0.000 A 
ATOM      2  N   UNL     1       7.139   5.599  15.298  0.00  0.00    +0.000 NA
ATOM      3  N   UNL     1       7.792   6.485  16.217  0.00  0.00    +0.000 NA
ATOM      4  C   UNL     1       7.369   6.572  17.438  0.00  0.00    +0.000 A 
ATOM      5  C   UNL     1       6.229   5.819  17.897  0.00  0.00    +0.000 A 
ATOM      6  C   UNL     1       5.583   5.732  19.113  0.00  0.00    +0.000 A 
ATOM      7  C   UNL     1       4.511   4.819  18.914  0.00  0.00    +0.000 A 
ATOM      8  S   UNL     1       3.218   4.128  19.833  0.00  0.00    +0.000 S 
ATOM      9  C   UNL     1       2.700   3.248  18.455  0.00  0.00    +0.000 A 
ATOM     10  C   UNL     1       1.515   2.341  18.548  0.00  0.00    +0.000 C 
ATOM     11  C   UNL     1       3.475   3.473  17.333  0.00  0.00    +0.000 A 
ATOM     12  C   UNL     1       4.536   4.386  17.616  0.00  0.00    +0.000 A 
ATOM     13  N   UNL     1       5.613   4.992  16.980  0.00  0.00    +0.000 N 
ENDROOT
BRANCH   1  15
ATOM     14  C   UNL     1       6.187   3.831  13.420  0.00  0.00    +0.000 C 
ATOM     15  C   UNL     1       5.439   3.930  14.741  0.00  0.00    +0.000 C 
ENDBRANCH   1  15
BRANCH   4  16
ATOM     16  S   UNL     1       8.165   7.561  18.636  0.00  0.00    +0.000 S 
BRANCH  16  17
ATOM     17  C   UNL     1       8.071   9.224  17.910  0.00  0.00    +0.000 C 
BRANCH  17  18
ATOM     18  C   UNL     1       9.099  10.141  18.550  0.00  0.00    +0.000 A 
ATOM     19  C   UNL     1       9.120  10.327  19.945  0.00  0.00    +0.000 A 
ATOM     20  C   UNL     1      10.015  11.225  20.535  0.00  0.00    +0.000 A 
ATOM     21  C   UNL     1      10.897  11.958  19.743  0.00  0.00    +0.000 A 
ATOM     22  C   UNL     1      10.889  11.772  18.365  0.00  0.00    +0.000 A 
ATOM     23  F   UNL     1      11.739  12.471  17.601  0.00  0.00    +0.000 F 
ATOM     24  C   UNL     1      10.005  10.874  17.765  0.00  0.00    +0.000 A 
ENDBRANCH  17  18
ENDBRANCH  16  17
ENDBRANCH   4  16
TORSDOF 4
ENDMDL
MODEL 3
REMARK VINA RESULT:      -7.7      3.580      5.515
REMARK  Name = 
REMARK  6 active torsions:
REMARK  status: ('A' for Active; 'I' for Inactive)
REMARK    1  A    between atoms: C_1  and  C_2
REMARK    2  A    between atoms: C_2  and  C_3
REMARK    3  A    between atoms: C_6  and  S_7
REMARK    4  A    between atoms: S_7  and  C_8
REMARK    5  A    between atoms: C_8  and  C_9
REMARK    6  A    between atoms: C_20  and  C_21
REMARK                            x       y       z     vdW  Elec       q    Type
REMARK                         _______ _______ _______ _____ _____    ______ ____
ROOT
ATOM      1  C   UNL     1       6.191   4.859  15.743  0.00  0.00    +0.000 A 
ATOM      2  N   UNL     1       7.206   5.573  15.347  0.00  0.00    +0.000 NA
ATOM      3  N   UNL     1       7.831   6.500  16.243  0.00  0.00    +0.000 NA
ATOM      4  C   UNL     1       7.398   6.612  17.458  0.00  0.00    +0.000 A 
ATOM      5  C   UNL     1       6.274   5.845  17.932  0.00  0.00    +0.000 A 
ATOM      6  C   UNL     1       5.622   5.778  19.146  0.00  0.00    +0.000 A 
ATOM      7  C   UNL     1       4.575   4.834  18.968  0.00  0.00    +0.000 A 
ATOM      8  S   UNL     1       3.292   4.138  19.899  0.00  0.00    +0.000 S 
ATOM      9  C   UNL     1       2.805   3.207  18.545  0.00  0.00    +0.000 A 
ATOM     10  C   UNL     1       1.641   2.275  18.657  0.00  0.00    +0.000 C 
ATOM     11  C   UNL     1       3.581   3.419  17.421  0.00  0.00    +0.000 A 
ATOM     12  C   UNL     1       4.618   4.365  17.684  0.00  0.00    +0.000 A 
ATOM     13  N   UNL     1       5.684   4.978  17.037  0.00  0.00    +0.000 N 
ENDROOT
BRANCH   1  15
ATOM     14  C   UNL     1       6.170   3.885  13.439  0.00  0.00    +0.000 C 
ATOM     15  C   UNL     1       5.550   3.848  14.829  0.00  0.00    +0.000 C 
ENDBRANCH   1  15
BRANCH   4  16
ATOM     16  S   UNL     1       8.163   7.655  18.632  0.00  0.00    +0.000 S 
BRANCH  16  17
ATOM     17  C   UNL     1       8.062   9.288  17.844  0.00  0.00    +0.000 C 
BRANCH  17  18
ATOM     18  C   UNL     1       9.054  10.247  18.479  0.00  0.00    +0.000 A 
ATOM     19  C   UNL     1      10.062  10.848  17.703  0.00  0.00    +0.000 A 
ATOM     20  C   UNL     1      11.025  11.675  18.292  0.00  0.00    +0.000 A 
ATOM     21  C   UNL     1      11.000  11.908  19.666  0.00  0.00    +0.000 A 
ATOM     22  C   UNL     1      10.001  11.326  20.438  0.00  0.00    +0.000 A 
ATOM     23  F   UNL     1       9.972  11.552  21.758  0.00  0.00    +0.000 F 
ATOM     24  C   UNL     1       9.032  10.504  19.860  0.00  0.00    +0.000 A 
ENDBRANCH  17  18
ENDBRANCH  16  17
ENDBRANCH   4  16
TORSDOF 4
ENDMDL
MODEL 4
REMARK VINA RESULT:      -7.7      2.513      3.459
REMARK  Name = 
REMARK  6 active torsions:
REMARK  status: ('A' for Active; 'I' for Inactive)
REMARK    1  A    between atoms: C_1  and  C_2
REMARK    2  A    between atoms: C_2  and  C_3
REMARK    3  A    between atoms: C_6  and  S_7
REMARK    4  A    between atoms: S_7  and  C_8
REMARK    5  A    between atoms: C_8  and  C_9
REMARK    6  A    between atoms: C_20  and  C_21
REMARK                            x       y       z     vdW  Elec       q    Type
REMARK                         _______ _______ _______ _____ _____    ______ ____
ROOT
ATOM      1  C   UNL     1       3.028   4.696  19.937  0.00  0.00    +0.000 A 
ATOM      2  N   UNL     1       3.792   3.869  19.282  0.00  0.00    +0.000 NA
ATOM      3  N   UNL     1       4.412   4.276  18.056  0.00  0.00    +0.000 NA
ATOM      4  C   UNL     1       4.229   5.478  17.610  0.00  0.00    +0.000 A 
ATOM      5  C   UNL     1       3.385   6.419  18.302  0.00  0.00    +0.000 A 
ATOM      6  C   UNL     1       3.023   7.726  18.049  0.00  0.00    +0.000 A 
ATOM      7  C   UNL     1       2.149   8.094  19.108  0.00  0.00    +0.000 A 
ATOM      8  S   UNL     1       1.236   9.478  19.605  0.00  0.00    +0.000 S 
ATOM      9  C   UNL     1       0.653   8.614  20.966  0.00  0.00    +0.000 A 
ATOM     10  C   UNL     1      -0.274   9.277  21.933  0.00  0.00    +0.000 C 
ATOM     11  C   UNL     1       1.127   7.317  21.040  0.00  0.00    +0.000 A 
ATOM     12  C   UNL     1       2.008   7.029  19.954  0.00  0.00    +0.000 A 
ATOM     13  N   UNL     1       2.788   5.987  19.468  0.00  0.00    +0.000 N 
ENDROOT
BRANCH   1  15
ATOM     14  C   UNL     1       1.401   3.168  21.068  0.00  0.00    +0.000 C 
ATOM     15  C   UNL     1       2.403   4.299  21.250  0.00  0.00    +0.000 C 
ENDBRANCH   1  15
BRANCH   4  16
ATOM     16  S   UNL     1       5.020   6.074  16.172  0.00  0.00    +0.000 S 
BRANCH  16  17
ATOM     17  C   UNL     1       6.446   4.960  16.008  0.00  0.00    +0.000 C 
BRANCH  17  18
ATOM     18  C   UNL     1       6.698   4.633  14.546  0.00  0.00    +0.000 A 
ATOM     19  C   UNL     1       7.662   5.348  13.811  0.00  0.00    +0.000 A 
ATOM     20  C   UNL     1       7.850   5.104  12.446  0.00  0.00    +0.000 A 
ATOM     21  C   UNL     1       7.074   4.147  11.793  0.00  0.00    +0.000 A 
ATOM     22  C   UNL     1       6.128   3.430  12.514  0.00  0.00    +0.000 A 
ATOM     23  F   UNL     1       5.384   2.506  11.891  0.00  0.00    +0.000 F 
ATOM     24  C   UNL     1       5.935   3.660  13.878  0.00  0.00    +0.000 A 
ENDBRANCH  17  18
ENDBRANCH  16  17
ENDBRANCH   4  16
TORSDOF 4
ENDMDL
MODEL 5
REMARK VINA RESULT:      -7.5      2.193      3.119
REMARK  Name = 
REMARK  6 active torsions:
REMARK  status: ('A' for Active; 'I' for Inactive)
REMARK    1  A    between atoms: C_1  and  C_2
REMARK    2  A    between atoms: C_2  and  C_3
REMARK    3  A    between atoms: C_6  and  S_7
REMARK    4  A    between atoms: S_7  and  C_8
REMARK    5  A    between atoms: C_8  and  C_9
REMARK    6  A    between atoms: C_20  and  C_21
REMARK                            x       y       z     vdW  Elec       q    Type
REMARK                         _______ _______ _______ _____ _____    ______ ____
ROOT
ATOM      1  C   UNL     1       2.924   4.411  20.116  0.00  0.00    +0.000 A 
ATOM      2  N   UNL     1       3.661   3.557  19.465  0.00  0.00    +0.000 NA
ATOM      3  N   UNL     1       4.293   3.937  18.237  0.00  0.00    +0.000 NA
ATOM      4  C   UNL     1       4.148   5.142  17.785  0.00  0.00    +0.000 A 
ATOM      5  C   UNL     1       3.336   6.113  18.472  0.00  0.00    +0.000 A 
ATOM      6  C   UNL     1       3.015   7.430  18.212  0.00  0.00    +0.000 A 
ATOM      7  C   UNL     1       2.154   7.831  19.269  0.00  0.00    +0.000 A 
ATOM      8  S   UNL     1       1.285   9.246  19.759  0.00  0.00    +0.000 S 
ATOM      9  C   UNL     1       0.676   8.408  21.125  0.00  0.00    +0.000 A 
ATOM     10  C   UNL     1      -0.229   9.106  22.089  0.00  0.00    +0.000 C 
ATOM     11  C   UNL     1       1.109   7.098  21.206  0.00  0.00    +0.000 A 
ATOM     12  C   UNL     1       1.979   6.776  20.121  0.00  0.00    +0.000 A 
ATOM     13  N   UNL     1       2.725   5.706  19.641  0.00  0.00    +0.000 N 
ENDROOT
BRANCH   1  15
ATOM     14  C   UNL     1       1.266   2.926  21.260  0.00  0.00    +0.000 C 
ATOM     15  C   UNL     1       2.288   4.041  21.431  0.00  0.00    +0.000 C 
ENDBRANCH   1  15
BRANCH   4  16
ATOM     16  S   UNL     1       4.958   5.705  16.343  0.00  0.00    +0.000 S 
BRANCH  16  17
ATOM     17  C   UNL     1       6.051   4.315  15.929  0.00  0.00    +0.000 C 
BRANCH  17  18
ATOM     18  C   UNL     1       6.458   4.377  14.467  0.00  0.00    +0.000 A 
ATOM     19  C   UNL     1       5.934   3.456  13.540  0.00  0.00    +0.000 A 
ATOM     20  C   UNL     1       6.359   3.460  12.207  0.00  0.00    +0.000 A 
ATOM     21  C   UNL     1       7.317   4.377  11.780  0.00  0.00    +0.000 A 
ATOM     22  C   UNL     1       7.832   5.296  12.686  0.00  0.00    +0.000 A 
ATOM     23  F   UNL     1       8.750   6.182  12.277  0.00  0.00    +0.000 F 
ATOM     24  C   UNL     1       7.412   5.307  14.017  0.00  0.00    +0.000 A 
ENDBRANCH  17  18
ENDBRANCH  16  17
ENDBRANCH   4  16
TORSDOF 4
ENDMDL
MODEL 6
REMARK VINA RESULT:      -7.4      2.281      6.140
REMARK  Name = 
REMARK  6 active torsions:
REMARK  status: ('A' for Active; 'I' for Inactive)
REMARK    1  A    between atoms: C_1  and  C_2
REMARK    2  A    between atoms: C_2  and  C_3
REMARK    3  A    between atoms: C_6  and  S_7
REMARK    4  A    between atoms: S_7  and  C_8
REMARK    5  A    between atoms: C_8  and  C_9
REMARK    6  A    between atoms: C_20  and  C_21
REMARK                            x       y       z     vdW  Elec       q    Type
REMARK                         _______ _______ _______ _____ _____    ______ ____
ROOT
ATOM      1  C   UNL     1       6.849   5.419  18.513  0.00  0.00    +0.000 A 
ATOM      2  N   UNL     1       6.399   5.274  19.727  0.00  0.00    +0.000 NA
ATOM      3  N   UNL     1       5.279   4.419  19.985  0.00  0.00    +0.000 NA
ATOM      4  C   UNL     1       4.726   3.771  19.009  0.00  0.00    +0.000 A 
ATOM      5  C   UNL     1       5.189   3.911  17.652  0.00  0.00    +0.000 A 
ATOM      6  C   UNL     1       4.785   3.357  16.455  0.00  0.00    +0.000 A 
ATOM      7  C   UNL     1       5.642   3.912  15.466  0.00  0.00    +0.000 A 
ATOM      8  S   UNL     1       5.870   3.812  13.753  0.00  0.00    +0.000 S 
ATOM      9  C   UNL     1       7.162   4.935  13.853  0.00  0.00    +0.000 A 
ATOM     10  C   UNL     1       7.899   5.340  12.617  0.00  0.00    +0.000 C 
ATOM     11  C   UNL     1       7.410   5.379  15.139  0.00  0.00    +0.000 A 
ATOM     12  C   UNL     1       6.521   4.766  16.073  0.00  0.00    +0.000 A 
ATOM     13  N   UNL     1       6.256   4.759  17.438  0.00  0.00    +0.000 N 
ENDROOT
BRANCH   1  15
ATOM     14  C   UNL     1       7.644   7.692  17.833  0.00  0.00    +0.000 C 
ATOM     15  C   UNL     1       8.052   6.280  18.230  0.00  0.00    +0.000 C 
ENDBRANCH   1  15
BRANCH   4  16
ATOM     16  S   UNL     1       3.414   2.645  19.258  0.00  0.00    +0.000 S 
BRANCH  16  17
ATOM     17  C   UNL     1       1.978   3.554  18.616  0.00  0.00    +0.000 C 
BRANCH  17  18
ATOM     18  C   UNL     1       2.046   5.014  19.030  0.00  0.00    +0.000 A 
ATOM     19  C   UNL     1       1.730   5.398  20.347  0.00  0.00    +0.000 A 
ATOM     20  C   UNL     1       1.719   6.747  20.718  0.00  0.00    +0.000 A 
ATOM     21  C   UNL     1       2.016   7.733  19.779  0.00  0.00    +0.000 A 
ATOM     22  C   UNL     1       2.339   7.361  18.479  0.00  0.00    +0.000 A 
ATOM     23  F   UNL     1       2.630   8.307  17.576  0.00  0.00    +0.000 F 
ATOM     24  C   UNL     1       2.359   6.018  18.099  0.00  0.00    +0.000 A 
ENDBRANCH  17  18
ENDBRANCH  16  17
ENDBRANCH   4  16
TORSDOF 4
ENDMDL
MODEL 7
REMARK VINA RESULT:      -7.4      1.033      1.452
REMARK  Name = 
REMARK  6 active torsions:
REMARK  status: ('A' for Active; 'I' for Inactive)
REMARK    1  A    between atoms: C_1  and  C_2
REMARK    2  A    between atoms: C_2  and  C_3
REMARK    3  A    between atoms: C_6  and  S_7
REMARK    4  A    between atoms: S_7  and  C_8
REMARK    5  A    between atoms: C_8  and  C_9
REMARK    6  A    between atoms: C_20  and  C_21
REMARK                            x       y       z     vdW  Elec       q    Type
REMARK                         _______ _______ _______ _____ _____    ______ ____
ROOT
ATOM      1  C   UNL     1       2.470   3.448  19.321  0.00  0.00    +0.000 A 
ATOM      2  N   UNL     1       2.961   2.480  18.602  0.00  0.00    +0.000 NA
ATOM      3  N   UNL     1       3.672   2.768  17.392  0.00  0.00    +0.000 NA
ATOM      4  C   UNL     1       3.845   3.998  17.025  0.00  0.00    +0.000 A 
ATOM      5  C   UNL     1       3.311   5.096  17.789  0.00  0.00    +0.000 A 
ATOM      6  C   UNL     1       3.344   6.466  17.625  0.00  0.00    +0.000 A 
ATOM      7  C   UNL     1       2.614   7.002  18.720  0.00  0.00    +0.000 A 
ATOM      8  S   UNL     1       2.141   8.555  19.319  0.00  0.00    +0.000 S 
ATOM      9  C   UNL     1       1.334   7.810  20.635  0.00  0.00    +0.000 A 
ATOM     10  C   UNL     1       0.639   8.650  21.659  0.00  0.00    +0.000 C 
ATOM     11  C   UNL     1       1.411   6.430  20.620  0.00  0.00    +0.000 A 
ATOM     12  C   UNL     1       2.170   5.971  19.502  0.00  0.00    +0.000 A 
ATOM     13  N   UNL     1       2.614   4.780  18.937  0.00  0.00    +0.000 N 
ENDROOT
BRANCH   1  15
ATOM     14  C   UNL     1       2.707   2.590  21.659  0.00  0.00    +0.000 C 
ATOM     15  C   UNL     1       1.757   3.165  20.619  0.00  0.00    +0.000 C 
ENDBRANCH   1  15
BRANCH   4  16
ATOM     16  S   UNL     1       4.775   4.431  15.611  0.00  0.00    +0.000 S 
BRANCH  16  17
ATOM     17  C   UNL     1       6.478   4.057  16.121  0.00  0.00    +0.000 C 
BRANCH  17  18
ATOM     18  C   UNL     1       6.996   5.126  17.068  0.00  0.00    +0.000 A 
ATOM     19  C   UNL     1       7.073   6.469  16.653  0.00  0.00    +0.000 A 
ATOM     20  C   UNL     1       7.617   7.448  17.491  0.00  0.00    +0.000 A 
ATOM     21  C   UNL     1       8.098   7.101  18.752  0.00  0.00    +0.000 A 
ATOM     22  C   UNL     1       8.016   5.779  19.173  0.00  0.00    +0.000 A 
ATOM     23  F   UNL     1       8.474   5.444  20.387  0.00  0.00    +0.000 F 
ATOM     24  C   UNL     1       7.470   4.794  18.348  0.00  0.00    +0.000 A 
ENDBRANCH  17  18
ENDBRANCH  16  17
ENDBRANCH   4  16
TORSDOF 4
ENDMDL
MODEL 8
REMARK VINA RESULT:      -7.2      3.044      5.096
REMARK  Name = 
REMARK  6 active torsions:
REMARK  status: ('A' for Active; 'I' for Inactive)
REMARK    1  A    between atoms: C_1  and  C_2
REMARK    2  A    between atoms: C_2  and  C_3
REMARK    3  A    between atoms: C_6  and  S_7
REMARK    4  A    between atoms: S_7  and  C_8
REMARK    5  A    between atoms: C_8  and  C_9
REMARK    6  A    between atoms: C_20  and  C_21
REMARK                            x       y       z     vdW  Elec       q    Type
REMARK                         _______ _______ _______ _____ _____    ______ ____
ROOT
ATOM      1  C   UNL     1       1.605  10.054  18.398  0.00  0.00    +0.000 A 
ATOM      2  N   UNL     1       2.300   9.355  17.546  0.00  0.00    +0.000 NA
ATOM      3  N   UNL     1       2.716   8.023  17.873  0.00  0.00    +0.000 NA
ATOM      4  C   UNL     1       2.382   7.506  19.013  0.00  0.00    +0.000 A 
ATOM      5  C   UNL     1       1.621   8.250  19.984  0.00  0.00    +0.000 A 
ATOM      6  C   UNL     1       1.149   7.948  21.245  0.00  0.00    +0.000 A 
ATOM      7  C   UNL     1       0.479   9.118  21.694  0.00  0.00    +0.000 A 
ATOM      8  S   UNL     1      -0.382   9.654  23.097  0.00  0.00    +0.000 S 
ATOM      9  C   UNL     1      -0.635  11.184  22.366  0.00  0.00    +0.000 A 
ATOM     10  C   UNL     1      -1.398  12.244  23.094  0.00  0.00    +0.000 C 
ATOM     11  C   UNL     1      -0.082  11.291  21.105  0.00  0.00    +0.000 A 
ATOM     12  C   UNL     1       0.558  10.074  20.720  0.00  0.00    +0.000 A 
ATOM     13  N   UNL     1       1.255   9.536  19.644  0.00  0.00    +0.000 N 
ENDROOT
BRANCH   1  15
ATOM     14  C   UNL     1       2.207  12.480  18.289  0.00  0.00    +0.000 C 
ATOM     15  C   UNL     1       1.122  11.438  18.053  0.00  0.00    +0.000 C 
ENDBRANCH   1  15
BRANCH   4  16
ATOM     16  S   UNL     1       2.777   5.861  19.446  0.00  0.00    +0.000 S 
BRANCH  16  17
ATOM     17  C   UNL     1       2.998   5.063  17.830  0.00  0.00    +0.000 C 
BRANCH  17  18
ATOM     18  C   UNL     1       4.474   4.843  17.544  0.00  0.00    +0.000 A 
ATOM     19  C   UNL     1       5.446   5.198  18.498  0.00  0.00    +0.000 A 
ATOM     20  C   UNL     1       6.810   5.068  18.215  0.00  0.00    +0.000 A 
ATOM     21  C   UNL     1       7.225   4.588  16.974  0.00  0.00    +0.000 A 
ATOM     22  C   UNL     1       6.271   4.225  16.031  0.00  0.00    +0.000 A 
ATOM     23  F   UNL     1       6.666   3.758  14.839  0.00  0.00    +0.000 F 
ATOM     24  C   UNL     1       4.907   4.345  16.303  0.00  0.00    +0.000 A 
ENDBRANCH  17  18
ENDBRANCH  16  17
ENDBRANCH   4  16
TORSDOF 4
ENDMDL
MODEL 9
REMARK VINA RESULT:      -7.1      2.192      3.161
REMARK  Name = 
REMARK  6 active torsions:
REMARK  status: ('A' for Active; 'I' for Inactive)
REMARK    1  A    between atoms: C_1  and  C_2
REMARK    2  A    between atoms: C_2  and  C_3
REMARK    3  A    between atoms: C_6  and  S_7
REMARK    4  A    between atoms: S_7  and  C_8
REMARK    5  A    between atoms: C_8  and  C_9
REMARK    6  A    between atoms: C_20  and  C_21
REMARK                            x       y       z     vdW  Elec       q    Type
REMARK                         _______ _______ _______ _____ _____    ______ ____
ROOT
ATOM      1  C   UNL     1       3.152   4.141  20.312  0.00  0.00    +0.000 A 
ATOM      2  N   UNL     1       3.894   3.101  20.058  0.00  0.00    +0.000 NA
ATOM      3  N   UNL     1       4.808   3.119  18.955  0.00  0.00    +0.000 NA
ATOM      4  C   UNL     1       4.913   4.182  18.222  0.00  0.00    +0.000 A 
ATOM      5  C   UNL     1       4.105   5.349  18.467  0.00  0.00    +0.000 A 
ATOM      6  C   UNL     1       4.013   6.581  17.851  0.00  0.00    +0.000 A 
ATOM      7  C   UNL     1       3.010   7.292  18.562  0.00  0.00    +0.000 A 
ATOM      8  S   UNL     1       2.244   8.844  18.507  0.00  0.00    +0.000 S 
ATOM      9  C   UNL     1       1.266   8.417  19.849  0.00  0.00    +0.000 A 
ATOM     10  C   UNL     1       0.277   9.395  20.396  0.00  0.00    +0.000 C 
ATOM     11  C   UNL     1       1.504   7.139  20.321  0.00  0.00    +0.000 A 
ATOM     12  C   UNL     1       2.532   6.496  19.566  0.00  0.00    +0.000 A 
ATOM     13  N   UNL     1       3.220   5.290  19.524  0.00  0.00    +0.000 N 
ENDROOT
BRANCH   1  15
ATOM     14  C   UNL     1       1.417   2.864  21.585  0.00  0.00    +0.000 C 
ATOM     15  C   UNL     1       2.217   4.156  21.493  0.00  0.00    +0.000 C 
ENDBRANCH   1  15
BRANCH   4  16
ATOM     16  S   UNL     1       6.066   4.310  16.917  0.00  0.00    +0.000 S 
BRANCH  16  17
ATOM     17  C   UNL     1       5.009   4.252  15.441  0.00  0.00    +0.000 C 
BRANCH  17  18
ATOM     18  C   UNL     1       5.855   4.297  14.180  0.00  0.00    +0.000 A 
ATOM     19  C   UNL     1       5.553   3.464  13.087  0.00  0.00    +0.000 A 
ATOM     20  C   UNL     1       6.369   3.446  11.951  0.00  0.00    +0.000 A 
ATOM     21  C   UNL     1       7.503   4.254  11.891  0.00  0.00    +0.000 A 
ATOM     22  C   UNL     1       7.803   5.088  12.962  0.00  0.00    +0.000 A 
ATOM     23  F   UNL     1       8.889   5.870  12.905  0.00  0.00    +0.000 F 
ATOM     24  C   UNL     1       6.993   5.119  14.098  0.00  0.00    +0.000 A 
ENDBRANCH  17  18
ENDBRANCH  16  17
ENDBRANCH   4  16
TORSDOF 4
ENDMDL
