MODEL 1
REMARK VINA RESULT:      -9.4      0.000      0.000
REMARK  Name = 
REMARK  5 active torsions:
REMARK  status: ('A' for Active; 'I' for Inactive)
REMARK    1  A    between atoms: C_2  and  C_25
REMARK    2  A    between atoms: N_3  and  C_4
REMARK    3  A    between atoms: C_8  and  C_9
REMARK    4  A    between atoms: C_15  and  C_16
REMARK    5  A    between atoms: C_29  and  C_30
REMARK                            x       y       z     vdW  Elec       q    Type
REMARK                         _______ _______ _______ _____ _____    ______ ____
ROOT
ATOM      1  C   UNL     1       6.769   6.668  16.950  0.00  0.00    +0.000 A 
ATOM      2  C   UNL     1       7.219   5.835  15.927  0.00  0.00    +0.000 A 
ATOM      3  C   UNL     1       6.659   4.577  15.745  0.00  0.00    +0.000 A 
ATOM      4  C   UNL     1       5.654   4.135  16.600  0.00  0.00    +0.000 A 
ATOM      5  C   UNL     1       5.224   4.909  17.692  0.00  0.00    +0.000 A 
ATOM      6  C   UNL     1       5.797   6.190  17.840  0.00  0.00    +0.000 A 
ENDROOT
BRANCH   5   7
ATOM      7  C   UNL     1       4.202   4.432  18.640  0.00  0.00    +0.000 A 
ATOM      8  N   UNL     1       4.141   3.088  18.856  0.00  0.00    +0.000 NA
ATOM      9  C   UNL     1       3.228   2.615  19.715  0.00  0.00    +0.000 A 
ATOM     10  N   UNL     1       2.329   3.315  20.410  0.00  0.00    +0.000 NA
ATOM     11  C   UNL     1       2.364   4.649  20.178  0.00  0.00    +0.000 A 
ATOM     12  C   UNL     1       1.490   5.600  20.787  0.00  0.00    +0.000 A 
ATOM     13  C   UNL     1       1.709   6.896  20.360  0.00  0.00    +0.000 A 
ATOM     14  S   UNL     1       2.981   6.935  19.220  0.00  0.00    +0.000 S 
ATOM     15  C   UNL     1       3.269   5.243  19.303  0.00  0.00    +0.000 A 
BRANCH  13  16
ATOM     16  C   UNL     1       1.029   8.139  20.760  0.00  0.00    +0.000 A 
ATOM     17  C   UNL     1       1.017   9.243  19.901  0.00  0.00    +0.000 A 
ATOM     18  C   UNL     1       0.376  10.403  20.310  0.00  0.00    +0.000 A 
ATOM     19  N   UNL     1      -0.249  10.538  21.499  0.00  0.00    +0.000 NA
ATOM     20  C   UNL     1      -0.229   9.468  22.315  0.00  0.00    +0.000 A 
ATOM     21  C   UNL     1       0.386   8.268  21.997  0.00  0.00    +0.000 A 
ENDBRANCH  13  16
ENDBRANCH   5   7
BRANCH   1  24
ATOM     22  O   UNL     1       8.647   7.671  18.978  0.00  0.00    +0.000 OA
ATOM     23  C   UNL     1       8.127   8.385  18.128  0.00  0.00    +0.000 C 
ATOM     24  N   UNL     1       7.253   7.983  17.132  0.00  0.00    +0.000 N 
ATOM     25  H   UNL     1       7.065   8.638  16.383  0.00  0.00    +0.000 HD
BRANCH  23  26
ATOM     26  C   UNL     1       8.525   9.810  18.106  0.00  0.00    +0.000 A 
ATOM     27  C   UNL     1       7.812  10.773  17.386  0.00  0.00    +0.000 A 
ATOM     28  C   UNL     1       8.209  12.110  17.448  0.00  0.00    +0.000 A 
ATOM     29  C   UNL     1       9.314  12.483  18.221  0.00  0.00    +0.000 A 
ATOM     30  C   UNL     1      10.034  11.527  18.954  0.00  0.00    +0.000 A 
ATOM     31  C   UNL     1       9.621  10.188  18.893  0.00  0.00    +0.000 A 
BRANCH  30  32
ATOM     32  C   UNL     1      11.223  11.909  19.801  0.00  0.00    +0.000 C 
ATOM     33  F   UNL     1      10.994  11.791  21.138  0.00  0.00    +0.000 F 
ATOM     34  F   UNL     1      12.317  11.142  19.540  0.00  0.00    +0.000 F 
ATOM     35  F   UNL     1      11.613  13.200  19.607  0.00  0.00    +0.000 F 
ENDBRANCH  30  32
ENDBRANCH  23  26
ENDBRANCH   1  24
TORSDOF 5
ENDMDL
MODEL 2
REMARK VINA RESULT:      -9.3      6.216      9.473
REMARK  Name = 
REMARK  5 active torsions:
REMARK  status: ('A' for Active; 'I' for Inactive)
REMARK    1  A    between atoms: C_2  and  C_25
REMARK    2  A    between atoms: N_3  and  C_4
REMARK    3  A    between atoms: C_8  and  C_9
REMARK    4  A    between atoms: C_15  and  C_16
REMARK    5  A    between atoms: C_29  and  C_30
REMARK                            x       y       z     vdW  Elec       q    Type
REMARK                         _______ _______ _______ _____ _____    ______ ____
ROOT
ATOM      1  C   UNL     1       1.126   9.946  18.184  0.00  0.00    +0.000 A 
ATOM      2  C   UNL     1       1.773  11.009  18.813  0.00  0.00    +0.000 A 
ATOM      3  C   UNL     1       1.063  12.144  19.183  0.00  0.00    +0.000 A 
ATOM      4  C   UNL     1      -0.298  12.232  18.908  0.00  0.00    +0.000 A 
ATOM      5  C   UNL     1      -0.973  11.219  18.207  0.00  0.00    +0.000 A 
ATOM      6  C   UNL     1      -0.232  10.069  17.861  0.00  0.00    +0.000 A 
ENDROOT
BRANCH   5   7
ATOM      7  C   UNL     1      -2.401  11.322  17.857  0.00  0.00    +0.000 A 
ATOM      8  N   UNL     1      -2.752  10.977  16.588  0.00  0.00    +0.000 NA
ATOM      9  C   UNL     1      -4.042  11.052  16.233  0.00  0.00    +0.000 A 
ATOM     10  N   UNL     1      -5.069  11.446  16.988  0.00  0.00    +0.000 NA
ATOM     11  C   UNL     1      -4.724  11.820  18.244  0.00  0.00    +0.000 A 
ATOM     12  C   UNL     1      -5.642  12.296  19.229  0.00  0.00    +0.000 A 
ATOM     13  C   UNL     1      -5.035  12.642  20.420  0.00  0.00    +0.000 A 
ATOM     14  S   UNL     1      -3.350  12.381  20.322  0.00  0.00    +0.000 S 
ATOM     15  C   UNL     1      -3.413  11.783  18.712  0.00  0.00    +0.000 A 
BRANCH  13  16
ATOM     16  C   UNL     1      -5.638  13.156  21.662  0.00  0.00    +0.000 A 
ATOM     17  C   UNL     1      -6.929  12.766  22.032  0.00  0.00    +0.000 A 
ATOM     18  C   UNL     1      -7.474  13.274  23.201  0.00  0.00    +0.000 A 
ATOM     19  N   UNL     1      -6.827  14.131  24.022  0.00  0.00    +0.000 NA
ATOM     20  C   UNL     1      -5.585  14.497  23.653  0.00  0.00    +0.000 A 
ATOM     21  C   UNL     1      -4.959  14.046  22.503  0.00  0.00    +0.000 A 
ENDBRANCH  13  16
ENDBRANCH   5   7
BRANCH   1  24
ATOM     22  O   UNL     1       1.989   7.775  19.970  0.00  0.00    +0.000 OA
ATOM     23  C   UNL     1       2.179   7.768  18.760  0.00  0.00    +0.000 C 
ATOM     24  N   UNL     1       1.786   8.739  17.854  0.00  0.00    +0.000 N 
ATOM     25  H   UNL     1       1.830   8.507  16.870  0.00  0.00    +0.000 HD
BRANCH  23  26
ATOM     26  C   UNL     1       2.828   6.570  18.183  0.00  0.00    +0.000 A 
ATOM     27  C   UNL     1       4.022   6.642  17.461  0.00  0.00    +0.000 A 
ATOM     28  C   UNL     1       4.610   5.467  16.988  0.00  0.00    +0.000 A 
ATOM     29  C   UNL     1       4.007   4.228  17.231  0.00  0.00    +0.000 A 
ATOM     30  C   UNL     1       2.811   4.142  17.961  0.00  0.00    +0.000 A 
ATOM     31  C   UNL     1       2.234   5.327  18.440  0.00  0.00    +0.000 A 
BRANCH  30  32
ATOM     32  C   UNL     1       2.149   2.816  18.242  0.00  0.00    +0.000 C 
ATOM     33  F   UNL     1       2.333   1.899  17.251  0.00  0.00    +0.000 F 
ATOM     34  F   UNL     1       2.614   2.232  19.380  0.00  0.00    +0.000 F 
ATOM     35  F   UNL     1       0.800   2.924  18.396  0.00  0.00    +0.000 F 
ENDBRANCH  30  32
ENDBRANCH  23  26
ENDBRANCH   1  24
TORSDOF 5
ENDMDL
MODEL 3
REMARK VINA RESULT:      -9.3      5.832      9.298
REMARK  Name = 
REMARK  5 active torsions:
REMARK  status: ('A' for Active; 'I' for Inactive)
REMARK    1  A    between atoms: C_2  and  C_25
REMARK    2  A    between atoms: N_3  and  C_4
REMARK    3  A    between atoms: C_8  and  C_9
REMARK    4  A    between atoms: C_15  and  C_16
REMARK    5  A    between atoms: C_29  and  C_30
REMARK                            x       y       z     vdW  Elec       q    Type
REMARK                         _______ _______ _______ _____ _____    ______ ____
ROOT
ATOM      1  C   UNL     1       0.665  10.325  18.968  0.00  0.00    +0.000 A 
ATOM      2  C   UNL     1       1.375  11.517  19.101  0.00  0.00    +0.000 A 
ATOM      3  C   UNL     1       0.731  12.739  18.960  0.00  0.00    +0.000 A 
ATOM      4  C   UNL     1      -0.628  12.777  18.664  0.00  0.00    +0.000 A 
ATOM      5  C   UNL     1      -1.365  11.601  18.444  0.00  0.00    +0.000 A 
ATOM      6  C   UNL     1      -0.690  10.374  18.614  0.00  0.00    +0.000 A 
ENDROOT
BRANCH   5   7
ATOM      7  C   UNL     1      -2.792  11.626  18.073  0.00  0.00    +0.000 A 
ATOM      8  N   UNL     1      -3.101  11.292  16.790  0.00  0.00    +0.000 NA
ATOM      9  C   UNL     1      -4.388  11.297  16.415  0.00  0.00    +0.000 A 
ATOM     10  N   UNL     1      -5.448  11.608  17.162  0.00  0.00    +0.000 NA
ATOM     11  C   UNL     1      -5.146  11.971  18.432  0.00  0.00    +0.000 A 
ATOM     12  C   UNL     1      -6.107  12.364  19.412  0.00  0.00    +0.000 A 
ATOM     13  C   UNL     1      -5.541  12.717  20.622  0.00  0.00    +0.000 A 
ATOM     14  S   UNL     1      -3.841  12.563  20.547  0.00  0.00    +0.000 S 
ATOM     15  C   UNL     1      -3.843  12.002  18.922  0.00  0.00    +0.000 A 
BRANCH  13  16
ATOM     16  C   UNL     1      -6.193  13.161  21.866  0.00  0.00    +0.000 A 
ATOM     17  C   UNL     1      -5.741  14.307  22.528  0.00  0.00    +0.000 A 
ATOM     18  C   UNL     1      -6.369  14.695  23.702  0.00  0.00    +0.000 A 
ATOM     19  N   UNL     1      -7.407  14.030  24.254  0.00  0.00    +0.000 NA
ATOM     20  C   UNL     1      -7.831  12.929  23.606  0.00  0.00    +0.000 A 
ATOM     21  C   UNL     1      -7.266  12.462  22.431  0.00  0.00    +0.000 A 
ENDBRANCH  13  16
ENDBRANCH   5   7
BRANCH   1  24
ATOM     22  O   UNL     1       2.418   8.797  17.167  0.00  0.00    +0.000 OA
ATOM     23  C   UNL     1       2.060   8.390  18.266  0.00  0.00    +0.000 C 
ATOM     24  N   UNL     1       1.256   9.057  19.176  0.00  0.00    +0.000 N 
ATOM     25  H   UNL     1       1.210   8.690  20.118  0.00  0.00    +0.000 HD
BRANCH  23  26
ATOM     26  C   UNL     1       2.597   7.085  18.712  0.00  0.00    +0.000 A 
ATOM     27  C   UNL     1       2.241   6.509  19.935  0.00  0.00    +0.000 A 
ATOM     28  C   UNL     1       2.743   5.251  20.273  0.00  0.00    +0.000 A 
ATOM     29  C   UNL     1       3.597   4.573  19.398  0.00  0.00    +0.000 A 
ATOM     30  C   UNL     1       3.958   5.138  18.164  0.00  0.00    +0.000 A 
ATOM     31  C   UNL     1       3.441   6.397  17.829  0.00  0.00    +0.000 A 
BRANCH  30  32
ATOM     32  C   UNL     1       4.872   4.420  17.202  0.00  0.00    +0.000 C 
ATOM     33  F   UNL     1       4.570   3.100  17.053  0.00  0.00    +0.000 F 
ATOM     34  F   UNL     1       4.835   4.954  15.951  0.00  0.00    +0.000 F 
ATOM     35  F   UNL     1       6.177   4.457  17.590  0.00  0.00    +0.000 F 
ENDBRANCH  30  32
ENDBRANCH  23  26
ENDBRANCH   1  24
TORSDOF 5
ENDMDL
MODEL 4
REMARK VINA RESULT:      -9.2      6.116      9.541
REMARK  Name = 
REMARK  5 active torsions:
REMARK  status: ('A' for Active; 'I' for Inactive)
REMARK    1  A    between atoms: C_2  and  C_25
REMARK    2  A    between atoms: N_3  and  C_4
REMARK    3  A    between atoms: C_8  and  C_9
REMARK    4  A    between atoms: C_15  and  C_16
REMARK    5  A    between atoms: C_29  and  C_30
REMARK                            x       y       z     vdW  Elec       q    Type
REMARK                         _______ _______ _______ _____ _____    ______ ____
ROOT
ATOM      1  C   UNL     1       0.918  10.274  18.610  0.00  0.00    +0.000 A 
ATOM      2  C   UNL     1       1.568  11.450  18.985  0.00  0.00    +0.000 A 
ATOM      3  C   UNL     1       0.862  12.641  19.091  0.00  0.00    +0.000 A 
ATOM      4  C   UNL     1      -0.500  12.669  18.802  0.00  0.00    +0.000 A 
ATOM      5  C   UNL     1      -1.177  11.526  18.345  0.00  0.00    +0.000 A 
ATOM      6  C   UNL     1      -0.440  10.326  18.266  0.00  0.00    +0.000 A 
ENDROOT
BRANCH   5   7
ATOM      7  C   UNL     1      -2.605  11.552  17.980  0.00  0.00    +0.000 A 
ATOM      8  N   UNL     1      -2.921  11.217  16.699  0.00  0.00    +0.000 NA
ATOM      9  C   UNL     1      -4.208  11.224  16.330  0.00  0.00    +0.000 A 
ATOM     10  N   UNL     1      -5.266  11.538  17.080  0.00  0.00    +0.000 NA
ATOM     11  C   UNL     1      -4.958  11.902  18.349  0.00  0.00    +0.000 A 
ATOM     12  C   UNL     1      -5.914  12.298  19.332  0.00  0.00    +0.000 A 
ATOM     13  C   UNL     1      -5.342  12.651  20.539  0.00  0.00    +0.000 A 
ATOM     14  S   UNL     1      -3.643  12.494  20.457  0.00  0.00    +0.000 S 
ATOM     15  C   UNL     1      -3.653  11.931  18.833  0.00  0.00    +0.000 A 
BRANCH  13  16
ATOM     16  C   UNL     1      -5.988  13.098  21.785  0.00  0.00    +0.000 A 
ATOM     17  C   UNL     1      -5.501  14.215  22.470  0.00  0.00    +0.000 A 
ATOM     18  C   UNL     1      -6.124  14.606  23.646  0.00  0.00    +0.000 A 
ATOM     19  N   UNL     1      -7.190  13.970  24.178  0.00  0.00    +0.000 NA
ATOM     20  C   UNL     1      -7.649  12.896  23.508  0.00  0.00    +0.000 A 
ATOM     21  C   UNL     1      -7.092  12.429  22.329  0.00  0.00    +0.000 A 
ENDBRANCH  13  16
ENDBRANCH   5   7
BRANCH   1  24
ATOM     22  O   UNL     1       1.289   8.306  20.763  0.00  0.00    +0.000 OA
ATOM     23  C   UNL     1       1.726   8.155  19.628  0.00  0.00    +0.000 C 
ATOM     24  N   UNL     1       1.574   9.023  18.559  0.00  0.00    +0.000 N 
ATOM     25  H   UNL     1       1.811   8.677  17.638  0.00  0.00    +0.000 HD
BRANCH  23  26
ATOM     26  C   UNL     1       2.423   6.882  19.335  0.00  0.00    +0.000 A 
ATOM     27  C   UNL     1       3.366   6.767  18.310  0.00  0.00    +0.000 A 
ATOM     28  C   UNL     1       4.026   5.551  18.118  0.00  0.00    +0.000 A 
ATOM     29  C   UNL     1       3.744   4.458  18.943  0.00  0.00    +0.000 A 
ATOM     30  C   UNL     1       2.803   4.563  19.980  0.00  0.00    +0.000 A 
ATOM     31  C   UNL     1       2.153   5.790  20.170  0.00  0.00    +0.000 A 
BRANCH  30  32
ATOM     32  C   UNL     1       2.490   3.397  20.886  0.00  0.00    +0.000 C 
ATOM     33  F   UNL     1       1.351   2.735  20.541  0.00  0.00    +0.000 F 
ATOM     34  F   UNL     1       3.478   2.461  20.891  0.00  0.00    +0.000 F 
ATOM     35  F   UNL     1       2.318   3.772  22.184  0.00  0.00    +0.000 F 
ENDBRANCH  30  32
ENDBRANCH  23  26
ENDBRANCH   1  24
TORSDOF 5
ENDMDL
MODEL 5
REMARK VINA RESULT:      -9.2      6.050      9.460
REMARK  Name = 
REMARK  5 active torsions:
REMARK  status: ('A' for Active; 'I' for Inactive)
REMARK    1  A    between atoms: C_2  and  C_25
REMARK    2  A    between atoms: N_3  and  C_4
REMARK    3  A    between atoms: C_8  and  C_9
REMARK    4  A    between atoms: C_15  and  C_16
REMARK    5  A    between atoms: C_29  and  C_30
REMARK                            x       y       z     vdW  Elec       q    Type
REMARK                         _______ _______ _______ _____ _____    ______ ____
ROOT
ATOM      1  C   UNL     1       1.090  10.135  18.521  0.00  0.00    +0.000 A 
ATOM      2  C   UNL     1       1.759  11.300  18.892  0.00  0.00    +0.000 A 
ATOM      3  C   UNL     1       1.073  12.503  18.996  0.00  0.00    +0.000 A 
ATOM      4  C   UNL     1      -0.288  12.552  18.709  0.00  0.00    +0.000 A 
ATOM      5  C   UNL     1      -0.985  11.419  18.256  0.00  0.00    +0.000 A 
ATOM      6  C   UNL     1      -0.267  10.207  18.179  0.00  0.00    +0.000 A 
ENDROOT
BRANCH   5   7
ATOM      7  C   UNL     1      -2.413  11.468  17.893  0.00  0.00    +0.000 A 
ATOM      8  N   UNL     1      -2.736  11.131  16.614  0.00  0.00    +0.000 NA
ATOM      9  C   UNL     1      -4.024  11.157  16.247  0.00  0.00    +0.000 A 
ATOM     10  N   UNL     1      -5.074  11.494  16.997  0.00  0.00    +0.000 NA
ATOM     11  C   UNL     1      -4.758  11.860  18.263  0.00  0.00    +0.000 A 
ATOM     12  C   UNL     1      -5.706  12.279  19.246  0.00  0.00    +0.000 A 
ATOM     13  C   UNL     1      -5.126  12.629  20.450  0.00  0.00    +0.000 A 
ATOM     14  S   UNL     1      -3.430  12.442  20.366  0.00  0.00    +0.000 S 
ATOM     15  C   UNL     1      -3.452  11.870  18.745  0.00  0.00    +0.000 A 
BRANCH  13  16
ATOM     16  C   UNL     1      -5.763  13.095  21.694  0.00  0.00    +0.000 A 
ATOM     17  C   UNL     1      -7.036  12.636  22.047  0.00  0.00    +0.000 A 
ATOM     18  C   UNL     1      -7.614  13.100  23.220  0.00  0.00    +0.000 A 
ATOM     19  N   UNL     1      -7.017  13.976  24.057  0.00  0.00    +0.000 NA
ATOM     20  C   UNL     1      -5.792  14.409  23.703  0.00  0.00    +0.000 A 
ATOM     21  C   UNL     1      -5.135  14.006  22.552  0.00  0.00    +0.000 A 
ENDBRANCH  13  16
ENDBRANCH   5   7
BRANCH   1  24
ATOM     22  O   UNL     1       1.363   8.131  20.657  0.00  0.00    +0.000 OA
ATOM     23  C   UNL     1       1.830   7.988  19.534  0.00  0.00    +0.000 C 
ATOM     24  N   UNL     1       1.726   8.873  18.473  0.00  0.00    +0.000 N 
ATOM     25  H   UNL     1       1.983   8.535  17.554  0.00  0.00    +0.000 HD
BRANCH  23  26
ATOM     26  C   UNL     1       2.514   6.707  19.244  0.00  0.00    +0.000 A 
ATOM     27  C   UNL     1       3.443   6.575  18.208  0.00  0.00    +0.000 A 
ATOM     28  C   UNL     1       4.091   5.352  18.020  0.00  0.00    +0.000 A 
ATOM     29  C   UNL     1       3.810   4.268  18.858  0.00  0.00    +0.000 A 
ATOM     30  C   UNL     1       2.884   4.390  19.905  0.00  0.00    +0.000 A 
ATOM     31  C   UNL     1       2.245   5.625  20.093  0.00  0.00    +0.000 A 
BRANCH  30  32
ATOM     32  C   UNL     1       2.572   3.236  20.826  0.00  0.00    +0.000 C 
ATOM     33  F   UNL     1       3.650   2.443  21.082  0.00  0.00    +0.000 F 
ATOM     34  F   UNL     1       2.114   3.646  22.040  0.00  0.00    +0.000 F 
ATOM     35  F   UNL     1       1.617   2.405  20.322  0.00  0.00    +0.000 F 
ENDBRANCH  30  32
ENDBRANCH  23  26
ENDBRANCH   1  24
TORSDOF 5
ENDMDL
MODEL 6
REMARK VINA RESULT:      -9.2      6.189      9.396
REMARK  Name = 
REMARK  5 active torsions:
REMARK  status: ('A' for Active; 'I' for Inactive)
REMARK    1  A    between atoms: C_2  and  C_25
REMARK    2  A    between atoms: N_3  and  C_4
REMARK    3  A    between atoms: C_8  and  C_9
REMARK    4  A    between atoms: C_15  and  C_16
REMARK    5  A    between atoms: C_29  and  C_30
REMARK                            x       y       z     vdW  Elec       q    Type
REMARK                         _______ _______ _______ _____ _____    ______ ____
ROOT
ATOM      1  C   UNL     1       1.213   9.984  18.132  0.00  0.00    +0.000 A 
ATOM      2  C   UNL     1       1.834  11.065  18.755  0.00  0.00    +0.000 A 
ATOM      3  C   UNL     1       1.102  12.192  19.103  0.00  0.00    +0.000 A 
ATOM      4  C   UNL     1      -0.258  12.254  18.812  0.00  0.00    +0.000 A 
ATOM      5  C   UNL     1      -0.907  11.221  18.115  0.00  0.00    +0.000 A 
ATOM      6  C   UNL     1      -0.143  10.079  17.792  0.00  0.00    +0.000 A 
ENDROOT
BRANCH   5   7
ATOM      7  C   UNL     1      -2.332  11.296  17.747  0.00  0.00    +0.000 A 
ATOM      8  N   UNL     1      -2.662  10.931  16.477  0.00  0.00    +0.000 NA
ATOM      9  C   UNL     1      -3.948  10.980  16.107  0.00  0.00    +0.000 A 
ATOM     10  N   UNL     1      -4.991  11.364  16.845  0.00  0.00    +0.000 NA
ATOM     11  C   UNL     1      -4.668  11.757  18.101  0.00  0.00    +0.000 A 
ATOM     12  C   UNL     1      -5.606  12.227  19.069  0.00  0.00    +0.000 A 
ATOM     13  C   UNL     1      -5.019  12.596  20.264  0.00  0.00    +0.000 A 
ATOM     14  S   UNL     1      -3.329  12.364  20.189  0.00  0.00    +0.000 S 
ATOM     15  C   UNL     1      -3.363  11.748  18.585  0.00  0.00    +0.000 A 
BRANCH  13  16
ATOM     16  C   UNL     1      -5.646  13.113  21.493  0.00  0.00    +0.000 A 
ATOM     17  C   UNL     1      -4.916  13.172  22.684  0.00  0.00    +0.000 A 
ATOM     18  C   UNL     1      -5.536  13.654  23.828  0.00  0.00    +0.000 A 
ATOM     19  N   UNL     1      -6.818  14.079  23.865  0.00  0.00    +0.000 NA
ATOM     20  C   UNL     1      -7.508  14.015  22.711  0.00  0.00    +0.000 A 
ATOM     21  C   UNL     1      -6.976  13.547  21.520  0.00  0.00    +0.000 A 
ENDBRANCH  13  16
ENDBRANCH   5   7
BRANCH   1  24
ATOM     22  O   UNL     1       1.944   7.773  19.929  0.00  0.00    +0.000 OA
ATOM     23  C   UNL     1       2.224   7.793  18.736  0.00  0.00    +0.000 C 
ATOM     24  N   UNL     1       1.897   8.785  17.825  0.00  0.00    +0.000 N 
ATOM     25  H   UNL     1       2.015   8.575  16.842  0.00  0.00    +0.000 HD
BRANCH  23  26
ATOM     26  C   UNL     1       2.915   6.607  18.182  0.00  0.00    +0.000 A 
ATOM     27  C   UNL     1       4.135   6.702  17.506  0.00  0.00    +0.000 A 
ATOM     28  C   UNL     1       4.760   5.539  17.054  0.00  0.00    +0.000 A 
ATOM     29  C   UNL     1       4.170   4.290  17.271  0.00  0.00    +0.000 A 
ATOM     30  C   UNL     1       2.949   4.181  17.954  0.00  0.00    +0.000 A 
ATOM     31  C   UNL     1       2.333   5.354  18.414  0.00  0.00    +0.000 A 
BRANCH  30  32
ATOM     32  C   UNL     1       2.299   2.842  18.207  0.00  0.00    +0.000 C 
ATOM     33  F   UNL     1       0.990   2.937  18.569  0.00  0.00    +0.000 F 
ATOM     34  F   UNL     1       2.326   2.035  17.111  0.00  0.00    +0.000 F 
ATOM     35  F   UNL     1       2.907   2.143  19.206  0.00  0.00    +0.000 F 
ENDBRANCH  30  32
ENDBRANCH  23  26
ENDBRANCH   1  24
TORSDOF 5
ENDMDL
MODEL 7
REMARK VINA RESULT:      -9.1      5.388      8.738
REMARK  Name = 
REMARK  5 active torsions:
REMARK  status: ('A' for Active; 'I' for Inactive)
REMARK    1  A    between atoms: C_2  and  C_25
REMARK    2  A    between atoms: N_3  and  C_4
REMARK    3  A    between atoms: C_8  and  C_9
REMARK    4  A    between atoms: C_15  and  C_16
REMARK    5  A    between atoms: C_29  and  C_30
REMARK                            x       y       z     vdW  Elec       q    Type
REMARK                         _______ _______ _______ _____ _____    ______ ____
ROOT
ATOM      1  C   UNL     1       1.174   9.762  18.196  0.00  0.00    +0.000 A 
ATOM      2  C   UNL     1       1.833  10.826  18.809  0.00  0.00    +0.000 A 
ATOM      3  C   UNL     1       1.149  11.994  19.118  0.00  0.00    +0.000 A 
ATOM      4  C   UNL     1      -0.200  12.114  18.796  0.00  0.00    +0.000 A 
ATOM      5  C   UNL     1      -0.884  11.098  18.107  0.00  0.00    +0.000 A 
ATOM      6  C   UNL     1      -0.169   9.915  17.825  0.00  0.00    +0.000 A 
ENDROOT
BRANCH   5   7
ATOM      7  C   UNL     1      -2.297  11.232  17.709  0.00  0.00    +0.000 A 
ATOM      8  N   UNL     1      -2.589  11.024  16.395  0.00  0.00    +0.000 NA
ATOM      9  C   UNL     1      -3.863  11.132  15.994  0.00  0.00    +0.000 A 
ATOM     10  N   UNL     1      -4.925  11.437  16.741  0.00  0.00    +0.000 NA
ATOM     11  C   UNL     1      -4.638  11.676  18.044  0.00  0.00    +0.000 A 
ATOM     12  C   UNL     1      -5.602  12.038  19.032  0.00  0.00    +0.000 A 
ATOM     13  C   UNL     1      -5.051  12.257  20.280  0.00  0.00    +0.000 A 
ATOM     14  S   UNL     1      -3.361  12.015  20.229  0.00  0.00    +0.000 S 
ATOM     15  C   UNL     1      -3.349  11.594  18.563  0.00  0.00    +0.000 A 
BRANCH  13  16
ATOM     16  C   UNL     1      -5.712  12.631  21.542  0.00  0.00    +0.000 A 
ATOM     17  C   UNL     1      -4.950  13.023  22.647  0.00  0.00    +0.000 A 
ATOM     18  C   UNL     1      -5.600  13.361  23.824  0.00  0.00    +0.000 A 
ATOM     19  N   UNL     1      -6.942  13.337  23.975  0.00  0.00    +0.000 NA
ATOM     20  C   UNL     1      -7.662  12.957  22.903  0.00  0.00    +0.000 A 
ATOM     21  C   UNL     1      -7.104  12.600  21.687  0.00  0.00    +0.000 A 
ENDBRANCH  13  16
ENDBRANCH   5   7
BRANCH   1  24
ATOM     22  O   UNL     1       2.001   7.673  20.093  0.00  0.00    +0.000 OA
ATOM     23  C   UNL     1       2.184   7.597  18.884  0.00  0.00    +0.000 C 
ATOM     24  N   UNL     1       1.806   8.526  17.928  0.00  0.00    +0.000 N 
ATOM     25  H   UNL     1       1.839   8.240  16.958  0.00  0.00    +0.000 HD
BRANCH  23  26
ATOM     26  C   UNL     1       2.803   6.355  18.369  0.00  0.00    +0.000 A 
ATOM     27  C   UNL     1       2.242   5.094  18.590  0.00  0.00    +0.000 A 
ATOM     28  C   UNL     1       2.848   3.966  18.033  0.00  0.00    +0.000 A 
ATOM     29  C   UNL     1       4.009   4.096  17.265  0.00  0.00    +0.000 A 
ATOM     30  C   UNL     1       4.580   5.357  17.031  0.00  0.00    +0.000 A 
ATOM     31  C   UNL     1       3.958   6.484  17.586  0.00  0.00    +0.000 A 
BRANCH  30  32
ATOM     32  C   UNL     1       5.828   5.519  16.198  0.00  0.00    +0.000 C 
ATOM     33  F   UNL     1       6.695   6.443  16.699  0.00  0.00    +0.000 F 
ATOM     34  F   UNL     1       6.536   4.362  16.089  0.00  0.00    +0.000 F 
ATOM     35  F   UNL     1       5.560   5.920  14.924  0.00  0.00    +0.000 F 
ENDBRANCH  30  32
ENDBRANCH  23  26
ENDBRANCH   1  24
TORSDOF 5
ENDMDL
MODEL 8
REMARK VINA RESULT:      -9.0      4.943      8.896
REMARK  Name = 
REMARK  5 active torsions:
REMARK  status: ('A' for Active; 'I' for Inactive)
REMARK    1  A    between atoms: C_2  and  C_25
REMARK    2  A    between atoms: N_3  and  C_4
REMARK    3  A    between atoms: C_8  and  C_9
REMARK    4  A    between atoms: C_15  and  C_16
REMARK    5  A    between atoms: C_29  and  C_30
REMARK                            x       y       z     vdW  Elec       q    Type
REMARK                         _______ _______ _______ _____ _____    ______ ____
ROOT
ATOM      1  C   UNL     1       2.018   5.637  20.502  0.00  0.00    +0.000 A 
ATOM      2  C   UNL     1       1.432   4.372  20.476  0.00  0.00    +0.000 A 
ATOM      3  C   UNL     1       2.146   3.274  20.015  0.00  0.00    +0.000 A 
ATOM      4  C   UNL     1       3.450   3.438  19.556  0.00  0.00    +0.000 A 
ATOM      5  C   UNL     1       4.052   4.706  19.490  0.00  0.00    +0.000 A 
ATOM      6  C   UNL     1       3.310   5.800  19.984  0.00  0.00    +0.000 A 
ENDROOT
BRANCH   5   7
ATOM      7  C   UNL     1       5.410   4.904  18.953  0.00  0.00    +0.000 A 
ATOM      8  N   UNL     1       6.359   5.349  19.823  0.00  0.00    +0.000 NA
ATOM      9  C   UNL     1       7.607   5.536  19.374  0.00  0.00    +0.000 A 
ATOM     10  N   UNL     1       8.060   5.345  18.134  0.00  0.00    +0.000 NA
ATOM     11  C   UNL     1       7.116   4.930  17.256  0.00  0.00    +0.000 A 
ATOM     12  C   UNL     1       7.354   4.676  15.871  0.00  0.00    +0.000 A 
ATOM     13  C   UNL     1       6.219   4.293  15.182  0.00  0.00    +0.000 A 
ATOM     14  S   UNL     1       4.876   4.248  16.236  0.00  0.00    +0.000 S 
ATOM     15  C   UNL     1       5.790   4.708  17.617  0.00  0.00    +0.000 A 
BRANCH  13  16
ATOM     16  C   UNL     1       6.063   3.938  13.761  0.00  0.00    +0.000 A 
ATOM     17  C   UNL     1       4.813   3.557  13.264  0.00  0.00    +0.000 A 
ATOM     18  C   UNL     1       4.699   3.220  11.924  0.00  0.00    +0.000 A 
ATOM     19  N   UNL     1       5.732   3.238  11.053  0.00  0.00    +0.000 NA
ATOM     20  C   UNL     1       6.929   3.607  11.547  0.00  0.00    +0.000 A 
ATOM     21  C   UNL     1       7.142   3.959  12.869  0.00  0.00    +0.000 A 
ENDBRANCH  13  16
ENDBRANCH   5   7
BRANCH   1  24
ATOM     22  O   UNL     1       1.827   8.344  19.368  0.00  0.00    +0.000 OA
ATOM     23  C   UNL     1       1.331   8.026  20.443  0.00  0.00    +0.000 C 
ATOM     24  N   UNL     1       1.361   6.772  21.030  0.00  0.00    +0.000 N 
ATOM     25  H   UNL     1       0.742   6.607  21.814  0.00  0.00    +0.000 HD
BRANCH  23  26
ATOM     26  C   UNL     1       0.553   9.059  21.162  0.00  0.00    +0.000 A 
ATOM     27  C   UNL     1       0.262   8.961  22.525  0.00  0.00    +0.000 A 
ATOM     28  C   UNL     1      -0.432   9.996  23.155  0.00  0.00    +0.000 A 
ATOM     29  C   UNL     1      -0.836  11.120  22.427  0.00  0.00    +0.000 A 
ATOM     30  C   UNL     1      -0.544  11.234  21.059  0.00  0.00    +0.000 A 
ATOM     31  C   UNL     1       0.162  10.194  20.438  0.00  0.00    +0.000 A 
BRANCH  30  32
ATOM     32  C   UNL     1      -0.963  12.442  20.258  0.00  0.00    +0.000 C 
ATOM     33  F   UNL     1       0.052  13.323  20.039  0.00  0.00    +0.000 F 
ATOM     34  F   UNL     1      -1.443  12.111  19.028  0.00  0.00    +0.000 F 
ATOM     35  F   UNL     1      -1.948  13.160  20.867  0.00  0.00    +0.000 F 
ENDBRANCH  30  32
ENDBRANCH  23  26
ENDBRANCH   1  24
TORSDOF 5
ENDMDL
MODEL 9
REMARK VINA RESULT:      -9.0      6.181      9.653
REMARK  Name = 
REMARK  5 active torsions:
REMARK  status: ('A' for Active; 'I' for Inactive)
REMARK    1  A    between atoms: C_2  and  C_25
REMARK    2  A    between atoms: N_3  and  C_4
REMARK    3  A    between atoms: C_8  and  C_9
REMARK    4  A    between atoms: C_15  and  C_16
REMARK    5  A    between atoms: C_29  and  C_30
REMARK                            x       y       z     vdW  Elec       q    Type
REMARK                         _______ _______ _______ _____ _____    ______ ____
ROOT
ATOM      1  C   UNL     1       0.700  10.251  19.393  0.00  0.00    +0.000 A 
ATOM      2  C   UNL     1       1.315  11.366  19.960  0.00  0.00    +0.000 A 
ATOM      3  C   UNL     1       0.613  12.555  20.112  0.00  0.00    +0.000 A 
ATOM      4  C   UNL     1      -0.707  12.642  19.679  0.00  0.00    +0.000 A 
ATOM      5  C   UNL     1      -1.339  11.568  19.031  0.00  0.00    +0.000 A 
ATOM      6  C   UNL     1      -0.609  10.367  18.908  0.00  0.00    +0.000 A 
ENDROOT
BRANCH   5   7
ATOM      7  C   UNL     1      -2.717  11.663  18.515  0.00  0.00    +0.000 A 
ATOM      8  N   UNL     1      -2.913  11.312  17.214  0.00  0.00    +0.000 NA
ATOM      9  C   UNL     1      -4.152  11.380  16.709  0.00  0.00    +0.000 A 
ATOM     10  N   UNL     1      -5.263  11.770  17.335  0.00  0.00    +0.000 NA
ATOM     11  C   UNL     1      -5.071  12.149  18.622  0.00  0.00    +0.000 A 
ATOM     12  C   UNL     1      -6.102  12.622  19.490  0.00  0.00    +0.000 A 
ATOM     13  C   UNL     1      -5.642  12.975  20.744  0.00  0.00    +0.000 A 
ATOM     14  S   UNL     1      -3.956  12.723  20.847  0.00  0.00    +0.000 S 
ATOM     15  C   UNL     1      -3.825  12.120  19.242  0.00  0.00    +0.000 A 
BRANCH  13  16
ATOM     16  C   UNL     1      -6.390  13.488  21.904  0.00  0.00    +0.000 A 
ATOM     17  C   UNL     1      -6.303  12.841  23.140  0.00  0.00    +0.000 A 
ATOM     18  C   UNL     1      -7.027  13.342  24.212  0.00  0.00    +0.000 A 
ATOM     19  N   UNL     1      -7.820  14.433  24.139  0.00  0.00    +0.000 NA
ATOM     20  C   UNL     1      -7.895  15.045  22.942  0.00  0.00    +0.000 A 
ATOM     21  C   UNL     1      -7.212  14.618  21.815  0.00  0.00    +0.000 A 
ENDBRANCH  13  16
ENDBRANCH   5   7
BRANCH   1  24
ATOM     22  O   UNL     1       2.445   9.263  17.240  0.00  0.00    +0.000 OA
ATOM     23  C   UNL     1       2.142   8.596  18.223  0.00  0.00    +0.000 C 
ATOM     24  N   UNL     1       1.346   8.998  19.284  0.00  0.00    +0.000 N 
ATOM     25  H   UNL     1       1.347   8.420  20.115  0.00  0.00    +0.000 HD
BRANCH  23  26
ATOM     26  C   UNL     1       2.743   7.249  18.338  0.00  0.00    +0.000 A 
ATOM     27  C   UNL     1       3.845   6.856  17.574  0.00  0.00    +0.000 A 
ATOM     28  C   UNL     1       4.397   5.588  17.768  0.00  0.00    +0.000 A 
ATOM     29  C   UNL     1       3.849   4.717  18.715  0.00  0.00    +0.000 A 
ATOM     30  C   UNL     1       2.745   5.102  19.492  0.00  0.00    +0.000 A 
ATOM     31  C   UNL     1       2.204   6.381  19.297  0.00  0.00    +0.000 A 
BRANCH  30  32
ATOM     32  C   UNL     1       2.144   4.180  20.524  0.00  0.00    +0.000 C 
ATOM     33  F   UNL     1       0.829   3.901  20.300  0.00  0.00    +0.000 F 
ATOM     34  F   UNL     1       2.776   2.976  20.580  0.00  0.00    +0.000 F 
ATOM     35  F   UNL     1       2.200   4.695  21.785  0.00  0.00    +0.000 F 
ENDBRANCH  30  32
ENDBRANCH  23  26
ENDBRANCH   1  24
TORSDOF 5
ENDMDL
