MODEL 1
REMARK VINA RESULT:      -8.5      0.000      0.000
REMARK  Name = 
REMARK  7 active torsions:
REMARK  status: ('A' for Active; 'I' for Inactive)
REMARK    1  A    between atoms: C_1  and  C_2
REMARK    2  A    between atoms: C_2  and  C_3
REMARK    3  A    between atoms: C_3  and  C_4
REMARK    4  A    between atoms: C_4  and  C_5
REMARK    5  A    between atoms: C_5  and  N_6
REMARK    6  A    between atoms: C_8  and  C_9
REMARK    7  A    between atoms: C_9  and  C_11
REMARK                            x       y       z     vdW  Elec       q    Type
REMARK                         _______ _______ _______ _____ _____    ______ ____
ROOT
ATOM      1  N   UNL     1       6.284   4.429  15.711  0.00  0.00    +0.000 N 
ATOM      2  C   UNL     1       5.042   3.818  15.788  0.00  0.00    +0.000 A 
ATOM      3  C   UNL     1       4.597   3.725  17.118  0.00  0.00    +0.000 A 
ATOM      4  C   UNL     1       5.617   4.500  17.851  0.00  0.00    +0.000 A 
ATOM      5  C   UNL     1       5.808   4.833  19.210  0.00  0.00    +0.000 A 
ATOM      6  N   UNL     1       6.919   5.522  19.609  0.00  0.00    +0.000 NA
ATOM      7  C   UNL     1       7.860   5.875  18.716  0.00  0.00    +0.000 A 
ATOM      8  C   UNL     1       7.778   5.569  17.368  0.00  0.00    +0.000 A 
ATOM      9  C   UNL     1       6.647   4.882  16.960  0.00  0.00    +0.000 A 
ENDROOT
BRANCH   3  10
ATOM     10  C   UNL     1       3.359   2.930  17.644  0.00  0.00    +0.000 C 
ATOM     11  O   UNL     1       3.123   1.781  17.286  0.00  0.00    +0.000 OA
BRANCH  10  12
ATOM     12  C   UNL     1       2.343   3.708  18.562  0.00  0.00    +0.000 A 
ATOM     13  C   UNL     1       1.622   2.822  19.347  0.00  0.00    +0.000 A 
ATOM     14  C   UNL     1       0.556   3.256  20.075  0.00  0.00    +0.000 A 
ATOM     15  C   UNL     1       0.977   4.281  20.863  0.00  0.00    +0.000 A 
ATOM     16  C   UNL     1       1.622   5.328  20.235  0.00  0.00    +0.000 A 
ATOM     17  C   UNL     1       1.565   6.528  20.952  0.00  0.00    +0.000 A 
ATOM     18  C   UNL     1       1.791   7.731  20.325  0.00  0.00    +0.000 A 
ATOM     19  C   UNL     1       2.156   7.703  18.986  0.00  0.00    +0.000 A 
ATOM     20  C   UNL     1       2.422   6.463  18.314  0.00  0.00    +0.000 A 
ATOM     21  C   UNL     1       2.178   5.154  18.928  0.00  0.00    +0.000 A 
ENDBRANCH  10  12
ENDBRANCH   3  10
BRANCH   1  22
ATOM     22  C   UNL     1       7.070   4.672  14.494  0.00  0.00    +0.000 C 
BRANCH  22  23
ATOM     23  C   UNL     1       6.288   4.547  13.167  0.00  0.00    +0.000 C 
BRANCH  23  24
ATOM     24  C   UNL     1       6.813   3.400  12.274  0.00  0.00    +0.000 C 
BRANCH  24  26
ATOM     25  C   UNL     1       4.368   3.303  11.557  0.00  0.00    +0.000 C 
ATOM     26  C   UNL     1       5.678   2.533  11.704  0.00  0.00    +0.000 C 
ENDBRANCH  24  26
ENDBRANCH  23  24
ENDBRANCH  22  23
ENDBRANCH   1  22
TORSDOF 6
ENDMDL
MODEL 2
REMARK VINA RESULT:      -8.1      1.682      4.236
REMARK  Name = 
REMARK  7 active torsions:
REMARK  status: ('A' for Active; 'I' for Inactive)
REMARK    1  A    between atoms: C_1  and  C_2
REMARK    2  A    between atoms: C_2  and  C_3
REMARK    3  A    between atoms: C_3  and  C_4
REMARK    4  A    between atoms: C_4  and  C_5
REMARK    5  A    between atoms: C_5  and  N_6
REMARK    6  A    between atoms: C_8  and  C_9
REMARK    7  A    between atoms: C_9  and  C_11
REMARK                            x       y       z     vdW  Elec       q    Type
REMARK                         _______ _______ _______ _____ _____    ______ ____
ROOT
ATOM      1  N   UNL     1       6.846   5.256  17.579  0.00  0.00    +0.000 N 
ATOM      2  C   UNL     1       5.921   4.516  18.301  0.00  0.00    +0.000 A 
ATOM      3  C   UNL     1       5.090   3.764  17.453  0.00  0.00    +0.000 A 
ATOM      4  C   UNL     1       5.706   3.978  16.129  0.00  0.00    +0.000 A 
ATOM      5  C   UNL     1       5.411   3.526  14.824  0.00  0.00    +0.000 A 
ATOM      6  N   UNL     1       6.138   3.965  13.754  0.00  0.00    +0.000 NA
ATOM      7  C   UNL     1       7.134   4.852  13.924  0.00  0.00    +0.000 A 
ATOM      8  C   UNL     1       7.482   5.375  15.158  0.00  0.00    +0.000 A 
ATOM      9  C   UNL     1       6.753   4.922  16.245  0.00  0.00    +0.000 A 
ENDROOT
BRANCH   3  10
ATOM     10  C   UNL     1       3.806   2.970  17.855  0.00  0.00    +0.000 C 
ATOM     11  O   UNL     1       3.619   1.811  17.497  0.00  0.00    +0.000 OA
BRANCH  10  12
ATOM     12  C   UNL     1       2.689   3.757  18.638  0.00  0.00    +0.000 A 
ATOM     13  C   UNL     1       1.953   2.891  19.432  0.00  0.00    +0.000 A 
ATOM     14  C   UNL     1       0.817   3.321  20.048  0.00  0.00    +0.000 A 
ATOM     15  C   UNL     1       1.130   4.418  20.787  0.00  0.00    +0.000 A 
ATOM     16  C   UNL     1       1.771   5.451  20.131  0.00  0.00    +0.000 A 
ATOM     17  C   UNL     1       1.605   6.694  20.752  0.00  0.00    +0.000 A 
ATOM     18  C   UNL     1       1.821   7.860  20.055  0.00  0.00    +0.000 A 
ATOM     19  C   UNL     1       2.287   7.756  18.751  0.00  0.00    +0.000 A 
ATOM     20  C   UNL     1       2.659   6.487  18.194  0.00  0.00    +0.000 A 
ATOM     21  C   UNL     1       2.431   5.214  18.883  0.00  0.00    +0.000 A 
ENDBRANCH  10  12
ENDBRANCH   3  10
BRANCH   1  22
ATOM     22  C   UNL     1       7.852   6.175  18.123  0.00  0.00    +0.000 C 
BRANCH  22  23
ATOM     23  C   UNL     1       7.646   7.666  17.770  0.00  0.00    +0.000 C 
BRANCH  23  24
ATOM     24  C   UNL     1       8.591   8.599  18.561  0.00  0.00    +0.000 C 
BRANCH  24  26
ATOM     25  C   UNL     1       9.437  10.987  18.854  0.00  0.00    +0.000 C 
ATOM     26  C   UNL     1       8.598  10.033  18.007  0.00  0.00    +0.000 C 
ENDBRANCH  24  26
ENDBRANCH  23  24
ENDBRANCH  22  23
ENDBRANCH   1  22
TORSDOF 6
ENDMDL
MODEL 3
REMARK VINA RESULT:      -8.0      1.709      2.817
REMARK  Name = 
REMARK  7 active torsions:
REMARK  status: ('A' for Active; 'I' for Inactive)
REMARK    1  A    between atoms: C_1  and  C_2
REMARK    2  A    between atoms: C_2  and  C_3
REMARK    3  A    between atoms: C_3  and  C_4
REMARK    4  A    between atoms: C_4  and  C_5
REMARK    5  A    between atoms: C_5  and  N_6
REMARK    6  A    between atoms: C_8  and  C_9
REMARK    7  A    between atoms: C_9  and  C_11
REMARK                            x       y       z     vdW  Elec       q    Type
REMARK                         _______ _______ _______ _____ _____    ______ ____
ROOT
ATOM      1  N   UNL     1       6.114   5.354  15.577  0.00  0.00    +0.000 N 
ATOM      2  C   UNL     1       5.002   6.173  15.706  0.00  0.00    +0.000 A 
ATOM      3  C   UNL     1       4.757   6.499  17.051  0.00  0.00    +0.000 A 
ATOM      4  C   UNL     1       5.938   5.939  17.736  0.00  0.00    +0.000 A 
ATOM      5  C   UNL     1       6.365   5.898  19.082  0.00  0.00    +0.000 A 
ATOM      6  N   UNL     1       7.500   5.223  19.432  0.00  0.00    +0.000 NA
ATOM      7  C   UNL     1       8.218   4.568  18.502  0.00  0.00    +0.000 A 
ATOM      8  C   UNL     1       7.867   4.524  17.164  0.00  0.00    +0.000 A 
ATOM      9  C   UNL     1       6.723   5.218  16.806  0.00  0.00    +0.000 A 
ENDROOT
BRANCH   3  10
ATOM     10  C   UNL     1       3.499   7.221  17.632  0.00  0.00    +0.000 C 
ATOM     11  O   UNL     1       3.065   8.262  17.149  0.00  0.00    +0.000 OA
BRANCH  10  12
ATOM     12  C   UNL     1       2.875   6.629  18.951  0.00  0.00    +0.000 A 
ATOM     13  C   UNL     1       2.142   7.598  19.617  0.00  0.00    +0.000 A 
ATOM     14  C   UNL     1       1.674   7.364  20.875  0.00  0.00    +0.000 A 
ATOM     15  C   UNL     1       0.941   6.219  20.843  0.00  0.00    +0.000 A 
ATOM     16  C   UNL     1       1.553   5.100  20.314  0.00  0.00    +0.000 A 
ATOM     17  C   UNL     1       0.997   3.897  20.761  0.00  0.00    +0.000 A 
ATOM     18  C   UNL     1       1.702   2.719  20.666  0.00  0.00    +0.000 A 
ATOM     19  C   UNL     1       2.940   2.758  20.038  0.00  0.00    +0.000 A 
ATOM     20  C   UNL     1       3.409   3.950  19.392  0.00  0.00    +0.000 A 
ATOM     21  C   UNL     1       2.709   5.235  19.481  0.00  0.00    +0.000 A 
ENDBRANCH  10  12
ENDBRANCH   3  10
BRANCH   1  22
ATOM     22  C   UNL     1       6.652   4.792  14.333  0.00  0.00    +0.000 C 
BRANCH  22  23
ATOM     23  C   UNL     1       5.660   3.940  13.509  0.00  0.00    +0.000 C 
BRANCH  23  24
ATOM     24  C   UNL     1       6.294   3.373  12.218  0.00  0.00    +0.000 C 
BRANCH  24  26
ATOM     25  C   UNL     1       3.994   3.101  11.150  0.00  0.00    +0.000 C 
ATOM     26  C   UNL     1       5.338   2.443  11.453  0.00  0.00    +0.000 C 
ENDBRANCH  24  26
ENDBRANCH  23  24
ENDBRANCH  22  23
ENDBRANCH   1  22
TORSDOF 6
ENDMDL
MODEL 4
REMARK VINA RESULT:      -7.8      3.417      6.132
REMARK  Name = 
REMARK  7 active torsions:
REMARK  status: ('A' for Active; 'I' for Inactive)
REMARK    1  A    between atoms: C_1  and  C_2
REMARK    2  A    between atoms: C_2  and  C_3
REMARK    3  A    between atoms: C_3  and  C_4
REMARK    4  A    between atoms: C_4  and  C_5
REMARK    5  A    between atoms: C_5  and  N_6
REMARK    6  A    between atoms: C_8  and  C_9
REMARK    7  A    between atoms: C_9  and  C_11
REMARK                            x       y       z     vdW  Elec       q    Type
REMARK                         _______ _______ _______ _____ _____    ______ ____
ROOT
ATOM      1  N   UNL     1       2.744   5.516  19.934  0.00  0.00    +0.000 N 
ATOM      2  C   UNL     1       1.897   6.568  19.619  0.00  0.00    +0.000 A 
ATOM      3  C   UNL     1       2.449   7.393  18.624  0.00  0.00    +0.000 A 
ATOM      4  C   UNL     1       3.658   6.646  18.224  0.00  0.00    +0.000 A 
ATOM      5  C   UNL     1       4.683   6.870  17.279  0.00  0.00    +0.000 A 
ATOM      6  N   UNL     1       5.743   6.013  17.184  0.00  0.00    +0.000 NA
ATOM      7  C   UNL     1       5.837   4.952  18.006  0.00  0.00    +0.000 A 
ATOM      8  C   UNL     1       4.900   4.664  18.983  0.00  0.00    +0.000 A 
ATOM      9  C   UNL     1       3.819   5.525  19.072  0.00  0.00    +0.000 A 
ENDROOT
BRANCH   3  10
ATOM     10  C   UNL     1       1.912   8.779  18.143  0.00  0.00    +0.000 C 
ATOM     11  O   UNL     1       2.475   9.427  17.267  0.00  0.00    +0.000 OA
BRANCH  10  12
ATOM     12  C   UNL     1       0.680   9.381  18.918  0.00  0.00    +0.000 A 
ATOM     13  C   UNL     1       1.005   9.597  20.248  0.00  0.00    +0.000 A 
ATOM     14  C   UNL     1       0.037   9.932  21.147  0.00  0.00    +0.000 A 
ATOM     15  C   UNL     1      -0.606  11.034  20.679  0.00  0.00    +0.000 A 
ATOM     16  C   UNL     1      -1.110  10.965  19.395  0.00  0.00    +0.000 A 
ATOM     17  C   UNL     1      -2.162  11.857  19.160  0.00  0.00    +0.000 A 
ATOM     18  C   UNL     1      -3.026  11.662  18.108  0.00  0.00    +0.000 A 
ATOM     19  C   UNL     1      -2.768  10.603  17.248  0.00  0.00    +0.000 A 
ATOM     20  C   UNL     1      -1.569   9.822  17.370  0.00  0.00    +0.000 A 
ATOM     21  C   UNL     1      -0.626   9.974  18.482  0.00  0.00    +0.000 A 
ENDBRANCH  10  12
ENDBRANCH   3  10
BRANCH   1  22
ATOM     22  C   UNL     1       2.514   4.475  20.942  0.00  0.00    +0.000 C 
BRANCH  22  23
ATOM     23  C   UNL     1       1.168   3.725  20.824  0.00  0.00    +0.000 C 
BRANCH  23  24
ATOM     24  C   UNL     1       0.976   3.064  19.441  0.00  0.00    +0.000 C 
BRANCH  24  26
ATOM     25  C   UNL     1       2.573   2.209  17.645  0.00  0.00    +0.000 C 
ATOM     26  C   UNL     1       2.111   2.086  19.095  0.00  0.00    +0.000 C 
ENDBRANCH  24  26
ENDBRANCH  23  24
ENDBRANCH  22  23
ENDBRANCH   1  22
TORSDOF 6
ENDMDL
MODEL 5
REMARK VINA RESULT:      -7.8      2.774      4.492
REMARK  Name = 
REMARK  7 active torsions:
REMARK  status: ('A' for Active; 'I' for Inactive)
REMARK    1  A    between atoms: C_1  and  C_2
REMARK    2  A    between atoms: C_2  and  C_3
REMARK    3  A    between atoms: C_3  and  C_4
REMARK    4  A    between atoms: C_4  and  C_5
REMARK    5  A    between atoms: C_5  and  N_6
REMARK    6  A    between atoms: C_8  and  C_9
REMARK    7  A    between atoms: C_9  and  C_11
REMARK                            x       y       z     vdW  Elec       q    Type
REMARK                         _______ _______ _______ _____ _____    ______ ____
ROOT
ATOM      1  N   UNL     1       4.992   5.325  17.692  0.00  0.00    +0.000 N 
ATOM      2  C   UNL     1       4.615   6.646  17.883  0.00  0.00    +0.000 A 
ATOM      3  C   UNL     1       3.216   6.783  17.902  0.00  0.00    +0.000 A 
ATOM      4  C   UNL     1       2.757   5.380  17.876  0.00  0.00    +0.000 A 
ATOM      5  C   UNL     1       1.487   4.762  17.882  0.00  0.00    +0.000 A 
ATOM      6  N   UNL     1       1.372   3.405  17.773  0.00  0.00    +0.000 NA
ATOM      7  C   UNL     1       2.468   2.637  17.637  0.00  0.00    +0.000 A 
ATOM      8  C   UNL     1       3.753   3.149  17.590  0.00  0.00    +0.000 A 
ATOM      9  C   UNL     1       3.871   4.524  17.712  0.00  0.00    +0.000 A 
ENDROOT
BRANCH   3  10
ATOM     10  C   UNL     1       2.399   8.114  17.888  0.00  0.00    +0.000 C 
ATOM     11  O   UNL     1       2.503   8.932  16.979  0.00  0.00    +0.000 OA
BRANCH  10  12
ATOM     12  C   UNL     1       1.523   8.434  19.157  0.00  0.00    +0.000 A 
ATOM     13  C   UNL     1       1.955   7.690  20.243  0.00  0.00    +0.000 A 
ATOM     14  C   UNL     1       1.224   7.662  21.393  0.00  0.00    +0.000 A 
ATOM     15  C   UNL     1       1.037   8.945  21.801  0.00  0.00    +0.000 A 
ATOM     16  C   UNL     1       0.498   9.821  20.879  0.00  0.00    +0.000 A 
ATOM     17  C   UNL     1      -0.137  10.923  21.463  0.00  0.00    +0.000 A 
ATOM     18  C   UNL     1      -1.049  11.666  20.750  0.00  0.00    +0.000 A 
ATOM     19  C   UNL     1      -1.250  11.335  19.417  0.00  0.00    +0.000 A 
ATOM     20  C   UNL     1      -0.440  10.344  18.767  0.00  0.00    +0.000 A 
ATOM     21  C   UNL     1       0.530   9.510  19.482  0.00  0.00    +0.000 A 
ENDBRANCH  10  12
ENDBRANCH   3  10
BRANCH   1  22
ATOM     22  C   UNL     1       6.363   4.809  17.591  0.00  0.00    +0.000 C 
BRANCH  22  23
ATOM     23  C   UNL     1       6.777   4.303  16.191  0.00  0.00    +0.000 C 
BRANCH  23  24
ATOM     24  C   UNL     1       6.040   5.041  15.050  0.00  0.00    +0.000 C 
BRANCH  24  26
ATOM     25  C   UNL     1       6.415   3.818  12.843  0.00  0.00    +0.000 C 
ATOM     26  C   UNL     1       5.458   4.074  14.005  0.00  0.00    +0.000 C 
ENDBRANCH  24  26
ENDBRANCH  23  24
ENDBRANCH  22  23
ENDBRANCH   1  22
TORSDOF 6
ENDMDL
MODEL 6
REMARK VINA RESULT:      -7.6      3.128      5.269
REMARK  Name = 
REMARK  7 active torsions:
REMARK  status: ('A' for Active; 'I' for Inactive)
REMARK    1  A    between atoms: C_1  and  C_2
REMARK    2  A    between atoms: C_2  and  C_3
REMARK    3  A    between atoms: C_3  and  C_4
REMARK    4  A    between atoms: C_4  and  C_5
REMARK    5  A    between atoms: C_5  and  N_6
REMARK    6  A    between atoms: C_8  and  C_9
REMARK    7  A    between atoms: C_9  and  C_11
REMARK                            x       y       z     vdW  Elec       q    Type
REMARK                         _______ _______ _______ _____ _____    ______ ____
ROOT
ATOM      1  N   UNL     1       4.917   5.031  17.951  0.00  0.00    +0.000 N 
ATOM      2  C   UNL     1       4.604   6.375  18.092  0.00  0.00    +0.000 A 
ATOM      3  C   UNL     1       3.216   6.588  18.028  0.00  0.00    +0.000 A 
ATOM      4  C   UNL     1       2.681   5.213  18.006  0.00  0.00    +0.000 A 
ATOM      5  C   UNL     1       1.381   4.665  17.954  0.00  0.00    +0.000 A 
ATOM      6  N   UNL     1       1.197   3.314  17.868  0.00  0.00    +0.000 NA
ATOM      7  C   UNL     1       2.253   2.484  17.810  0.00  0.00    +0.000 A 
ATOM      8  C   UNL     1       3.566   2.925  17.826  0.00  0.00    +0.000 A 
ATOM      9  C   UNL     1       3.754   4.294  17.925  0.00  0.00    +0.000 A 
ENDROOT
BRANCH   3  10
ATOM     10  C   UNL     1       2.477   7.962  17.939  0.00  0.00    +0.000 C 
ATOM     11  O   UNL     1       2.663   8.742  17.010  0.00  0.00    +0.000 OA
BRANCH  10  12
ATOM     12  C   UNL     1       1.572   8.372  19.160  0.00  0.00    +0.000 A 
ATOM     13  C   UNL     1       1.912   7.636  20.284  0.00  0.00    +0.000 A 
ATOM     14  C   UNL     1       1.135   7.687  21.402  0.00  0.00    +0.000 A 
ATOM     15  C   UNL     1       1.011   8.991  21.766  0.00  0.00    +0.000 A 
ATOM     16  C   UNL     1       0.565   9.870  20.799  0.00  0.00    +0.000 A 
ATOM     17  C   UNL     1      -0.024  11.025  21.325  0.00  0.00    +0.000 A 
ATOM     18  C   UNL     1      -0.858  11.800  20.554  0.00  0.00    +0.000 A 
ATOM     19  C   UNL     1      -1.025  11.442  19.223  0.00  0.00    +0.000 A 
ATOM     20  C   UNL     1      -0.252  10.385  18.635  0.00  0.00    +0.000 A 
ATOM     21  C   UNL     1       0.635   9.515  19.414  0.00  0.00    +0.000 A 
ENDBRANCH  10  12
ENDBRANCH   3  10
BRANCH   1  22
ATOM     22  C   UNL     1       6.260   4.439  17.939  0.00  0.00    +0.000 C 
BRANCH  22  23
ATOM     23  C   UNL     1       7.415   5.424  17.652  0.00  0.00    +0.000 C 
BRANCH  23  24
ATOM     24  C   UNL     1       7.963   6.087  18.936  0.00  0.00    +0.000 C 
BRANCH  24  26
ATOM     25  C   UNL     1       7.712   8.148  17.454  0.00  0.00    +0.000 C 
ATOM     26  C   UNL     1       8.329   7.565  18.723  0.00  0.00    +0.000 C 
ENDBRANCH  24  26
ENDBRANCH  23  24
ENDBRANCH  22  23
ENDBRANCH   1  22
TORSDOF 6
ENDMDL
MODEL 7
REMARK VINA RESULT:      -7.6      3.006      5.222
REMARK  Name = 
REMARK  7 active torsions:
REMARK  status: ('A' for Active; 'I' for Inactive)
REMARK    1  A    between atoms: C_1  and  C_2
REMARK    2  A    between atoms: C_2  and  C_3
REMARK    3  A    between atoms: C_3  and  C_4
REMARK    4  A    between atoms: C_4  and  C_5
REMARK    5  A    between atoms: C_5  and  N_6
REMARK    6  A    between atoms: C_8  and  C_9
REMARK    7  A    between atoms: C_9  and  C_11
REMARK                            x       y       z     vdW  Elec       q    Type
REMARK                         _______ _______ _______ _____ _____    ______ ____
ROOT
ATOM      1  N   UNL     1       3.778   4.373  17.850  0.00  0.00    +0.000 N 
ATOM      2  C   UNL     1       2.824   5.375  17.750  0.00  0.00    +0.000 A 
ATOM      3  C   UNL     1       3.420   6.648  17.700  0.00  0.00    +0.000 A 
ATOM      4  C   UNL     1       4.857   6.324  17.603  0.00  0.00    +0.000 A 
ATOM      5  C   UNL     1       6.034   7.099  17.510  0.00  0.00    +0.000 A 
ATOM      6  N   UNL     1       7.263   6.502  17.510  0.00  0.00    +0.000 NA
ATOM      7  C   UNL     1       7.372   5.166  17.620  0.00  0.00    +0.000 A 
ATOM      8  C   UNL     1       6.281   4.324  17.745  0.00  0.00    +0.000 A 
ATOM      9  C   UNL     1       5.034   4.927  17.733  0.00  0.00    +0.000 A 
ENDROOT
BRANCH   3  10
ATOM     10  C   UNL     1       2.699   8.030  17.793  0.00  0.00    +0.000 C 
ATOM     11  O   UNL     1       2.917   8.933  16.991  0.00  0.00    +0.000 OA
BRANCH  10  12
ATOM     12  C   UNL     1       1.767   8.273  19.039  0.00  0.00    +0.000 A 
ATOM     13  C   UNL     1       2.116   7.422  20.077  0.00  0.00    +0.000 A 
ATOM     14  C   UNL     1       1.324   7.324  21.181  0.00  0.00    +0.000 A 
ATOM     15  C   UNL     1       1.158   8.573  21.690  0.00  0.00    +0.000 A 
ATOM     16  C   UNL     1       0.698   9.545  20.823  0.00  0.00    +0.000 A 
ATOM     17  C   UNL     1       0.070  10.615  21.468  0.00  0.00    +0.000 A 
ATOM     18  C   UNL     1      -0.778  11.451  20.778  0.00  0.00    +0.000 A 
ATOM     19  C   UNL     1      -0.917  11.244  19.412  0.00  0.00    +0.000 A 
ATOM     20  C   UNL     1      -0.107  10.282  18.719  0.00  0.00    +0.000 A 
ATOM     21  C   UNL     1       0.795   9.354  19.407  0.00  0.00    +0.000 A 
ENDBRANCH  10  12
ENDBRANCH   3  10
BRANCH   1  22
ATOM     22  C   UNL     1       3.527   2.930  17.952  0.00  0.00    +0.000 C 
BRANCH  22  23
ATOM     23  C   UNL     1       3.082   2.433  19.346  0.00  0.00    +0.000 C 
BRANCH  23  24
ATOM     24  C   UNL     1       1.546   2.446  19.519  0.00  0.00    +0.000 C 
BRANCH  24  26
ATOM     25  C   UNL     1       2.136   3.705  21.657  0.00  0.00    +0.000 C 
ATOM     26  C   UNL     1       1.084   3.460  20.579  0.00  0.00    +0.000 C 
ENDBRANCH  24  26
ENDBRANCH  23  24
ENDBRANCH  22  23
ENDBRANCH   1  22
TORSDOF 6
ENDMDL
MODEL 8
REMARK VINA RESULT:      -7.5      2.136      4.650
REMARK  Name = 
REMARK  7 active torsions:
REMARK  status: ('A' for Active; 'I' for Inactive)
REMARK    1  A    between atoms: C_1  and  C_2
REMARK    2  A    between atoms: C_2  and  C_3
REMARK    3  A    between atoms: C_3  and  C_4
REMARK    4  A    between atoms: C_4  and  C_5
REMARK    5  A    between atoms: C_5  and  N_6
REMARK    6  A    between atoms: C_8  and  C_9
REMARK    7  A    between atoms: C_9  and  C_11
REMARK                            x       y       z     vdW  Elec       q    Type
REMARK                         _______ _______ _______ _____ _____    ______ ____
ROOT
ATOM      1  N   UNL     1       7.198   6.379  17.269  0.00  0.00    +0.000 N 
ATOM      2  C   UNL     1       6.602   5.933  18.440  0.00  0.00    +0.000 A 
ATOM      3  C   UNL     1       5.766   4.829  18.202  0.00  0.00    +0.000 A 
ATOM      4  C   UNL     1       6.036   4.522  16.784  0.00  0.00    +0.000 A 
ATOM      5  C   UNL     1       5.560   3.544  15.883  0.00  0.00    +0.000 A 
ATOM      6  N   UNL     1       5.948   3.556  14.573  0.00  0.00    +0.000 NA
ATOM      7  C   UNL     1       6.774   4.513  14.116  0.00  0.00    +0.000 A 
ATOM      8  C   UNL     1       7.272   5.530  14.912  0.00  0.00    +0.000 A 
ATOM      9  C   UNL     1       6.888   5.512  16.243  0.00  0.00    +0.000 A 
ENDROOT
BRANCH   3  10
ATOM     10  C   UNL     1       4.768   4.170  19.208  0.00  0.00    +0.000 C 
ATOM     11  O   UNL     1       4.974   3.064  19.699  0.00  0.00    +0.000 OA
BRANCH  10  12
ATOM     12  C   UNL     1       3.411   4.925  19.474  0.00  0.00    +0.000 A 
ATOM     13  C   UNL     1       2.684   4.279  20.461  0.00  0.00    +0.000 A 
ATOM     14  C   UNL     1       1.397   4.645  20.718  0.00  0.00    +0.000 A 
ATOM     15  C   UNL     1       1.385   5.979  20.981  0.00  0.00    +0.000 A 
ATOM     16  C   UNL     1       1.969   6.806  20.041  0.00  0.00    +0.000 A 
ATOM     17  C   UNL     1       1.493   8.121  20.084  0.00  0.00    +0.000 A 
ATOM     18  C   UNL     1       1.651   8.959  19.005  0.00  0.00    +0.000 A 
ATOM     19  C   UNL     1       2.368   8.482  17.916  0.00  0.00    +0.000 A 
ATOM     20  C   UNL     1       3.036   7.213  17.965  0.00  0.00    +0.000 A 
ATOM     21  C   UNL     1       2.884   6.272  19.079  0.00  0.00    +0.000 A 
ENDBRANCH  10  12
ENDBRANCH   3  10
BRANCH   1  22
ATOM     22  C   UNL     1       8.107   7.522  17.126  0.00  0.00    +0.000 C 
BRANCH  22  23
ATOM     23  C   UNL     1       8.176   8.469  18.345  0.00  0.00    +0.000 C 
BRANCH  23  24
ATOM     24  C   UNL     1       8.177   9.960  17.940  0.00  0.00    +0.000 C 
BRANCH  24  26
ATOM     25  C   UNL     1       9.499  10.620  20.019  0.00  0.00    +0.000 C 
ATOM     26  C   UNL     1       9.392  10.720  18.499  0.00  0.00    +0.000 C 
ENDBRANCH  24  26
ENDBRANCH  23  24
ENDBRANCH  22  23
ENDBRANCH   1  22
TORSDOF 6
ENDMDL
MODEL 9
REMARK VINA RESULT:      -7.5      3.255      6.183
REMARK  Name = 
REMARK  7 active torsions:
REMARK  status: ('A' for Active; 'I' for Inactive)
REMARK    1  A    between atoms: C_1  and  C_2
REMARK    2  A    between atoms: C_2  and  C_3
REMARK    3  A    between atoms: C_3  and  C_4
REMARK    4  A    between atoms: C_4  and  C_5
REMARK    5  A    between atoms: C_5  and  N_6
REMARK    6  A    between atoms: C_8  and  C_9
REMARK    7  A    between atoms: C_9  and  C_11
REMARK                            x       y       z     vdW  Elec       q    Type
REMARK                         _______ _______ _______ _____ _____    ______ ____
ROOT
ATOM      1  N   UNL     1       2.678   5.594  20.131  0.00  0.00    +0.000 N 
ATOM      2  C   UNL     1       1.819   6.623  19.777  0.00  0.00    +0.000 A 
ATOM      3  C   UNL     1       2.373   7.430  18.767  0.00  0.00    +0.000 A 
ATOM      4  C   UNL     1       3.598   6.692  18.404  0.00  0.00    +0.000 A 
ATOM      5  C   UNL     1       4.633   6.907  17.468  0.00  0.00    +0.000 A 
ATOM      6  N   UNL     1       5.708   6.065  17.411  0.00  0.00    +0.000 NA
ATOM      7  C   UNL     1       5.807   5.028  18.262  0.00  0.00    +0.000 A 
ATOM      8  C   UNL     1       4.861   4.751  19.234  0.00  0.00    +0.000 A 
ATOM      9  C   UNL     1       3.765   5.597  19.284  0.00  0.00    +0.000 A 
ENDROOT
BRANCH   3  10
ATOM     10  C   UNL     1       1.820   8.794  18.242  0.00  0.00    +0.000 C 
ATOM     11  O   UNL     1       1.754   9.051  17.044  0.00  0.00    +0.000 OA
BRANCH  10  12
ATOM     12  C   UNL     1       1.467   9.888  19.317  0.00  0.00    +0.000 A 
ATOM     13  C   UNL     1       1.570  11.157  18.769  0.00  0.00    +0.000 A 
ATOM     14  C   UNL     1       1.498  12.259  19.566  0.00  0.00    +0.000 A 
ATOM     15  C   UNL     1       0.336  12.191  20.270  0.00  0.00    +0.000 A 
ATOM     16  C   UNL     1       0.107  11.033  20.986  0.00  0.00    +0.000 A 
ATOM     17  C   UNL     1      -0.781  11.204  22.053  0.00  0.00    +0.000 A 
ATOM     18  C   UNL     1      -0.819  10.297  23.087  0.00  0.00    +0.000 A 
ATOM     19  C   UNL     1      -0.010   9.172  22.988  0.00  0.00    +0.000 A 
ATOM     20  C   UNL     1       0.736   8.895  21.794  0.00  0.00    +0.000 A 
ATOM     21  C   UNL     1       0.829   9.836  20.673  0.00  0.00    +0.000 A 
ENDBRANCH  10  12
ENDBRANCH   3  10
BRANCH   1  22
ATOM     22  C   UNL     1       2.450   4.576  21.164  0.00  0.00    +0.000 C 
BRANCH  22  23
ATOM     23  C   UNL     1       1.242   3.644  20.920  0.00  0.00    +0.000 C 
BRANCH  23  24
ATOM     24  C   UNL     1       1.578   2.474  19.967  0.00  0.00    +0.000 C 
BRANCH  24  26
ATOM     25  C   UNL     1       2.443   2.537  17.569  0.00  0.00    +0.000 C 
ATOM     26  C   UNL     1       1.261   2.802  18.499  0.00  0.00    +0.000 C 
ENDBRANCH  24  26
ENDBRANCH  23  24
ENDBRANCH  22  23
ENDBRANCH   1  22
TORSDOF 6
ENDMDL
