MODEL 1
REMARK VINA RESULT:      -8.3      0.000      0.000
REMARK  Name = 
REMARK  7 active torsions:
REMARK  status: ('A' for Active; 'I' for Inactive)
REMARK    1  A    between atoms: C_1  and  O_2
REMARK    2  A    between atoms: O_2  and  C_3
REMARK    3  A    between atoms: C_7  and  C_8
REMARK    4  A    between atoms: C_8  and  C_9
REMARK    5  A    between atoms: C_8  and  C_11
REMARK    6  A    between atoms: C_9  and  N_10
REMARK    7  A    between atoms: N_13  and  C_14
REMARK                            x       y       z     vdW  Elec       q    Type
REMARK                         _______ _______ _______ _____ _____    ______ ____
ROOT
ATOM      1  C   UNL     1       2.869   5.088  18.330  0.00  0.00    +0.000 C 
ATOM      2  O   UNL     1       1.721   4.869  17.941  0.00  0.00    +0.000 OA
ATOM      3  N   UNL     1       3.284   6.289  18.879  0.00  0.00    +0.000 N 
ATOM      4  H   UNL     1       4.297   6.443  18.862  0.00  0.00    +0.000 HD
ENDROOT
BRANCH   3   5
ATOM      5  C   UNL     1       2.459   7.418  19.063  0.00  0.00    +0.000 A 
ATOM      6  C   UNL     1       2.270   8.246  17.961  0.00  0.00    +0.000 A 
ATOM      7  C   UNL     1       1.387   9.330  18.039  0.00  0.00    +0.000 A 
ATOM      8  C   UNL     1       0.749   9.641  19.247  0.00  0.00    +0.000 A 
ATOM      9  C   UNL     1      -0.142  10.712  19.366  0.00  0.00    +0.000 A 
ATOM     10  N   UNL     1      -0.752  11.079  20.516  0.00  0.00    +0.000 NA
ATOM     11  C   UNL     1      -0.462  10.340  21.605  0.00  0.00    +0.000 A 
ATOM     12  C   UNL     1       0.390   9.243  21.598  0.00  0.00    +0.000 A 
ATOM     13  C   UNL     1       1.002   8.862  20.394  0.00  0.00    +0.000 A 
ATOM     14  C   UNL     1       1.848   7.735  20.284  0.00  0.00    +0.000 A 
ENDBRANCH   3   5
BRANCH   1  15
ATOM     15  C   UNL     1       3.982   4.036  18.134  0.00  0.00    +0.000 C 
BRANCH  15  20
ATOM     16  C   UNL     1       6.909   5.730  16.316  0.00  0.00    +0.000 A 
ATOM     17  C   UNL     1       6.992   4.994  15.137  0.00  0.00    +0.000 A 
ATOM     18  C   UNL     1       6.116   3.931  14.915  0.00  0.00    +0.000 A 
ATOM     19  C   UNL     1       5.137   3.607  15.863  0.00  0.00    +0.000 A 
ATOM     20  C   UNL     1       5.022   4.342  17.050  0.00  0.00    +0.000 A 
ATOM     21  C   UNL     1       5.927   5.409  17.257  0.00  0.00    +0.000 A 
BRANCH  16  23
ATOM     22  C   UNL     1       7.610   7.617  17.557  0.00  0.00    +0.000 C 
ATOM     23  O   UNL     1       7.790   6.773  16.424  0.00  0.00    +0.000 OA
ENDBRANCH  16  23
ENDBRANCH  15  20
BRANCH  15  24
ATOM     24  C   UNL     1       4.613   3.573  19.472  0.00  0.00    +0.000 C 
BRANCH  24  25
ATOM     25  N   UNL     1       4.833   2.119  19.560  0.00  0.00    +0.000 NA
ATOM     26  H   UNL     1       4.775   1.725  18.614  0.00  0.00    +0.000 HD
ATOM     27  H   UNL     1       4.042   1.705  20.060  0.00  0.00    +0.000 HD
ENDBRANCH  24  25
ENDBRANCH  15  24
ENDBRANCH   1  15
TORSDOF 6
ENDMDL
MODEL 2
REMARK VINA RESULT:      -8.2      1.165      1.207
REMARK  Name = 
REMARK  7 active torsions:
REMARK  status: ('A' for Active; 'I' for Inactive)
REMARK    1  A    between atoms: C_1  and  O_2
REMARK    2  A    between atoms: O_2  and  C_3
REMARK    3  A    between atoms: C_7  and  C_8
REMARK    4  A    between atoms: C_8  and  C_9
REMARK    5  A    between atoms: C_8  and  C_11
REMARK    6  A    between atoms: C_9  and  N_10
REMARK    7  A    between atoms: N_13  and  C_14
REMARK                            x       y       z     vdW  Elec       q    Type
REMARK                         _______ _______ _______ _____ _____    ______ ____
ROOT
ATOM      1  C   UNL     1       2.389   4.833  17.947  0.00  0.00    +0.000 C 
ATOM      2  O   UNL     1       1.207   4.838  17.599  0.00  0.00    +0.000 OA
ATOM      3  N   UNL     1       3.007   5.887  18.599  0.00  0.00    +0.000 N 
ATOM      4  H   UNL     1       4.030   5.886  18.545  0.00  0.00    +0.000 HD
ENDROOT
BRANCH   3   5
ATOM      5  C   UNL     1       2.377   7.099  18.948  0.00  0.00    +0.000 A 
ATOM      6  C   UNL     1       2.242   8.051  17.941  0.00  0.00    +0.000 A 
ATOM      7  C   UNL     1       1.541   9.238  18.185  0.00  0.00    +0.000 A 
ATOM      8  C   UNL     1       1.039   9.518  19.463  0.00  0.00    +0.000 A 
ATOM      9  C   UNL     1       0.331  10.690  19.746  0.00  0.00    +0.000 A 
ATOM     10  N   UNL     1      -0.139  11.025  20.970  0.00  0.00    +0.000 NA
ATOM     11  C   UNL     1       0.107  10.148  21.963  0.00  0.00    +0.000 A 
ATOM     12  C   UNL     1       0.781   8.945  21.791  0.00  0.00    +0.000 A 
ATOM     13  C   UNL     1       1.246   8.601  20.513  0.00  0.00    +0.000 A 
ATOM     14  C   UNL     1       1.903   7.380  20.236  0.00  0.00    +0.000 A 
ENDBRANCH   3   5
BRANCH   1  15
ATOM     15  C   UNL     1       3.314   3.654  17.581  0.00  0.00    +0.000 C 
BRANCH  15  20
ATOM     16  C   UNL     1       7.056   4.515  17.650  0.00  0.00    +0.000 A 
ATOM     17  C   UNL     1       7.347   4.684  16.299  0.00  0.00    +0.000 A 
ATOM     18  C   UNL     1       6.347   4.510  15.343  0.00  0.00    +0.000 A 
ATOM     19  C   UNL     1       5.041   4.183  15.732  0.00  0.00    +0.000 A 
ATOM     20  C   UNL     1       4.719   4.022  17.086  0.00  0.00    +0.000 A 
ATOM     21  C   UNL     1       5.752   4.194  18.036  0.00  0.00    +0.000 A 
BRANCH  16  23
ATOM     22  C   UNL     1       7.962   5.878  19.357  0.00  0.00    +0.000 C 
ATOM     23  O   UNL     1       8.097   4.741  18.511  0.00  0.00    +0.000 OA
ENDBRANCH  16  23
ENDBRANCH  15  20
BRANCH  15  24
ATOM     24  C   UNL     1       3.320   2.538  18.655  0.00  0.00    +0.000 C 
BRANCH  24  25
ATOM     25  N   UNL     1       3.712   1.214  18.143  0.00  0.00    +0.000 NA
ATOM     26  H   UNL     1       3.190   1.034  17.277  0.00  0.00    +0.000 HD
ATOM     27  H   UNL     1       3.374   0.504  18.798  0.00  0.00    +0.000 HD
ENDBRANCH  24  25
ENDBRANCH  15  24
ENDBRANCH   1  15
TORSDOF 6
ENDMDL
MODEL 3
REMARK VINA RESULT:      -8.2      1.177      1.833
REMARK  Name = 
REMARK  7 active torsions:
REMARK  status: ('A' for Active; 'I' for Inactive)
REMARK    1  A    between atoms: C_1  and  O_2
REMARK    2  A    between atoms: O_2  and  C_3
REMARK    3  A    between atoms: C_7  and  C_8
REMARK    4  A    between atoms: C_8  and  C_9
REMARK    5  A    between atoms: C_8  and  C_11
REMARK    6  A    between atoms: C_9  and  N_10
REMARK    7  A    between atoms: N_13  and  C_14
REMARK                            x       y       z     vdW  Elec       q    Type
REMARK                         _______ _______ _______ _____ _____    ______ ____
ROOT
ATOM      1  C   UNL     1       2.656   4.810  18.095  0.00  0.00    +0.000 C 
ATOM      2  O   UNL     1       1.465   4.710  17.793  0.00  0.00    +0.000 OA
ATOM      3  N   UNL     1       3.223   5.950  18.638  0.00  0.00    +0.000 N 
ATOM      4  H   UNL     1       4.240   6.012  18.545  0.00  0.00    +0.000 HD
ENDROOT
BRANCH   3   5
ATOM      5  C   UNL     1       2.524   7.144  18.914  0.00  0.00    +0.000 A 
ATOM      6  C   UNL     1       2.416   8.065  17.876  0.00  0.00    +0.000 A 
ATOM      7  C   UNL     1       1.655   9.228  18.044  0.00  0.00    +0.000 A 
ATOM      8  C   UNL     1       1.061   9.517  19.280  0.00  0.00    +0.000 A 
ATOM      9  C   UNL     1       0.290  10.665  19.488  0.00  0.00    +0.000 A 
ATOM     10  N   UNL     1      -0.270  11.010  20.669  0.00  0.00    +0.000 NA
ATOM     11  C   UNL     1      -0.054  10.166  21.699  0.00  0.00    +0.000 A 
ATOM     12  C   UNL     1       0.677   8.989  21.601  0.00  0.00    +0.000 A 
ATOM     13  C   UNL     1       1.237   8.634  20.365  0.00  0.00    +0.000 A 
ATOM     14  C   UNL     1       1.957   7.435  20.162  0.00  0.00    +0.000 A 
ENDBRANCH   3   5
BRANCH   1  15
ATOM     15  C   UNL     1       3.646   3.667  17.787  0.00  0.00    +0.000 C 
BRANCH  15  20
ATOM     16  C   UNL     1       6.374   4.626  15.260  0.00  0.00    +0.000 A 
ATOM     17  C   UNL     1       7.471   4.866  16.083  0.00  0.00    +0.000 A 
ATOM     18  C   UNL     1       7.346   4.736  17.466  0.00  0.00    +0.000 A 
ATOM     19  C   UNL     1       6.126   4.347  18.037  0.00  0.00    +0.000 A 
ATOM     20  C   UNL     1       5.012   4.085  17.229  0.00  0.00    +0.000 A 
ATOM     21  C   UNL     1       5.160   4.233  15.831  0.00  0.00    +0.000 A 
BRANCH  16  23
ATOM     22  C   UNL     1       6.178   3.652  13.114  0.00  0.00    +0.000 C 
ATOM     23  O   UNL     1       6.607   4.748  13.915  0.00  0.00    +0.000 OA
ENDBRANCH  16  23
ENDBRANCH  15  20
BRANCH  15  24
ATOM     24  C   UNL     1       3.747   2.634  18.937  0.00  0.00    +0.000 C 
BRANCH  24  25
ATOM     25  N   UNL     1       3.076   3.052  20.180  0.00  0.00    +0.000 NA
ATOM     26  H   UNL     1       3.490   3.939  20.489  0.00  0.00    +0.000 HD
ATOM     27  H   UNL     1       3.319   2.385  20.916  0.00  0.00    +0.000 HD
ENDBRANCH  24  25
ENDBRANCH  15  24
ENDBRANCH   1  15
TORSDOF 6
ENDMDL
MODEL 4
REMARK VINA RESULT:      -7.9      0.615      1.511
REMARK  Name = 
REMARK  7 active torsions:
REMARK  status: ('A' for Active; 'I' for Inactive)
REMARK    1  A    between atoms: C_1  and  O_2
REMARK    2  A    between atoms: O_2  and  C_3
REMARK    3  A    between atoms: C_7  and  C_8
REMARK    4  A    between atoms: C_8  and  C_9
REMARK    5  A    between atoms: C_8  and  C_11
REMARK    6  A    between atoms: C_9  and  N_10
REMARK    7  A    between atoms: N_13  and  C_14
REMARK                            x       y       z     vdW  Elec       q    Type
REMARK                         _______ _______ _______ _____ _____    ______ ____
ROOT
ATOM      1  C   UNL     1       2.786   5.070  18.458  0.00  0.00    +0.000 C 
ATOM      2  O   UNL     1       1.769   5.060  17.763  0.00  0.00    +0.000 OA
ATOM      3  N   UNL     1       3.072   6.047  19.396  0.00  0.00    +0.000 N 
ATOM      4  H   UNL     1       4.058   6.112  19.664  0.00  0.00    +0.000 HD
ENDROOT
BRANCH   3   5
ATOM      5  C   UNL     1       2.249   7.157  19.679  0.00  0.00    +0.000 A 
ATOM      6  C   UNL     1       1.544   7.129  20.878  0.00  0.00    +0.000 A 
ATOM      7  C   UNL     1       0.784   8.237  21.273  0.00  0.00    +0.000 A 
ATOM      8  C   UNL     1       0.659   9.350  20.431  0.00  0.00    +0.000 A 
ATOM      9  C   UNL     1      -0.088  10.477  20.790  0.00  0.00    +0.000 A 
ATOM     10  N   UNL     1      -0.273  11.558  19.999  0.00  0.00    +0.000 NA
ATOM     11  C   UNL     1       0.317  11.517  18.788  0.00  0.00    +0.000 A 
ATOM     12  C   UNL     1       1.097  10.460  18.337  0.00  0.00    +0.000 A 
ATOM     13  C   UNL     1       1.297   9.353  19.175  0.00  0.00    +0.000 A 
ATOM     14  C   UNL     1       2.110   8.253  18.817  0.00  0.00    +0.000 A 
ENDBRANCH   3   5
BRANCH   1  15
ATOM     15  C   UNL     1       3.891   4.011  18.255  0.00  0.00    +0.000 C 
BRANCH  15  20
ATOM     16  C   UNL     1       6.785   5.771  16.445  0.00  0.00    +0.000 A 
ATOM     17  C   UNL     1       6.929   4.999  15.295  0.00  0.00    +0.000 A 
ATOM     18  C   UNL     1       6.106   3.892  15.091  0.00  0.00    +0.000 A 
ATOM     19  C   UNL     1       5.119   3.557  16.027  0.00  0.00    +0.000 A 
ATOM     20  C   UNL     1       4.943   4.327  17.185  0.00  0.00    +0.000 A 
ATOM     21  C   UNL     1       5.796   5.439  17.375  0.00  0.00    +0.000 A 
BRANCH  16  23
ATOM     22  C   UNL     1       7.710   7.454  17.825  0.00  0.00    +0.000 C 
ATOM     23  O   UNL     1       7.617   6.855  16.537  0.00  0.00    +0.000 OA
ENDBRANCH  16  23
ENDBRANCH  15  20
BRANCH  15  24
ATOM     24  C   UNL     1       4.507   3.522  19.590  0.00  0.00    +0.000 C 
BRANCH  24  25
ATOM     25  N   UNL     1       4.969   2.123  19.560  0.00  0.00    +0.000 NA
ATOM     26  H   UNL     1       4.183   1.528  19.273  0.00  0.00    +0.000 HD
ATOM     27  H   UNL     1       5.175   1.833  20.519  0.00  0.00    +0.000 HD
ENDBRANCH  24  25
ENDBRANCH  15  24
ENDBRANCH   1  15
TORSDOF 6
ENDMDL
MODEL 5
REMARK VINA RESULT:      -7.9      1.541      1.775
REMARK  Name = 
REMARK  7 active torsions:
REMARK  status: ('A' for Active; 'I' for Inactive)
REMARK    1  A    between atoms: C_1  and  O_2
REMARK    2  A    between atoms: O_2  and  C_3
REMARK    3  A    between atoms: C_7  and  C_8
REMARK    4  A    between atoms: C_8  and  C_9
REMARK    5  A    between atoms: C_8  and  C_11
REMARK    6  A    between atoms: C_9  and  N_10
REMARK    7  A    between atoms: N_13  and  C_14
REMARK                            x       y       z     vdW  Elec       q    Type
REMARK                         _______ _______ _______ _____ _____    ______ ____
ROOT
ATOM      1  C   UNL     1       2.119   4.839  19.984  0.00  0.00    +0.000 C 
ATOM      2  O   UNL     1       1.005   4.664  20.480  0.00  0.00    +0.000 OA
ATOM      3  N   UNL     1       2.654   6.085  19.704  0.00  0.00    +0.000 N 
ATOM      4  H   UNL     1       3.419   6.082  19.024  0.00  0.00    +0.000 HD
ENDROOT
BRANCH   3   5
ATOM      5  C   UNL     1       2.002   7.313  19.943  0.00  0.00    +0.000 A 
ATOM      6  C   UNL     1       1.954   8.216  18.885  0.00  0.00    +0.000 A 
ATOM      7  C   UNL     1       1.242   9.414  19.015  0.00  0.00    +0.000 A 
ATOM      8  C   UNL     1       0.638   9.754  20.233  0.00  0.00    +0.000 A 
ATOM      9  C   UNL     1      -0.086  10.938  20.402  0.00  0.00    +0.000 A 
ATOM     10  N   UNL     1      -0.653  11.331  21.566  0.00  0.00    +0.000 NA
ATOM     11  C   UNL     1      -0.492  10.501  22.616  0.00  0.00    +0.000 A 
ATOM     12  C   UNL     1       0.188   9.292  22.556  0.00  0.00    +0.000 A 
ATOM     13  C   UNL     1       0.755   8.887  21.338  0.00  0.00    +0.000 A 
ATOM     14  C   UNL     1       1.426   7.654  21.174  0.00  0.00    +0.000 A 
ENDBRANCH   3   5
BRANCH   1  15
ATOM     15  C   UNL     1       2.980   3.639  19.536  0.00  0.00    +0.000 C 
BRANCH  15  20
ATOM     16  C   UNL     1       6.392   4.433  17.963  0.00  0.00    +0.000 A 
ATOM     17  C   UNL     1       6.094   4.457  16.604  0.00  0.00    +0.000 A 
ATOM     18  C   UNL     1       4.793   4.203  16.170  0.00  0.00    +0.000 A 
ATOM     19  C   UNL     1       3.774   3.942  17.095  0.00  0.00    +0.000 A 
ATOM     20  C   UNL     1       4.044   3.928  18.470  0.00  0.00    +0.000 A 
ATOM     21  C   UNL     1       5.373   4.178  18.885  0.00  0.00    +0.000 A 
BRANCH  16  23
ATOM     22  C   UNL     1       7.863   5.721  19.293  0.00  0.00    +0.000 C 
ATOM     23  O   UNL     1       7.690   4.727  18.289  0.00  0.00    +0.000 OA
ENDBRANCH  16  23
ENDBRANCH  15  20
BRANCH  15  24
ATOM     24  C   UNL     1       3.520   2.810  20.728  0.00  0.00    +0.000 C 
BRANCH  24  25
ATOM     25  N   UNL     1       2.589   2.719  21.866  0.00  0.00    +0.000 NA
ATOM     26  H   UNL     1       1.974   1.910  21.718  0.00  0.00    +0.000 HD
ATOM     27  H   UNL     1       1.962   3.528  21.833  0.00  0.00    +0.000 HD
ENDBRANCH  24  25
ENDBRANCH  15  24
ENDBRANCH   1  15
TORSDOF 6
ENDMDL
MODEL 6
REMARK VINA RESULT:      -7.8      2.363      3.847
REMARK  Name = 
REMARK  7 active torsions:
REMARK  status: ('A' for Active; 'I' for Inactive)
REMARK    1  A    between atoms: C_1  and  O_2
REMARK    2  A    between atoms: O_2  and  C_3
REMARK    3  A    between atoms: C_7  and  C_8
REMARK    4  A    between atoms: C_8  and  C_9
REMARK    5  A    between atoms: C_8  and  C_11
REMARK    6  A    between atoms: C_9  and  N_10
REMARK    7  A    between atoms: N_13  and  C_14
REMARK                            x       y       z     vdW  Elec       q    Type
REMARK                         _______ _______ _______ _____ _____    ______ ____
ROOT
ATOM      1  C   UNL     1       5.251   5.677  16.516  0.00  0.00    +0.000 C 
ATOM      2  O   UNL     1       5.281   6.777  15.961  0.00  0.00    +0.000 OA
ATOM      3  N   UNL     1       4.441   5.378  17.598  0.00  0.00    +0.000 N 
ATOM      4  H   UNL     1       4.736   4.565  18.145  0.00  0.00    +0.000 HD
ENDROOT
BRANCH   3   5
ATOM      5  C   UNL     1       3.550   6.284  18.211  0.00  0.00    +0.000 A 
ATOM      6  C   UNL     1       2.991   5.894  19.424  0.00  0.00    +0.000 A 
ATOM      7  C   UNL     1       2.175   6.778  20.139  0.00  0.00    +0.000 A 
ATOM      8  C   UNL     1       1.847   8.032  19.607  0.00  0.00    +0.000 A 
ATOM      9  C   UNL     1       1.039   8.946  20.291  0.00  0.00    +0.000 A 
ATOM     10  N   UNL     1       0.661  10.150  19.804  0.00  0.00    +0.000 NA
ATOM     11  C   UNL     1       1.111  10.462  18.573  0.00  0.00    +0.000 A 
ATOM     12  C   UNL     1       1.936   9.641  17.813  0.00  0.00    +0.000 A 
ATOM     13  C   UNL     1       2.336   8.403  18.338  0.00  0.00    +0.000 A 
ATOM     14  C   UNL     1       3.207   7.524  17.655  0.00  0.00    +0.000 A 
ENDBRANCH   3   5
BRANCH   1  15
ATOM     15  C   UNL     1       6.217   4.552  16.089  0.00  0.00    +0.000 C 
BRANCH  15  20
ATOM     16  C   UNL     1       5.997   3.432  12.422  0.00  0.00    +0.000 A 
ATOM     17  C   UNL     1       6.989   4.199  11.817  0.00  0.00    +0.000 A 
ATOM     18  C   UNL     1       7.734   5.100  12.577  0.00  0.00    +0.000 A 
ATOM     19  C   UNL     1       7.508   5.227  13.954  0.00  0.00    +0.000 A 
ATOM     20  C   UNL     1       6.526   4.455  14.589  0.00  0.00    +0.000 A 
ATOM     21  C   UNL     1       5.776   3.557  13.796  0.00  0.00    +0.000 A 
BRANCH  16  23
ATOM     22  C   UNL     1       6.043   1.351  11.300  0.00  0.00    +0.000 C 
ATOM     23  O   UNL     1       5.343   2.555  11.598  0.00  0.00    +0.000 OA
ENDBRANCH  16  23
ENDBRANCH  15  20
BRANCH  15  24
ATOM     24  C   UNL     1       7.484   4.478  16.978  0.00  0.00    +0.000 C 
BRANCH  24  25
ATOM     25  N   UNL     1       7.199   4.347  18.417  0.00  0.00    +0.000 NA
ATOM     26  H   UNL     1       7.628   3.477  18.754  0.00  0.00    +0.000 HD
ATOM     27  H   UNL     1       6.193   4.198  18.533  0.00  0.00    +0.000 HD
ENDBRANCH  24  25
ENDBRANCH  15  24
ENDBRANCH   1  15
TORSDOF 6
ENDMDL
MODEL 7
REMARK VINA RESULT:      -7.8      1.344      2.389
REMARK  Name = 
REMARK  7 active torsions:
REMARK  status: ('A' for Active; 'I' for Inactive)
REMARK    1  A    between atoms: C_1  and  O_2
REMARK    2  A    between atoms: O_2  and  C_3
REMARK    3  A    between atoms: C_7  and  C_8
REMARK    4  A    between atoms: C_8  and  C_9
REMARK    5  A    between atoms: C_8  and  C_11
REMARK    6  A    between atoms: C_9  and  N_10
REMARK    7  A    between atoms: N_13  and  C_14
REMARK                            x       y       z     vdW  Elec       q    Type
REMARK                         _______ _______ _______ _____ _____    ______ ____
ROOT
ATOM      1  C   UNL     1       2.491   4.687  18.116  0.00  0.00    +0.000 C 
ATOM      2  O   UNL     1       1.361   4.732  17.626  0.00  0.00    +0.000 OA
ATOM      3  N   UNL     1       3.013   5.663  18.947  0.00  0.00    +0.000 N 
ATOM      4  H   UNL     1       4.034   5.665  19.021  0.00  0.00    +0.000 HD
ENDROOT
BRANCH   3   5
ATOM      5  C   UNL     1       2.332   6.834  19.340  0.00  0.00    +0.000 A 
ATOM      6  C   UNL     1       1.730   6.821  20.595  0.00  0.00    +0.000 A 
ATOM      7  C   UNL     1       1.120   7.978  21.094  0.00  0.00    +0.000 A 
ATOM      8  C   UNL     1       1.038   9.135  20.307  0.00  0.00    +0.000 A 
ATOM      9  C   UNL     1       0.441  10.312  20.770  0.00  0.00    +0.000 A 
ATOM     10  N   UNL     1       0.300  11.440  20.038  0.00  0.00    +0.000 NA
ATOM     11  C   UNL     1       0.780  11.396  18.779  0.00  0.00    +0.000 A 
ATOM     12  C   UNL     1       1.410  10.289  18.224  0.00  0.00    +0.000 A 
ATOM     13  C   UNL     1       1.566   9.132  19.001  0.00  0.00    +0.000 A 
ATOM     14  C   UNL     1       2.231   7.976  18.534  0.00  0.00    +0.000 A 
ENDBRANCH   3   5
BRANCH   1  15
ATOM     15  C   UNL     1       3.466   3.550  17.745  0.00  0.00    +0.000 C 
BRANCH  15  20
ATOM     16  C   UNL     1       6.518   4.360  15.559  0.00  0.00    +0.000 A 
ATOM     17  C   UNL     1       7.463   4.753  16.502  0.00  0.00    +0.000 A 
ATOM     18  C   UNL     1       7.129   4.778  17.856  0.00  0.00    +0.000 A 
ATOM     19  C   UNL     1       5.851   4.391  18.280  0.00  0.00    +0.000 A 
ATOM     20  C   UNL     1       4.887   3.976  17.352  0.00  0.00    +0.000 A 
ATOM     21  C   UNL     1       5.245   3.968  15.985  0.00  0.00    +0.000 A 
BRANCH  16  23
ATOM     22  C   UNL     1       6.031   3.813  13.310  0.00  0.00    +0.000 C 
ATOM     23  O   UNL     1       6.953   4.337  14.260  0.00  0.00    +0.000 OA
ENDBRANCH  16  23
ENDBRANCH  15  20
BRANCH  15  24
ATOM     24  C   UNL     1       3.440   2.380  18.761  0.00  0.00    +0.000 C 
BRANCH  24  25
ATOM     25  N   UNL     1       4.124   1.163  18.292  0.00  0.00    +0.000 NA
ATOM     26  H   UNL     1       4.648   0.763  19.079  0.00  0.00    +0.000 HD
ATOM     27  H   UNL     1       4.843   1.439  17.619  0.00  0.00    +0.000 HD
ENDBRANCH  24  25
ENDBRANCH  15  24
ENDBRANCH   1  15
TORSDOF 6
ENDMDL
MODEL 8
REMARK VINA RESULT:      -7.7      1.228      1.870
REMARK  Name = 
REMARK  7 active torsions:
REMARK  status: ('A' for Active; 'I' for Inactive)
REMARK    1  A    between atoms: C_1  and  O_2
REMARK    2  A    between atoms: O_2  and  C_3
REMARK    3  A    between atoms: C_7  and  C_8
REMARK    4  A    between atoms: C_8  and  C_9
REMARK    5  A    between atoms: C_8  and  C_11
REMARK    6  A    between atoms: C_9  and  N_10
REMARK    7  A    between atoms: N_13  and  C_14
REMARK                            x       y       z     vdW  Elec       q    Type
REMARK                         _______ _______ _______ _____ _____    ______ ____
ROOT
ATOM      1  C   UNL     1       2.493   4.420  18.516  0.00  0.00    +0.000 C 
ATOM      2  O   UNL     1       1.284   4.203  18.620  0.00  0.00    +0.000 OA
ATOM      3  N   UNL     1       3.087   5.636  18.806  0.00  0.00    +0.000 N 
ATOM      4  H   UNL     1       4.011   5.775  18.385  0.00  0.00    +0.000 HD
ENDROOT
BRANCH   3   5
ATOM      5  C   UNL     1       2.399   6.783  19.252  0.00  0.00    +0.000 A 
ATOM      6  C   UNL     1       1.864   6.737  20.536  0.00  0.00    +0.000 A 
ATOM      7  C   UNL     1       1.252   7.870  21.085  0.00  0.00    +0.000 A 
ATOM      8  C   UNL     1       1.100   9.035  20.322  0.00  0.00    +0.000 A 
ATOM      9  C   UNL     1       0.498  10.189  20.834  0.00  0.00    +0.000 A 
ATOM     10  N   UNL     1       0.291  11.324  20.128  0.00  0.00    +0.000 NA
ATOM     11  C   UNL     1       0.705  11.311  18.845  0.00  0.00    +0.000 A 
ATOM     12  C   UNL     1       1.333  10.230  18.240  0.00  0.00    +0.000 A 
ATOM     13  C   UNL     1       1.559   9.065  18.990  0.00  0.00    +0.000 A 
ATOM     14  C   UNL     1       2.228   7.934  18.470  0.00  0.00    +0.000 A 
ENDBRANCH   3   5
BRANCH   1  15
ATOM     15  C   UNL     1       3.441   3.346  17.943  0.00  0.00    +0.000 C 
BRANCH  15  20
ATOM     16  C   UNL     1       7.017   4.640  17.413  0.00  0.00    +0.000 A 
ATOM     17  C   UNL     1       7.073   4.801  16.032  0.00  0.00    +0.000 A 
ATOM     18  C   UNL     1       5.966   4.482  15.247  0.00  0.00    +0.000 A 
ATOM     19  C   UNL     1       4.784   4.016  15.840  0.00  0.00    +0.000 A 
ATOM     20  C   UNL     1       4.697   3.860  17.229  0.00  0.00    +0.000 A 
ATOM     21  C   UNL     1       5.836   4.181  18.003  0.00  0.00    +0.000 A 
BRANCH  16  23
ATOM     22  C   UNL     1       7.928   5.832  19.242  0.00  0.00    +0.000 C 
ATOM     23  O   UNL     1       8.144   5.012  18.098  0.00  0.00    +0.000 OA
ENDBRANCH  16  23
ENDBRANCH  15  20
BRANCH  15  24
ATOM     24  C   UNL     1       3.735   2.206  18.950  0.00  0.00    +0.000 C 
BRANCH  24  25
ATOM     25  N   UNL     1       3.921   0.885  18.323  0.00  0.00    +0.000 NA
ATOM     26  H   UNL     1       4.396   1.018  17.423  0.00  0.00    +0.000 HD
ATOM     27  H   UNL     1       3.000   0.516  18.075  0.00  0.00    +0.000 HD
ENDBRANCH  24  25
ENDBRANCH  15  24
ENDBRANCH   1  15
TORSDOF 6
ENDMDL
MODEL 9
REMARK VINA RESULT:      -7.7      2.320      3.458
REMARK  Name = 
REMARK  7 active torsions:
REMARK  status: ('A' for Active; 'I' for Inactive)
REMARK    1  A    between atoms: C_1  and  O_2
REMARK    2  A    between atoms: O_2  and  C_3
REMARK    3  A    between atoms: C_7  and  C_8
REMARK    4  A    between atoms: C_8  and  C_9
REMARK    5  A    between atoms: C_8  and  C_11
REMARK    6  A    between atoms: C_9  and  N_10
REMARK    7  A    between atoms: N_13  and  C_14
REMARK                            x       y       z     vdW  Elec       q    Type
REMARK                         _______ _______ _______ _____ _____    ______ ____
ROOT
ATOM      1  C   UNL     1       5.101   5.894  16.446  0.00  0.00    +0.000 C 
ATOM      2  O   UNL     1       5.220   6.956  15.833  0.00  0.00    +0.000 OA
ATOM      3  N   UNL     1       4.248   5.713  17.520  0.00  0.00    +0.000 N 
ATOM      4  H   UNL     1       4.472   4.914  18.119  0.00  0.00    +0.000 HD
ENDROOT
BRANCH   3   5
ATOM      5  C   UNL     1       3.408   6.711  18.059  0.00  0.00    +0.000 A 
ATOM      6  C   UNL     1       3.164   7.826  17.262  0.00  0.00    +0.000 A 
ATOM      7  C   UNL     1       2.265   8.811  17.687  0.00  0.00    +0.000 A 
ATOM      8  C   UNL     1       1.663   8.727  18.950  0.00  0.00    +0.000 A 
ATOM      9  C   UNL     1       0.757   9.687  19.410  0.00  0.00    +0.000 A 
ATOM     10  N   UNL     1       0.180   9.674  20.633  0.00  0.00    +0.000 NA
ATOM     11  C   UNL     1       0.521   8.650  21.441  0.00  0.00    +0.000 A 
ATOM     12  C   UNL     1       1.394   7.631  21.081  0.00  0.00    +0.000 A 
ATOM     13  C   UNL     1       1.970   7.647  19.801  0.00  0.00    +0.000 A 
ATOM     14  C   UNL     1       2.834   6.630  19.334  0.00  0.00    +0.000 A 
ENDBRANCH   3   5
BRANCH   1  15
ATOM     15  C   UNL     1       5.997   4.683  16.107  0.00  0.00    +0.000 C 
BRANCH  15  20
ATOM     16  C   UNL     1       5.861   3.475  12.465  0.00  0.00    +0.000 A 
ATOM     17  C   UNL     1       6.955   4.122  11.896  0.00  0.00    +0.000 A 
ATOM     18  C   UNL     1       7.745   4.969  12.673  0.00  0.00    +0.000 A 
ATOM     19  C   UNL     1       7.459   5.162  14.031  0.00  0.00    +0.000 A 
ATOM     20  C   UNL     1       6.373   4.510  14.631  0.00  0.00    +0.000 A 
ATOM     21  C   UNL     1       5.581   3.664  13.821  0.00  0.00    +0.000 A 
BRANCH  16  23
ATOM     22  C   UNL     1       3.972   3.176  11.073  0.00  0.00    +0.000 C 
ATOM     23  O   UNL     1       5.168   2.640  11.629  0.00  0.00    +0.000 OA
ENDBRANCH  16  23
ENDBRANCH  15  20
BRANCH  15  24
ATOM     24  C   UNL     1       7.206   4.544  17.066  0.00  0.00    +0.000 C 
BRANCH  24  25
ATOM     25  N   UNL     1       6.836   4.222  18.455  0.00  0.00    +0.000 NA
ATOM     26  H   UNL     1       5.822   4.069  18.493  0.00  0.00    +0.000 HD
ATOM     27  H   UNL     1       6.992   5.055  19.029  0.00  0.00    +0.000 HD
ENDBRANCH  24  25
ENDBRANCH  15  24
ENDBRANCH   1  15
TORSDOF 6
ENDMDL
