MODEL 1
REMARK VINA RESULT:      -7.4      0.000      0.000
REMARK  Name = 
REMARK  9 active torsions:
REMARK  status: ('A' for Active; 'I' for Inactive)
REMARK    1  A    between atoms: C_2  and  C_3
REMARK    2  A    between atoms: C_3  and  O_4
REMARK    3  A    between atoms: O_4  and  C_5
REMARK    4  A    between atoms: C_6  and  O_7
REMARK    5  A    between atoms: O_7  and  C_8
REMARK    6  A    between atoms: C_8  and  C_9
REMARK    7  A    between atoms: C_14  and  C_15
REMARK    8  A    between atoms: C_18  and  C_19
REMARK    9  A    between atoms: C_18  and  C_20
REMARK                            x       y       z     vdW  Elec       q    Type
REMARK                         _______ _______ _______ _____ _____    ______ ____
ROOT
ATOM      1  C   UNL     1       4.308   5.736  17.413  0.00  0.00    +0.000 C 
ATOM      2  C   UNL     1       5.269   5.938  16.493  0.00  0.00    +0.000 C 
ATOM      3  C   UNL     1       5.332   4.715  15.698  0.00  0.00    +0.000 C 
ATOM      4  O   UNL     1       6.141   4.494  14.801  0.00  0.00    +0.000 OA
ATOM      5  O   UNL     1       4.400   3.836  16.139  0.00  0.00    +0.000 OA
ATOM      6  C   UNL     1       3.746   4.348  17.311  0.00  0.00    +0.000 C 
ENDROOT
BRANCH   6   7
ATOM      7  C   UNL     1       3.960   3.385  18.531  0.00  0.00    +0.000 C 
ATOM      8  C   UNL     1       3.379   1.986  18.428  0.00  0.00    +0.000 C 
ATOM      9  O   UNL     1       2.363   1.853  19.414  0.00  0.00    +0.000 OA
ATOM     10  C   UNL     1       2.303   3.089  20.122  0.00  0.00    +0.000 C 
ATOM     11  C   UNL     1       0.984   3.777  19.776  0.00  0.00    +0.000 C 
ATOM     12  C   UNL     1       2.345   2.802  21.622  0.00  0.00    +0.000 C 
ATOM     13  O   UNL     1       3.412   3.918  19.752  0.00  0.00    +0.000 OA
ENDBRANCH   6   7
BRANCH   1  14
ATOM     14  O   UNL     1       3.882   6.533  18.439  0.00  0.00    +0.000 OA
BRANCH  14  15
ATOM     15  C   UNL     1       2.539   7.005  18.382  0.00  0.00    +0.000 C 
BRANCH  15  17
ATOM     16  C   UNL     1       1.767   9.324  18.040  0.00  0.00    +0.000 C 
ATOM     17  C   UNL     1       2.567   8.314  17.681  0.00  0.00    +0.000 C 
ENDBRANCH  15  17
ENDBRANCH  14  15
ENDBRANCH   1  14
BRANCH   2  18
ATOM     18  O   UNL     1       6.243   6.950  16.469  0.00  0.00    +0.000 OA
BRANCH  18  19
ATOM     19  C   UNL     1       7.306   6.874  17.325  0.00  0.00    +0.000 C 
ATOM     20  C   UNL     1       7.790   8.265  17.698  0.00  0.00    +0.000 C 
ATOM     21  O   UNL     1       7.831   5.848  17.720  0.00  0.00    +0.000 OA
ENDBRANCH  18  19
ENDBRANCH   2  18
TORSDOF 6
ENDMDL
MODEL 2
REMARK VINA RESULT:      -7.3      1.844      3.795
REMARK  Name = 
REMARK  9 active torsions:
REMARK  status: ('A' for Active; 'I' for Inactive)
REMARK    1  A    between atoms: C_2  and  C_3
REMARK    2  A    between atoms: C_3  and  O_4
REMARK    3  A    between atoms: O_4  and  C_5
REMARK    4  A    between atoms: C_6  and  O_7
REMARK    5  A    between atoms: O_7  and  C_8
REMARK    6  A    between atoms: C_8  and  C_9
REMARK    7  A    between atoms: C_14  and  C_15
REMARK    8  A    between atoms: C_18  and  C_19
REMARK    9  A    between atoms: C_18  and  C_20
REMARK                            x       y       z     vdW  Elec       q    Type
REMARK                         _______ _______ _______ _____ _____    ______ ____
ROOT
ATOM      1  C   UNL     1       6.044   4.811  17.264  0.00  0.00    +0.000 C 
ATOM      2  C   UNL     1       7.062   5.402  17.914  0.00  0.00    +0.000 C 
ATOM      3  C   UNL     1       6.918   5.027  19.318  0.00  0.00    +0.000 C 
ATOM      4  O   UNL     1       7.626   5.434  20.236  0.00  0.00    +0.000 OA
ATOM      5  O   UNL     1       5.849   4.209  19.465  0.00  0.00    +0.000 OA
ATOM      6  C   UNL     1       5.145   4.080  18.219  0.00  0.00    +0.000 C 
ENDROOT
BRANCH   6   7
ATOM      7  C   UNL     1       3.668   4.588  18.362  0.00  0.00    +0.000 C 
ATOM      8  C   UNL     1       3.390   5.642  19.419  0.00  0.00    +0.000 C 
ATOM      9  O   UNL     1       2.535   5.071  20.402  0.00  0.00    +0.000 OA
ATOM     10  C   UNL     1       2.265   3.732  19.995  0.00  0.00    +0.000 C 
ATOM     11  C   UNL     1       2.960   2.784  20.970  0.00  0.00    +0.000 C 
ATOM     12  C   UNL     1       0.757   3.494  20.046  0.00  0.00    +0.000 C 
ATOM     13  O   UNL     1       2.748   3.520  18.662  0.00  0.00    +0.000 OA
ENDBRANCH   6   7
BRANCH   1  14
ATOM     14  O   UNL     1       5.674   4.877  15.950  0.00  0.00    +0.000 OA
BRANCH  14  15
ATOM     15  C   UNL     1       6.587   4.353  14.989  0.00  0.00    +0.000 C 
BRANCH  15  17
ATOM     16  C   UNL     1       6.322   3.646  12.640  0.00  0.00    +0.000 C 
ATOM     17  C   UNL     1       5.780   3.866  13.842  0.00  0.00    +0.000 C 
ENDBRANCH  15  17
ENDBRANCH  14  15
ENDBRANCH   1  14
BRANCH   2  18
ATOM     18  O   UNL     1       7.907   6.423  17.449  0.00  0.00    +0.000 OA
BRANCH  18  19
ATOM     19  C   UNL     1       7.438   7.706  17.396  0.00  0.00    +0.000 C 
ATOM     20  C   UNL     1       8.351   8.640  18.171  0.00  0.00    +0.000 C 
ATOM     21  O   UNL     1       6.416   8.068  16.840  0.00  0.00    +0.000 OA
ENDBRANCH  18  19
ENDBRANCH   2  18
TORSDOF 6
ENDMDL
MODEL 3
REMARK VINA RESULT:      -7.2      1.008      1.141
REMARK  Name = 
REMARK  9 active torsions:
REMARK  status: ('A' for Active; 'I' for Inactive)
REMARK    1  A    between atoms: C_2  and  C_3
REMARK    2  A    between atoms: C_3  and  O_4
REMARK    3  A    between atoms: O_4  and  C_5
REMARK    4  A    between atoms: C_6  and  O_7
REMARK    5  A    between atoms: O_7  and  C_8
REMARK    6  A    between atoms: C_8  and  C_9
REMARK    7  A    between atoms: C_14  and  C_15
REMARK    8  A    between atoms: C_18  and  C_19
REMARK    9  A    between atoms: C_18  and  C_20
REMARK                            x       y       z     vdW  Elec       q    Type
REMARK                         _______ _______ _______ _____ _____    ______ ____
ROOT
ATOM      1  C   UNL     1       4.281   6.046  17.296  0.00  0.00    +0.000 C 
ATOM      2  C   UNL     1       5.310   5.775  16.472  0.00  0.00    +0.000 C 
ATOM      3  C   UNL     1       5.249   4.340  16.208  0.00  0.00    +0.000 C 
ATOM      4  O   UNL     1       6.069   3.706  15.550  0.00  0.00    +0.000 OA
ATOM      5  O   UNL     1       4.184   3.802  16.849  0.00  0.00    +0.000 OA
ATOM      6  C   UNL     1       3.542   4.793  17.668  0.00  0.00    +0.000 C 
ENDROOT
BRANCH   6   7
ATOM      7  C   UNL     1       3.555   4.360  19.175  0.00  0.00    +0.000 C 
ATOM      8  C   UNL     1       4.175   3.015  19.511  0.00  0.00    +0.000 C 
ATOM      9  O   UNL     1       3.151   2.167  20.015  0.00  0.00    +0.000 OA
ATOM     10  C   UNL     1       1.944   2.925  20.017  0.00  0.00    +0.000 C 
ATOM     11  C   UNL     1       1.012   2.349  18.953  0.00  0.00    +0.000 C 
ATOM     12  C   UNL     1       1.283   2.797  21.389  0.00  0.00    +0.000 C 
ATOM     13  O   UNL     1       2.230   4.301  19.739  0.00  0.00    +0.000 OA
ENDBRANCH   6   7
BRANCH   1  14
ATOM     14  O   UNL     1       3.911   7.217  17.896  0.00  0.00    +0.000 OA
BRANCH  14  15
ATOM     15  C   UNL     1       2.518   7.433  18.101  0.00  0.00    +0.000 C 
BRANCH  15  17
ATOM     16  C   UNL     1       1.426   9.635  18.316  0.00  0.00    +0.000 C 
ATOM     17  C   UNL     1       2.216   8.806  17.625  0.00  0.00    +0.000 C 
ENDBRANCH  15  17
ENDBRANCH  14  15
ENDBRANCH   1  14
BRANCH   2  18
ATOM     18  O   UNL     1       6.412   6.590  16.170  0.00  0.00    +0.000 OA
BRANCH  18  19
ATOM     19  C   UNL     1       7.160   7.109  17.190  0.00  0.00    +0.000 C 
ATOM     20  C   UNL     1       7.586   6.012  18.150  0.00  0.00    +0.000 C 
ATOM     21  O   UNL     1       7.430   8.287  17.347  0.00  0.00    +0.000 OA
ENDBRANCH  18  19
ENDBRANCH   2  18
TORSDOF 6
ENDMDL
MODEL 4
REMARK VINA RESULT:      -7.1      1.558      5.162
REMARK  Name = 
REMARK  9 active torsions:
REMARK  status: ('A' for Active; 'I' for Inactive)
REMARK    1  A    between atoms: C_2  and  C_3
REMARK    2  A    between atoms: C_3  and  O_4
REMARK    3  A    between atoms: O_4  and  C_5
REMARK    4  A    between atoms: C_6  and  O_7
REMARK    5  A    between atoms: O_7  and  C_8
REMARK    6  A    between atoms: C_8  and  C_9
REMARK    7  A    between atoms: C_14  and  C_15
REMARK    8  A    between atoms: C_18  and  C_19
REMARK    9  A    between atoms: C_18  and  C_20
REMARK                            x       y       z     vdW  Elec       q    Type
REMARK                         _______ _______ _______ _____ _____    ______ ____
ROOT
ATOM      1  C   UNL     1       3.844   5.320  18.898  0.00  0.00    +0.000 C 
ATOM      2  C   UNL     1       3.232   4.128  18.782  0.00  0.00    +0.000 C 
ATOM      3  C   UNL     1       4.248   3.120  19.075  0.00  0.00    +0.000 C 
ATOM      4  O   UNL     1       4.082   1.906  19.001  0.00  0.00    +0.000 OA
ATOM      5  O   UNL     1       5.418   3.728  19.384  0.00  0.00    +0.000 OA
ATOM      6  C   UNL     1       5.304   5.150  19.203  0.00  0.00    +0.000 C 
ENDROOT
BRANCH   6   7
ATOM      7  C   UNL     1       6.335   5.656  18.135  0.00  0.00    +0.000 C 
ATOM      8  C   UNL     1       5.935   6.851  17.288  0.00  0.00    +0.000 C 
ATOM      9  O   UNL     1       5.826   6.422  15.937  0.00  0.00    +0.000 OA
ATOM     10  C   UNL     1       6.151   5.034  15.912  0.00  0.00    +0.000 C 
ATOM     11  C   UNL     1       4.880   4.249  15.593  0.00  0.00    +0.000 C 
ATOM     12  C   UNL     1       7.185   4.789  14.814  0.00  0.00    +0.000 C 
ATOM     13  O   UNL     1       6.682   4.633  17.181  0.00  0.00    +0.000 OA
ENDBRANCH   6   7
BRANCH   1  14
ATOM     14  O   UNL     1       3.373   6.583  18.677  0.00  0.00    +0.000 OA
BRANCH  14  15
ATOM     15  C   UNL     1       2.370   7.070  19.565  0.00  0.00    +0.000 C 
BRANCH  15  17
ATOM     16  C   UNL     1       1.988   8.691  17.744  0.00  0.00    +0.000 C 
ATOM     17  C   UNL     1       1.933   8.390  19.046  0.00  0.00    +0.000 C 
ENDBRANCH  15  17
ENDBRANCH  14  15
ENDBRANCH   1  14
BRANCH   2  18
ATOM     18  O   UNL     1       1.987   3.850  18.194  0.00  0.00    +0.000 OA
BRANCH  18  19
ATOM     19  C   UNL     1       1.045   3.170  18.914  0.00  0.00    +0.000 C 
ATOM     20  C   UNL     1       0.928   3.743  20.315  0.00  0.00    +0.000 C 
ATOM     21  O   UNL     1       0.401   2.213  18.520  0.00  0.00    +0.000 OA
ENDBRANCH  18  19
ENDBRANCH   2  18
TORSDOF 6
ENDMDL
MODEL 5
REMARK VINA RESULT:      -7.0      1.106      1.154
REMARK  Name = 
REMARK  9 active torsions:
REMARK  status: ('A' for Active; 'I' for Inactive)
REMARK    1  A    between atoms: C_2  and  C_3
REMARK    2  A    between atoms: C_3  and  O_4
REMARK    3  A    between atoms: O_4  and  C_5
REMARK    4  A    between atoms: C_6  and  O_7
REMARK    5  A    between atoms: O_7  and  C_8
REMARK    6  A    between atoms: C_8  and  C_9
REMARK    7  A    between atoms: C_14  and  C_15
REMARK    8  A    between atoms: C_18  and  C_19
REMARK    9  A    between atoms: C_18  and  C_20
REMARK                            x       y       z     vdW  Elec       q    Type
REMARK                         _______ _______ _______ _____ _____    ______ ____
ROOT
ATOM      1  C   UNL     1       4.328   5.152  17.896  0.00  0.00    +0.000 C 
ATOM      2  C   UNL     1       5.352   5.174  17.024  0.00  0.00    +0.000 C 
ATOM      3  C   UNL     1       5.076   4.122  16.048  0.00  0.00    +0.000 C 
ATOM      4  O   UNL     1       5.825   3.792  15.133  0.00  0.00    +0.000 OA
ATOM      5  O   UNL     1       3.896   3.526  16.342  0.00  0.00    +0.000 OA
ATOM      6  C   UNL     1       3.370   4.041  17.576  0.00  0.00    +0.000 C 
ENDROOT
BRANCH   6   7
ATOM      7  C   UNL     1       3.210   2.892  18.632  0.00  0.00    +0.000 C 
ATOM      8  C   UNL     1       2.052   1.928  18.447  0.00  0.00    +0.000 C 
ATOM      9  O   UNL     1       1.159   2.089  19.541  0.00  0.00    +0.000 OA
ATOM     10  C   UNL     1       1.716   3.089  20.391  0.00  0.00    +0.000 C 
ATOM     11  C   UNL     1       0.832   4.332  20.314  0.00  0.00    +0.000 C 
ATOM     12  C   UNL     1       1.729   2.566  21.826  0.00  0.00    +0.000 C 
ATOM     13  O   UNL     1       3.051   3.398  19.972  0.00  0.00    +0.000 OA
ENDBRANCH   6   7
BRANCH   1  14
ATOM     14  O   UNL     1       4.114   5.884  19.030  0.00  0.00    +0.000 OA
BRANCH  14  15
ATOM     15  C   UNL     1       2.944   6.697  19.070  0.00  0.00    +0.000 C 
BRANCH  15  17
ATOM     16  C   UNL     1       2.217   8.700  17.825  0.00  0.00    +0.000 C 
ATOM     17  C   UNL     1       3.038   7.650  17.935  0.00  0.00    +0.000 C 
ENDBRANCH  15  17
ENDBRANCH  14  15
ENDBRANCH   1  14
BRANCH   2  18
ATOM     18  O   UNL     1       6.591   5.821  17.162  0.00  0.00    +0.000 OA
BRANCH  18  19
ATOM     19  C   UNL     1       7.593   5.203  17.856  0.00  0.00    +0.000 C 
ATOM     20  C   UNL     1       7.841   5.909  19.178  0.00  0.00    +0.000 C 
ATOM     21  O   UNL     1       8.236   4.241  17.473  0.00  0.00    +0.000 OA
ENDBRANCH  18  19
ENDBRANCH   2  18
TORSDOF 6
ENDMDL
MODEL 6
REMARK VINA RESULT:      -6.8      1.304      1.570
REMARK  Name = 
REMARK  9 active torsions:
REMARK  status: ('A' for Active; 'I' for Inactive)
REMARK    1  A    between atoms: C_2  and  C_3
REMARK    2  A    between atoms: C_3  and  O_4
REMARK    3  A    between atoms: O_4  and  C_5
REMARK    4  A    between atoms: C_6  and  O_7
REMARK    5  A    between atoms: O_7  and  C_8
REMARK    6  A    between atoms: C_8  and  C_9
REMARK    7  A    between atoms: C_14  and  C_15
REMARK    8  A    between atoms: C_18  and  C_19
REMARK    9  A    between atoms: C_18  and  C_20
REMARK                            x       y       z     vdW  Elec       q    Type
REMARK                         _______ _______ _______ _____ _____    ______ ____
ROOT
ATOM      1  C   UNL     1       5.063   6.239  16.846  0.00  0.00    +0.000 C 
ATOM      2  C   UNL     1       6.392   6.192  16.641  0.00  0.00    +0.000 C 
ATOM      3  C   UNL     1       6.768   4.785  16.746  0.00  0.00    +0.000 C 
ATOM      4  O   UNL     1       7.916   4.353  16.685  0.00  0.00    +0.000 OA
ATOM      5  O   UNL     1       5.666   4.034  16.980  0.00  0.00    +0.000 OA
ATOM      6  C   UNL     1       4.517   4.877  17.166  0.00  0.00    +0.000 C 
ENDROOT
BRANCH   6   7
ATOM      7  C   UNL     1       3.894   4.658  18.588  0.00  0.00    +0.000 C 
ATOM      8  C   UNL     1       4.549   3.626  19.488  0.00  0.00    +0.000 C 
ATOM      9  O   UNL     1       3.622   2.570  19.702  0.00  0.00    +0.000 OA
ATOM     10  C   UNL     1       2.432   2.907  18.992  0.00  0.00    +0.000 C 
ATOM     11  C   UNL     1       2.283   1.943  17.817  0.00  0.00    +0.000 C 
ATOM     12  C   UNL     1       1.237   2.750  19.930  0.00  0.00    +0.000 C 
ATOM     13  O   UNL     1       2.510   4.260  18.524  0.00  0.00    +0.000 OA
ENDBRANCH   6   7
BRANCH   1  14
ATOM     14  O   UNL     1       4.214   7.308  16.914  0.00  0.00    +0.000 OA
BRANCH  14  15
ATOM     15  C   UNL     1       3.532   7.522  18.147  0.00  0.00    +0.000 C 
BRANCH  15  17
ATOM     16  C   UNL     1       1.992   9.420  17.804  0.00  0.00    +0.000 C 
ATOM     17  C   UNL     1       2.205   8.099  17.815  0.00  0.00    +0.000 C 
ENDBRANCH  15  17
ENDBRANCH  14  15
ENDBRANCH   1  14
BRANCH   2  18
ATOM     18  O   UNL     1       7.305   7.259  16.646  0.00  0.00    +0.000 OA
BRANCH  18  19
ATOM     19  C   UNL     1       7.849   7.667  17.832  0.00  0.00    +0.000 C 
ATOM     20  C   UNL     1       8.045   9.173  17.839  0.00  0.00    +0.000 C 
ATOM     21  O   UNL     1       8.171   6.940  18.755  0.00  0.00    +0.000 OA
ENDBRANCH  18  19
ENDBRANCH   2  18
TORSDOF 6
ENDMDL
MODEL 7
REMARK VINA RESULT:      -6.8      1.853      3.860
REMARK  Name = 
REMARK  9 active torsions:
REMARK  status: ('A' for Active; 'I' for Inactive)
REMARK    1  A    between atoms: C_2  and  C_3
REMARK    2  A    between atoms: C_3  and  O_4
REMARK    3  A    between atoms: O_4  and  C_5
REMARK    4  A    between atoms: C_6  and  O_7
REMARK    5  A    between atoms: O_7  and  C_8
REMARK    6  A    between atoms: C_8  and  C_9
REMARK    7  A    between atoms: C_14  and  C_15
REMARK    8  A    between atoms: C_18  and  C_19
REMARK    9  A    between atoms: C_18  and  C_20
REMARK                            x       y       z     vdW  Elec       q    Type
REMARK                         _______ _______ _______ _____ _____    ______ ____
ROOT
ATOM      1  C   UNL     1       5.935   4.643  16.300  0.00  0.00    +0.000 C 
ATOM      2  C   UNL     1       6.814   5.275  17.098  0.00  0.00    +0.000 C 
ATOM      3  C   UNL     1       6.624   4.714  18.434  0.00  0.00    +0.000 C 
ATOM      4  O   UNL     1       7.203   5.092  19.449  0.00  0.00    +0.000 OA
ATOM      5  O   UNL     1       5.670   3.755  18.394  0.00  0.00    +0.000 OA
ATOM      6  C   UNL     1       5.079   3.691  17.085  0.00  0.00    +0.000 C 
ENDROOT
BRANCH   6   7
ATOM      7  C   UNL     1       3.540   3.985  17.157  0.00  0.00    +0.000 C 
ATOM      8  C   UNL     1       3.086   5.121  18.055  0.00  0.00    +0.000 C 
ATOM      9  O   UNL     1       2.306   4.571  19.109  0.00  0.00    +0.000 OA
ATOM     10  C   UNL     1       2.249   3.163  18.895  0.00  0.00    +0.000 C 
ATOM     11  C   UNL     1       3.058   2.476  19.994  0.00  0.00    +0.000 C 
ATOM     12  C   UNL     1       0.793   2.709  18.981  0.00  0.00    +0.000 C 
ATOM     13  O   UNL     1       2.785   2.842  17.605  0.00  0.00    +0.000 OA
ENDBRANCH   6   7
BRANCH   1  14
ATOM     14  O   UNL     1       5.654   4.822  14.975  0.00  0.00    +0.000 OA
BRANCH  14  15
ATOM     15  C   UNL     1       6.420   4.070  14.038  0.00  0.00    +0.000 C 
BRANCH  15  17
ATOM     16  C   UNL     1       5.870   2.844  11.968  0.00  0.00    +0.000 C 
ATOM     17  C   UNL     1       5.511   3.711  12.921  0.00  0.00    +0.000 C 
ENDBRANCH  15  17
ENDBRANCH  14  15
ENDBRANCH   1  14
BRANCH   2  18
ATOM     18  O   UNL     1       7.542   6.445  16.826  0.00  0.00    +0.000 OA
BRANCH  18  19
ATOM     19  C   UNL     1       7.073   7.645  17.282  0.00  0.00    +0.000 C 
ATOM     20  C   UNL     1       8.205   8.474  17.864  0.00  0.00    +0.000 C 
ATOM     21  O   UNL     1       5.910   8.007  17.267  0.00  0.00    +0.000 OA
ENDBRANCH  18  19
ENDBRANCH   2  18
TORSDOF 6
ENDMDL
MODEL 8
REMARK VINA RESULT:      -6.8      1.869      3.489
REMARK  Name = 
REMARK  9 active torsions:
REMARK  status: ('A' for Active; 'I' for Inactive)
REMARK    1  A    between atoms: C_2  and  C_3
REMARK    2  A    between atoms: C_3  and  O_4
REMARK    3  A    between atoms: O_4  and  C_5
REMARK    4  A    between atoms: C_6  and  O_7
REMARK    5  A    between atoms: O_7  and  C_8
REMARK    6  A    between atoms: C_8  and  C_9
REMARK    7  A    between atoms: C_14  and  C_15
REMARK    8  A    between atoms: C_18  and  C_19
REMARK    9  A    between atoms: C_18  and  C_20
REMARK                            x       y       z     vdW  Elec       q    Type
REMARK                         _______ _______ _______ _____ _____    ______ ____
ROOT
ATOM      1  C   UNL     1       5.181   4.501  17.027  0.00  0.00    +0.000 C 
ATOM      2  C   UNL     1       5.857   5.389  17.780  0.00  0.00    +0.000 C 
ATOM      3  C   UNL     1       6.032   4.761  19.087  0.00  0.00    +0.000 C 
ATOM      4  O   UNL     1       6.545   5.296  20.066  0.00  0.00    +0.000 OA
ATOM      5  O   UNL     1       5.490   3.520  19.073  0.00  0.00    +0.000 OA
ATOM      6  C   UNL     1       4.820   3.281  17.825  0.00  0.00    +0.000 C 
ENDROOT
BRANCH   6   7
ATOM      7  C   UNL     1       3.297   2.989  18.060  0.00  0.00    +0.000 C 
ATOM      8  C   UNL     1       2.296   3.841  17.300  0.00  0.00    +0.000 C 
ATOM      9  O   UNL     1       1.563   4.613  18.242  0.00  0.00    +0.000 OA
ATOM     10  C   UNL     1       2.053   4.269  19.536  0.00  0.00    +0.000 C 
ATOM     11  C   UNL     1       2.807   5.471  20.099  0.00  0.00    +0.000 C 
ATOM     12  C   UNL     1       0.867   3.946  20.443  0.00  0.00    +0.000 C 
ATOM     13  O   UNL     1       2.920   3.132  19.443  0.00  0.00    +0.000 OA
ENDBRANCH   6   7
BRANCH   1  14
ATOM     14  O   UNL     1       4.708   4.602  15.749  0.00  0.00    +0.000 OA
BRANCH  14  15
ATOM     15  C   UNL     1       5.633   5.001  14.742  0.00  0.00    +0.000 C 
BRANCH  15  17
ATOM     16  C   UNL     1       5.941   3.521  12.791  0.00  0.00    +0.000 C 
ATOM     17  C   UNL     1       6.131   3.762  14.093  0.00  0.00    +0.000 C 
ENDBRANCH  15  17
ENDBRANCH  14  15
ENDBRANCH   1  14
BRANCH   2  18
ATOM     18  O   UNL     1       6.078   6.751  17.519  0.00  0.00    +0.000 OA
BRANCH  18  19
ATOM     19  C   UNL     1       7.323   7.163  17.132  0.00  0.00    +0.000 C 
ATOM     20  C   UNL     1       7.765   8.364  17.951  0.00  0.00    +0.000 C 
ATOM     21  O   UNL     1       7.989   6.675  16.237  0.00  0.00    +0.000 OA
ENDBRANCH  18  19
ENDBRANCH   2  18
TORSDOF 6
ENDMDL
MODEL 9
REMARK VINA RESULT:      -6.7      0.864      1.116
REMARK  Name = 
REMARK  9 active torsions:
REMARK  status: ('A' for Active; 'I' for Inactive)
REMARK    1  A    between atoms: C_2  and  C_3
REMARK    2  A    between atoms: C_3  and  O_4
REMARK    3  A    between atoms: O_4  and  C_5
REMARK    4  A    between atoms: C_6  and  O_7
REMARK    5  A    between atoms: O_7  and  C_8
REMARK    6  A    between atoms: C_8  and  C_9
REMARK    7  A    between atoms: C_14  and  C_15
REMARK    8  A    between atoms: C_18  and  C_19
REMARK    9  A    between atoms: C_18  and  C_20
REMARK                            x       y       z     vdW  Elec       q    Type
REMARK                         _______ _______ _______ _____ _____    ______ ____
ROOT
ATOM      1  C   UNL     1       4.485   5.694  17.357  0.00  0.00    +0.000 C 
ATOM      2  C   UNL     1       5.510   5.764  16.488  0.00  0.00    +0.000 C 
ATOM      3  C   UNL     1       5.662   4.421  15.933  0.00  0.00    +0.000 C 
ATOM      4  O   UNL     1       6.544   4.074  15.152  0.00  0.00    +0.000 OA
ATOM      5  O   UNL     1       4.719   3.602  16.456  0.00  0.00    +0.000 OA
ATOM      6  C   UNL     1       3.964   4.290  17.467  0.00  0.00    +0.000 C 
ENDROOT
BRANCH   6   7
ATOM      7  C   UNL     1       4.105   3.567  18.852  0.00  0.00    +0.000 C 
ATOM      8  C   UNL     1       3.707   2.104  18.921  0.00  0.00    +0.000 C 
ATOM      9  O   UNL     1       2.580   1.989  19.780  0.00  0.00    +0.000 OA
ATOM     10  C   UNL     1       2.276   3.301  20.248  0.00  0.00    +0.000 C 
ATOM     11  C   UNL     1       0.953   3.740  19.625  0.00  0.00    +0.000 C 
ATOM     12  C   UNL     1       2.129   3.260  21.768  0.00  0.00    +0.000 C 
ATOM     13  O   UNL     1       3.326   4.205  19.883  0.00  0.00    +0.000 OA
ENDBRANCH   6   7
BRANCH   1  14
ATOM     14  O   UNL     1       3.962   6.644  18.189  0.00  0.00    +0.000 OA
BRANCH  14  15
ATOM     15  C   UNL     1       2.583   6.962  18.028  0.00  0.00    +0.000 C 
BRANCH  15  17
ATOM     16  C   UNL     1       1.834   7.365  20.345  0.00  0.00    +0.000 C 
ATOM     17  C   UNL     1       2.207   7.851  19.156  0.00  0.00    +0.000 C 
ENDBRANCH  15  17
ENDBRANCH  14  15
ENDBRANCH   1  14
BRANCH   2  18
ATOM     18  O   UNL     1       6.459   6.789  16.353  0.00  0.00    +0.000 OA
BRANCH  18  19
ATOM     19  C   UNL     1       7.273   7.089  17.409  0.00  0.00    +0.000 C 
ATOM     20  C   UNL     1       7.605   5.836  18.200  0.00  0.00    +0.000 C 
ATOM     21  O   UNL     1       7.664   8.203  17.714  0.00  0.00    +0.000 OA
ENDBRANCH  18  19
ENDBRANCH   2  18
TORSDOF 6
ENDMDL
