MODEL 1
REMARK VINA RESULT:      -8.0      0.000      0.000
REMARK  Name = 
REMARK  12 active torsions:
REMARK  status: ('A' for Active; 'I' for Inactive)
REMARK    1  A    between atoms: C_1  and  C_2
REMARK    2  A    between atoms: C_2  and  O_3
REMARK    3  A    between atoms: O_3  and  C_4
REMARK    4  A    between atoms: C_4  and  C_6
REMARK    5  A    between atoms: C_6  and  C_7
REMARK    6  A    between atoms: C_7  and  C_8
REMARK    7  A    between atoms: C_8  and  N_9
REMARK    8  A    between atoms: C_10  and  C_12
REMARK    9  A    between atoms: C_12  and  S_13
REMARK   10  A    between atoms: S_13  and  C_14
REMARK   11  A    between atoms: C_17  and  C_18
REMARK   12  A    between atoms: C_24  and  C_25
REMARK                            x       y       z     vdW  Elec       q    Type
REMARK                         _______ _______ _______ _____ _____    ______ ____
ROOT
ATOM      1  C   UNL     1       4.998   5.456  16.560  0.00  0.00    +0.000 A 
ATOM      2  N   UNL     1       4.758   6.764  16.339  0.00  0.00    +0.000 NA
ATOM      3  N   UNL     1       3.812   7.408  17.086  0.00  0.00    +0.000 NA
ATOM      4  C   UNL     1       3.117   6.724  18.030  0.00  0.00    +0.000 A 
ATOM      5  C   UNL     1       3.340   5.343  18.155  0.00  0.00    +0.000 A 
ATOM      6  N   UNL     1       4.301   4.708  17.427  0.00  0.00    +0.000 NA
ENDROOT
BRANCH   4   7
ATOM      7  C   UNL     1       2.214   7.560  18.862  0.00  0.00    +0.000 A 
ATOM      8  C   UNL     1       2.019   7.285  20.228  0.00  0.00    +0.000 A 
ATOM      9  C   UNL     1       1.246   8.126  21.038  0.00  0.00    +0.000 A 
ATOM     10  C   UNL     1       0.670   9.277  20.507  0.00  0.00    +0.000 A 
ATOM     11  C   UNL     1       0.813   9.554  19.155  0.00  0.00    +0.000 A 
ATOM     12  C   UNL     1       1.528   8.673  18.338  0.00  0.00    +0.000 A 
ENDBRANCH   4   7
BRANCH   5  13
ATOM     13  C   UNL     1       2.624   4.459  19.113  0.00  0.00    +0.000 A 
ATOM     14  C   UNL     1       1.374   3.884  18.811  0.00  0.00    +0.000 A 
ATOM     15  C   UNL     1       0.576   3.314  19.810  0.00  0.00    +0.000 A 
ATOM     16  C   UNL     1       1.056   3.204  21.113  0.00  0.00    +0.000 A 
ATOM     17  C   UNL     1       2.351   3.647  21.404  0.00  0.00    +0.000 A 
ATOM     18  C   UNL     1       3.124   4.265  20.416  0.00  0.00    +0.000 A 
ENDBRANCH   5  13
BRANCH   1  19
ATOM     19  S   UNL     1       6.280   4.641  15.640  0.00  0.00    +0.000 S 
BRANCH  19  20
ATOM     20  C   UNL     1       7.678   4.786  16.797  0.00  0.00    +0.000 C 
BRANCH  20  22
ATOM     21  N   UNL     1       7.654   7.213  17.028  0.00  0.00    +0.000 N 
ATOM     22  C   UNL     1       7.545   6.005  17.692  0.00  0.00    +0.000 C 
ATOM     23  O   UNL     1       7.380   5.931  18.901  0.00  0.00    +0.000 OA
ATOM     24  H   UNL     1       7.687   7.224  16.014  0.00  0.00    +0.000 HD
BRANCH  21  25
ATOM     25  C   UNL     1       7.512   8.482  17.716  0.00  0.00    +0.000 C 
BRANCH  25  26
ATOM     26  C   UNL     1       8.777   8.894  18.461  0.00  0.00    +0.000 C 
BRANCH  26  27
ATOM     27  C   UNL     1       9.184  10.339  18.179  0.00  0.00    +0.000 C 
BRANCH  27  28
ATOM     28  C   UNL     1       9.471  11.081  19.462  0.00  0.00    +0.000 C 
ATOM     29  O   UNL     1       9.307  10.639  20.588  0.00  0.00    +0.000 OA
BRANCH  28  30
ATOM     30  O   UNL     1       9.846  12.357  19.162  0.00  0.00    +0.000 OA
BRANCH  30  32
ATOM     31  C   UNL     1      10.794  13.574  17.346  0.00  0.00    +0.000 C 
ATOM     32  C   UNL     1       9.601  12.753  17.806  0.00  0.00    +0.000 C 
ENDBRANCH  30  32
ENDBRANCH  28  30
ENDBRANCH  27  28
ENDBRANCH  26  27
ENDBRANCH  25  26
ENDBRANCH  21  25
ENDBRANCH  20  22
ENDBRANCH  19  20
ENDBRANCH   1  19
TORSDOF 11
ENDMDL
MODEL 2
REMARK VINA RESULT:      -7.9      0.808      1.299
REMARK  Name = 
REMARK  12 active torsions:
REMARK  status: ('A' for Active; 'I' for Inactive)
REMARK    1  A    between atoms: C_1  and  C_2
REMARK    2  A    between atoms: C_2  and  O_3
REMARK    3  A    between atoms: O_3  and  C_4
REMARK    4  A    between atoms: C_4  and  C_6
REMARK    5  A    between atoms: C_6  and  C_7
REMARK    6  A    between atoms: C_7  and  C_8
REMARK    7  A    between atoms: C_8  and  N_9
REMARK    8  A    between atoms: C_10  and  C_12
REMARK    9  A    between atoms: C_12  and  S_13
REMARK   10  A    between atoms: S_13  and  C_14
REMARK   11  A    between atoms: C_17  and  C_18
REMARK   12  A    between atoms: C_24  and  C_25
REMARK                            x       y       z     vdW  Elec       q    Type
REMARK                         _______ _______ _______ _____ _____    ______ ____
ROOT
ATOM      1  C   UNL     1       4.967   5.583  16.752  0.00  0.00    +0.000 A 
ATOM      2  N   UNL     1       4.800   6.889  16.465  0.00  0.00    +0.000 NA
ATOM      3  N   UNL     1       3.832   7.601  17.118  0.00  0.00    +0.000 NA
ATOM      4  C   UNL     1       3.044   6.985  18.034  0.00  0.00    +0.000 A 
ATOM      5  C   UNL     1       3.198   5.602  18.227  0.00  0.00    +0.000 A 
ATOM      6  N   UNL     1       4.180   4.900  17.595  0.00  0.00    +0.000 NA
ENDROOT
BRANCH   4   7
ATOM      7  C   UNL     1       2.121   7.889  18.767  0.00  0.00    +0.000 A 
ATOM      8  C   UNL     1       1.973   7.805  20.164  0.00  0.00    +0.000 A 
ATOM      9  C   UNL     1       1.180   8.718  20.869  0.00  0.00    +0.000 A 
ATOM     10  C   UNL     1       0.535   9.753  20.198  0.00  0.00    +0.000 A 
ATOM     11  C   UNL     1       0.632   9.839  18.816  0.00  0.00    +0.000 A 
ATOM     12  C   UNL     1       1.369   8.884  18.112  0.00  0.00    +0.000 A 
ENDBRANCH   4   7
BRANCH   5  13
ATOM     13  C   UNL     1       2.379   4.787  19.163  0.00  0.00    +0.000 A 
ATOM     14  C   UNL     1       2.683   4.690  20.535  0.00  0.00    +0.000 A 
ATOM     15  C   UNL     1       2.107   3.699  21.339  0.00  0.00    +0.000 A 
ATOM     16  C   UNL     1       1.129   2.855  20.818  0.00  0.00    +0.000 A 
ATOM     17  C   UNL     1       0.714   3.025  19.492  0.00  0.00    +0.000 A 
ATOM     18  C   UNL     1       1.331   3.980  18.677  0.00  0.00    +0.000 A 
ENDBRANCH   5  13
BRANCH   1  19
ATOM     19  S   UNL     1       6.274   4.680  15.959  0.00  0.00    +0.000 S 
BRANCH  19  20
ATOM     20  C   UNL     1       7.564   4.743  17.242  0.00  0.00    +0.000 C 
BRANCH  20  22
ATOM     21  N   UNL     1       7.776   7.172  17.177  0.00  0.00    +0.000 N 
ATOM     22  C   UNL     1       7.557   6.069  17.982  0.00  0.00    +0.000 C 
ATOM     23  O   UNL     1       7.398   6.158  19.191  0.00  0.00    +0.000 OA
ATOM     24  H   UNL     1       7.799   7.056  16.169  0.00  0.00    +0.000 HD
BRANCH  21  25
ATOM     25  C   UNL     1       7.763   8.521  17.706  0.00  0.00    +0.000 C 
BRANCH  25  26
ATOM     26  C   UNL     1       9.016   8.851  18.510  0.00  0.00    +0.000 C 
BRANCH  26  27
ATOM     27  C   UNL     1       8.833  10.068  19.416  0.00  0.00    +0.000 C 
BRANCH  27  28
ATOM     28  C   UNL     1       9.582  11.262  18.878  0.00  0.00    +0.000 C 
ATOM     29  O   UNL     1       9.362  11.816  17.812  0.00  0.00    +0.000 OA
BRANCH  28  30
ATOM     30  O   UNL     1      10.607  11.562  19.724  0.00  0.00    +0.000 OA
BRANCH  30  32
ATOM     31  C   UNL     1      12.313  12.893  18.724  0.00  0.00    +0.000 C 
ATOM     32  C   UNL     1      11.914  11.486  19.136  0.00  0.00    +0.000 C 
ENDBRANCH  30  32
ENDBRANCH  28  30
ENDBRANCH  27  28
ENDBRANCH  26  27
ENDBRANCH  25  26
ENDBRANCH  21  25
ENDBRANCH  20  22
ENDBRANCH  19  20
ENDBRANCH   1  19
TORSDOF 11
ENDMDL
MODEL 3
REMARK VINA RESULT:      -7.9      0.906      1.384
REMARK  Name = 
REMARK  12 active torsions:
REMARK  status: ('A' for Active; 'I' for Inactive)
REMARK    1  A    between atoms: C_1  and  C_2
REMARK    2  A    between atoms: C_2  and  O_3
REMARK    3  A    between atoms: O_3  and  C_4
REMARK    4  A    between atoms: C_4  and  C_6
REMARK    5  A    between atoms: C_6  and  C_7
REMARK    6  A    between atoms: C_7  and  C_8
REMARK    7  A    between atoms: C_8  and  N_9
REMARK    8  A    between atoms: C_10  and  C_12
REMARK    9  A    between atoms: C_12  and  S_13
REMARK   10  A    between atoms: S_13  and  C_14
REMARK   11  A    between atoms: C_17  and  C_18
REMARK   12  A    between atoms: C_24  and  C_25
REMARK                            x       y       z     vdW  Elec       q    Type
REMARK                         _______ _______ _______ _____ _____    ______ ____
ROOT
ATOM      1  C   UNL     1       4.787   5.918  16.639  0.00  0.00    +0.000 A 
ATOM      2  N   UNL     1       4.517   7.237  16.561  0.00  0.00    +0.000 NA
ATOM      3  N   UNL     1       3.599   7.785  17.413  0.00  0.00    +0.000 NA
ATOM      4  C   UNL     1       2.962   6.998  18.316  0.00  0.00    +0.000 A 
ATOM      5  C   UNL     1       3.212   5.616  18.293  0.00  0.00    +0.000 A 
ATOM      6  N   UNL     1       4.146   5.076  17.461  0.00  0.00    +0.000 NA
ENDROOT
BRANCH   4   7
ATOM      7  C   UNL     1       2.088   7.730  19.269  0.00  0.00    +0.000 A 
ATOM      8  C   UNL     1       1.412   8.903  18.886  0.00  0.00    +0.000 A 
ATOM      9  C   UNL     1       0.514   9.541  19.750  0.00  0.00    +0.000 A 
ATOM     10  C   UNL     1       0.249   9.007  21.008  0.00  0.00    +0.000 A 
ATOM     11  C   UNL     1       0.929   7.872  21.427  0.00  0.00    +0.000 A 
ATOM     12  C   UNL     1       1.876   7.281  20.587  0.00  0.00    +0.000 A 
ENDBRANCH   4   7
BRANCH   5  13
ATOM     13  C   UNL     1       2.558   4.628  19.191  0.00  0.00    +0.000 A 
ATOM     14  C   UNL     1       1.306   4.056  18.891  0.00  0.00    +0.000 A 
ATOM     15  C   UNL     1       0.565   3.376  19.864  0.00  0.00    +0.000 A 
ATOM     16  C   UNL     1       1.108   3.152  21.128  0.00  0.00    +0.000 A 
ATOM     17  C   UNL     1       2.407   3.594  21.403  0.00  0.00    +0.000 A 
ATOM     18  C   UNL     1       3.122   4.322  20.446  0.00  0.00    +0.000 A 
ENDBRANCH   5  13
BRANCH   1  19
ATOM     19  S   UNL     1       6.035   5.224  15.584  0.00  0.00    +0.000 S 
BRANCH  19  20
ATOM     20  C   UNL     1       7.446   5.135  16.731  0.00  0.00    +0.000 C 
BRANCH  20  22
ATOM     21  N   UNL     1       7.636   7.552  16.999  0.00  0.00    +0.000 N 
ATOM     22  C   UNL     1       7.498   6.340  17.653  0.00  0.00    +0.000 C 
ATOM     23  O   UNL     1       7.449   6.252  18.871  0.00  0.00    +0.000 OA
ATOM     24  H   UNL     1       7.568   7.583  15.987  0.00  0.00    +0.000 HD
BRANCH  21  25
ATOM     25  C   UNL     1       7.663   8.811  17.717  0.00  0.00    +0.000 C 
BRANCH  25  26
ATOM     26  C   UNL     1       8.938   8.997  18.534  0.00  0.00    +0.000 C 
BRANCH  26  27
ATOM     27  C   UNL     1       9.024  10.374  19.189  0.00  0.00    +0.000 C 
BRANCH  27  28
ATOM     28  C   UNL     1       9.369  11.437  18.175  0.00  0.00    +0.000 C 
ATOM     29  O   UNL     1       8.617  12.318  17.788  0.00  0.00    +0.000 OA
BRANCH  28  30
ATOM     30  O   UNL     1      10.618  11.196  17.686  0.00  0.00    +0.000 OA
BRANCH  30  32
ATOM     31  C   UNL     1      12.284  11.712  19.311  0.00  0.00    +0.000 C 
ATOM     32  C   UNL     1      11.601  12.180  18.037  0.00  0.00    +0.000 C 
ENDBRANCH  30  32
ENDBRANCH  28  30
ENDBRANCH  27  28
ENDBRANCH  26  27
ENDBRANCH  25  26
ENDBRANCH  21  25
ENDBRANCH  20  22
ENDBRANCH  19  20
ENDBRANCH   1  19
TORSDOF 11
ENDMDL
MODEL 4
REMARK VINA RESULT:      -7.8      0.940      1.361
REMARK  Name = 
REMARK  12 active torsions:
REMARK  status: ('A' for Active; 'I' for Inactive)
REMARK    1  A    between atoms: C_1  and  C_2
REMARK    2  A    between atoms: C_2  and  O_3
REMARK    3  A    between atoms: O_3  and  C_4
REMARK    4  A    between atoms: C_4  and  C_6
REMARK    5  A    between atoms: C_6  and  C_7
REMARK    6  A    between atoms: C_7  and  C_8
REMARK    7  A    between atoms: C_8  and  N_9
REMARK    8  A    between atoms: C_10  and  C_12
REMARK    9  A    between atoms: C_12  and  S_13
REMARK   10  A    between atoms: S_13  and  C_14
REMARK   11  A    between atoms: C_17  and  C_18
REMARK   12  A    between atoms: C_24  and  C_25
REMARK                            x       y       z     vdW  Elec       q    Type
REMARK                         _______ _______ _______ _____ _____    ______ ____
ROOT
ATOM      1  C   UNL     1       4.875   6.028  16.437  0.00  0.00    +0.000 A 
ATOM      2  N   UNL     1       4.626   7.353  16.417  0.00  0.00    +0.000 NA
ATOM      3  N   UNL     1       3.713   7.877  17.288  0.00  0.00    +0.000 NA
ATOM      4  C   UNL     1       3.058   7.061  18.151  0.00  0.00    +0.000 A 
ATOM      5  C   UNL     1       3.286   5.678  18.068  0.00  0.00    +0.000 A 
ATOM      6  N   UNL     1       4.215   5.160  17.216  0.00  0.00    +0.000 NA
ENDROOT
BRANCH   4   7
ATOM      7  C   UNL     1       2.191   7.763  19.132  0.00  0.00    +0.000 A 
ATOM      8  C   UNL     1       1.537   8.964  18.800  0.00  0.00    +0.000 A 
ATOM      9  C   UNL     1       0.643   9.577  19.688  0.00  0.00    +0.000 A 
ATOM     10  C   UNL     1       0.363   8.991  20.918  0.00  0.00    +0.000 A 
ATOM     11  C   UNL     1       1.022   7.827  21.289  0.00  0.00    +0.000 A 
ATOM     12  C   UNL     1       1.964   7.258  20.428  0.00  0.00    +0.000 A 
ENDBRANCH   4   7
BRANCH   5  13
ATOM     13  C   UNL     1       2.611   4.661  18.917  0.00  0.00    +0.000 A 
ATOM     14  C   UNL     1       1.334   4.153  18.606  0.00  0.00    +0.000 A 
ATOM     15  C   UNL     1       0.585   3.442  19.551  0.00  0.00    +0.000 A 
ATOM     16  C   UNL     1       1.140   3.123  20.788  0.00  0.00    +0.000 A 
ATOM     17  C   UNL     1       2.458   3.501  21.065  0.00  0.00    +0.000 A 
ATOM     18  C   UNL     1       3.183   4.259  20.140  0.00  0.00    +0.000 A 
ENDBRANCH   5  13
BRANCH   1  19
ATOM     19  S   UNL     1       6.117   5.361  15.357  0.00  0.00    +0.000 S 
BRANCH  19  20
ATOM     20  C   UNL     1       7.046   4.306  16.512  0.00  0.00    +0.000 C 
BRANCH  20  22
ATOM     21  N   UNL     1       7.603   6.482  17.461  0.00  0.00    +0.000 N 
ATOM     22  C   UNL     1       7.663   5.112  17.641  0.00  0.00    +0.000 C 
ATOM     23  O   UNL     1       8.191   4.600  18.617  0.00  0.00    +0.000 OA
ATOM     24  H   UNL     1       7.064   6.860  16.688  0.00  0.00    +0.000 HD
BRANCH  21  25
ATOM     25  C   UNL     1       8.106   7.409  18.456  0.00  0.00    +0.000 C 
BRANCH  25  26
ATOM     26  C   UNL     1       8.266   8.826  17.914  0.00  0.00    +0.000 C 
BRANCH  26  27
ATOM     27  C   UNL     1       8.874   9.784  18.936  0.00  0.00    +0.000 C 
BRANCH  27  28
ATOM     28  C   UNL     1       9.538  10.955  18.255  0.00  0.00    +0.000 C 
ATOM     29  O   UNL     1      10.743  11.146  18.186  0.00  0.00    +0.000 OA
BRANCH  28  30
ATOM     30  O   UNL     1       8.578  11.818  17.818  0.00  0.00    +0.000 OA
BRANCH  30  32
ATOM     31  C   UNL     1       8.222  14.023  18.648  0.00  0.00    +0.000 C 
ATOM     32  C   UNL     1       9.014  13.176  17.666  0.00  0.00    +0.000 C 
ENDBRANCH  30  32
ENDBRANCH  28  30
ENDBRANCH  27  28
ENDBRANCH  26  27
ENDBRANCH  25  26
ENDBRANCH  21  25
ENDBRANCH  20  22
ENDBRANCH  19  20
ENDBRANCH   1  19
TORSDOF 11
ENDMDL
MODEL 5
REMARK VINA RESULT:      -7.3      0.957      1.355
REMARK  Name = 
REMARK  12 active torsions:
REMARK  status: ('A' for Active; 'I' for Inactive)
REMARK    1  A    between atoms: C_1  and  C_2
REMARK    2  A    between atoms: C_2  and  O_3
REMARK    3  A    between atoms: O_3  and  C_4
REMARK    4  A    between atoms: C_4  and  C_6
REMARK    5  A    between atoms: C_6  and  C_7
REMARK    6  A    between atoms: C_7  and  C_8
REMARK    7  A    between atoms: C_8  and  N_9
REMARK    8  A    between atoms: C_10  and  C_12
REMARK    9  A    between atoms: C_12  and  S_13
REMARK   10  A    between atoms: S_13  and  C_14
REMARK   11  A    between atoms: C_17  and  C_18
REMARK   12  A    between atoms: C_24  and  C_25
REMARK                            x       y       z     vdW  Elec       q    Type
REMARK                         _______ _______ _______ _____ _____    ______ ____
ROOT
ATOM      1  C   UNL     1       4.773   4.827  16.058  0.00  0.00    +0.000 A 
ATOM      2  N   UNL     1       4.680   6.163  15.903  0.00  0.00    +0.000 NA
ATOM      3  N   UNL     1       3.919   6.888  16.777  0.00  0.00    +0.000 NA
ATOM      4  C   UNL     1       3.256   6.258  17.779  0.00  0.00    +0.000 A 
ATOM      5  C   UNL     1       3.313   4.855  17.839  0.00  0.00    +0.000 A 
ATOM      6  N   UNL     1       4.092   4.137  16.983  0.00  0.00    +0.000 NA
ENDROOT
BRANCH   4   7
ATOM      7  C   UNL     1       2.572   7.163  18.737  0.00  0.00    +0.000 A 
ATOM      8  C   UNL     1       2.070   8.413  18.328  0.00  0.00    +0.000 A 
ATOM      9  C   UNL     1       1.340   9.226  19.204  0.00  0.00    +0.000 A 
ATOM     10  C   UNL     1       1.072   8.799  20.501  0.00  0.00    +0.000 A 
ATOM     11  C   UNL     1       1.587   7.589  20.944  0.00  0.00    +0.000 A 
ATOM     12  C   UNL     1       2.373   6.814  20.087  0.00  0.00    +0.000 A 
ENDBRANCH   4   7
BRANCH   5  13
ATOM     13  C   UNL     1       2.605   4.028  18.852  0.00  0.00    +0.000 A 
ATOM     14  C   UNL     1       1.231   3.734  18.753  0.00  0.00    +0.000 A 
ATOM     15  C   UNL     1       0.516   3.225  19.844  0.00  0.00    +0.000 A 
ATOM     16  C   UNL     1       1.180   2.891  21.022  0.00  0.00    +0.000 A 
ATOM     17  C   UNL     1       2.568   3.048  21.093  0.00  0.00    +0.000 A 
ATOM     18  C   UNL     1       3.271   3.608  20.021  0.00  0.00    +0.000 A 
ENDBRANCH   5  13
BRANCH   1  19
ATOM     19  S   UNL     1       5.823   3.898  14.969  0.00  0.00    +0.000 S 
BRANCH  19  20
ATOM     20  C   UNL     1       7.366   4.858  15.076  0.00  0.00    +0.000 C 
BRANCH  20  22
ATOM     21  N   UNL     1       7.644   6.574  16.786  0.00  0.00    +0.000 N 
ATOM     22  C   UNL     1       7.706   5.220  16.511  0.00  0.00    +0.000 C 
ATOM     23  O   UNL     1       8.032   4.393  17.349  0.00  0.00    +0.000 OA
ATOM     24  H   UNL     1       7.269   7.208  16.088  0.00  0.00    +0.000 HD
BRANCH  21  25
ATOM     25  C   UNL     1       7.897   7.098  18.114  0.00  0.00    +0.000 C 
BRANCH  25  26
ATOM     26  C   UNL     1       7.555   8.580  18.238  0.00  0.00    +0.000 C 
BRANCH  26  27
ATOM     27  C   UNL     1       8.533   9.477  17.483  0.00  0.00    +0.000 C 
BRANCH  27  28
ATOM     28  C   UNL     1       9.254  10.409  18.426  0.00  0.00    +0.000 C 
ATOM     29  O   UNL     1       9.017  10.534  19.618  0.00  0.00    +0.000 OA
BRANCH  28  30
ATOM     30  O   UNL     1      10.142  11.160  17.716  0.00  0.00    +0.000 OA
BRANCH  30  32
ATOM     31  C   UNL     1      10.463  13.461  18.246  0.00  0.00    +0.000 C 
ATOM     32  C   UNL     1      10.948  12.046  18.507  0.00  0.00    +0.000 C 
ENDBRANCH  30  32
ENDBRANCH  28  30
ENDBRANCH  27  28
ENDBRANCH  26  27
ENDBRANCH  25  26
ENDBRANCH  21  25
ENDBRANCH  20  22
ENDBRANCH  19  20
ENDBRANCH   1  19
TORSDOF 11
ENDMDL
MODEL 6
REMARK VINA RESULT:      -7.3      4.649      8.070
REMARK  Name = 
REMARK  12 active torsions:
REMARK  status: ('A' for Active; 'I' for Inactive)
REMARK    1  A    between atoms: C_1  and  C_2
REMARK    2  A    between atoms: C_2  and  O_3
REMARK    3  A    between atoms: O_3  and  C_4
REMARK    4  A    between atoms: C_4  and  C_6
REMARK    5  A    between atoms: C_6  and  C_7
REMARK    6  A    between atoms: C_7  and  C_8
REMARK    7  A    between atoms: C_8  and  N_9
REMARK    8  A    between atoms: C_10  and  C_12
REMARK    9  A    between atoms: C_12  and  S_13
REMARK   10  A    between atoms: S_13  and  C_14
REMARK   11  A    between atoms: C_17  and  C_18
REMARK   12  A    between atoms: C_24  and  C_25
REMARK                            x       y       z     vdW  Elec       q    Type
REMARK                         _______ _______ _______ _____ _____    ______ ____
ROOT
ATOM      1  C   UNL     1       1.737   8.618  18.131  0.00  0.00    +0.000 A 
ATOM      2  N   UNL     1       2.874   8.996  17.512  0.00  0.00    +0.000 NA
ATOM      3  N   UNL     1       3.881   8.087  17.345  0.00  0.00    +0.000 NA
ATOM      4  C   UNL     1       3.733   6.822  17.813  0.00  0.00    +0.000 A 
ATOM      5  C   UNL     1       2.568   6.507  18.531  0.00  0.00    +0.000 A 
ATOM      6  N   UNL     1       1.554   7.407  18.675  0.00  0.00    +0.000 NA
ENDROOT
BRANCH   4   7
ATOM      7  C   UNL     1       4.837   5.895  17.456  0.00  0.00    +0.000 A 
ATOM      8  C   UNL     1       4.766   5.083  16.309  0.00  0.00    +0.000 A 
ATOM      9  C   UNL     1       5.845   4.281  15.917  0.00  0.00    +0.000 A 
ATOM     10  C   UNL     1       7.029   4.290  16.647  0.00  0.00    +0.000 A 
ATOM     11  C   UNL     1       7.115   5.051  17.804  0.00  0.00    +0.000 A 
ATOM     12  C   UNL     1       6.011   5.796  18.228  0.00  0.00    +0.000 A 
ENDBRANCH   4   7
BRANCH   5  13
ATOM     13  C   UNL     1       2.287   5.179  19.138  0.00  0.00    +0.000 A 
ATOM     14  C   UNL     1       1.648   4.148  18.422  0.00  0.00    +0.000 A 
ATOM     15  C   UNL     1       1.118   3.029  19.076  0.00  0.00    +0.000 A 
ATOM     16  C   UNL     1       1.315   2.859  20.445  0.00  0.00    +0.000 A 
ATOM     17  C   UNL     1       2.066   3.805  21.151  0.00  0.00    +0.000 A 
ATOM     18  C   UNL     1       2.546   4.950  20.504  0.00  0.00    +0.000 A 
ENDBRANCH   5  13
BRANCH   1  19
ATOM     19  S   UNL     1       0.402   9.779  18.279  0.00  0.00    +0.000 S 
BRANCH  19  20
ATOM     20  C   UNL     1       1.273  11.220  18.970  0.00  0.00    +0.000 C 
BRANCH  20  22
ATOM     21  N   UNL     1       0.606  10.172  21.068  0.00  0.00    +0.000 N 
ATOM     22  C   UNL     1       1.085  11.324  20.473  0.00  0.00    +0.000 C 
ATOM     23  O   UNL     1       1.313  12.345  21.105  0.00  0.00    +0.000 OA
ATOM     24  H   UNL     1       0.532   9.321  20.519  0.00  0.00    +0.000 HD
BRANCH  21  25
ATOM     25  C   UNL     1       0.405  10.075  22.501  0.00  0.00    +0.000 C 
BRANCH  25  26
ATOM     26  C   UNL     1      -1.055  10.257  22.905  0.00  0.00    +0.000 C 
BRANCH  26  27
ATOM     27  C   UNL     1      -1.399  11.706  23.242  0.00  0.00    +0.000 C 
BRANCH  27  28
ATOM     28  C   UNL     1      -2.420  12.259  22.278  0.00  0.00    +0.000 C 
ATOM     29  O   UNL     1      -2.167  12.803  21.213  0.00  0.00    +0.000 OA
BRANCH  28  30
ATOM     30  O   UNL     1      -3.660  12.148  22.830  0.00  0.00    +0.000 OA
BRANCH  30  32
ATOM     31  C   UNL     1      -4.049  14.229  23.923  0.00  0.00    +0.000 C 
ATOM     32  C   UNL     1      -3.797  12.746  24.127  0.00  0.00    +0.000 C 
ENDBRANCH  30  32
ENDBRANCH  28  30
ENDBRANCH  27  28
ENDBRANCH  26  27
ENDBRANCH  25  26
ENDBRANCH  21  25
ENDBRANCH  20  22
ENDBRANCH  19  20
ENDBRANCH   1  19
TORSDOF 11
ENDMDL
MODEL 7
REMARK VINA RESULT:      -7.3      1.694      4.035
REMARK  Name = 
REMARK  12 active torsions:
REMARK  status: ('A' for Active; 'I' for Inactive)
REMARK    1  A    between atoms: C_1  and  C_2
REMARK    2  A    between atoms: C_2  and  O_3
REMARK    3  A    between atoms: O_3  and  C_4
REMARK    4  A    between atoms: C_4  and  C_6
REMARK    5  A    between atoms: C_6  and  C_7
REMARK    6  A    between atoms: C_7  and  C_8
REMARK    7  A    between atoms: C_8  and  N_9
REMARK    8  A    between atoms: C_10  and  C_12
REMARK    9  A    between atoms: C_12  and  S_13
REMARK   10  A    between atoms: S_13  and  C_14
REMARK   11  A    between atoms: C_17  and  C_18
REMARK   12  A    between atoms: C_24  and  C_25
REMARK                            x       y       z     vdW  Elec       q    Type
REMARK                         _______ _______ _______ _____ _____    ______ ____
ROOT
ATOM      1  C   UNL     1       5.989   6.197  17.730  0.00  0.00    +0.000 A 
ATOM      2  N   UNL     1       6.029   4.890  18.058  0.00  0.00    +0.000 NA
ATOM      3  N   UNL     1       4.912   4.293  18.573  0.00  0.00    +0.000 NA
ATOM      4  C   UNL     1       3.783   5.022  18.760  0.00  0.00    +0.000 A 
ATOM      5  C   UNL     1       3.823   6.399  18.488  0.00  0.00    +0.000 A 
ATOM      6  N   UNL     1       4.929   6.987  17.951  0.00  0.00    +0.000 NA
ENDROOT
BRANCH   4   7
ATOM      7  C   UNL     1       2.603   4.235  19.200  0.00  0.00    +0.000 A 
ATOM      8  C   UNL     1       1.745   3.622  18.268  0.00  0.00    +0.000 A 
ATOM      9  C   UNL     1       0.689   2.800  18.679  0.00  0.00    +0.000 A 
ATOM     10  C   UNL     1       0.480   2.550  20.032  0.00  0.00    +0.000 A 
ATOM     11  C   UNL     1       1.286   3.170  20.977  0.00  0.00    +0.000 A 
ATOM     12  C   UNL     1       2.294   4.044  20.561  0.00  0.00    +0.000 A 
ENDBRANCH   4   7
BRANCH   5  13
ATOM     13  C   UNL     1       2.679   7.329  18.684  0.00  0.00    +0.000 A 
ATOM     14  C   UNL     1       2.205   8.163  17.653  0.00  0.00    +0.000 A 
ATOM     15  C   UNL     1       1.348   9.237  17.921  0.00  0.00    +0.000 A 
ATOM     16  C   UNL     1       0.854   9.433  19.209  0.00  0.00    +0.000 A 
ATOM     17  C   UNL     1       1.205   8.533  20.221  0.00  0.00    +0.000 A 
ATOM     18  C   UNL     1       2.105   7.494  19.961  0.00  0.00    +0.000 A 
ENDBRANCH   5  13
BRANCH   1  19
ATOM     19  S   UNL     1       7.416   6.951  16.991  0.00  0.00    +0.000 S 
BRANCH  19  20
ATOM     20  C   UNL     1       8.267   7.596  18.464  0.00  0.00    +0.000 C 
BRANCH  20  22
ATOM     21  N   UNL     1       9.251   9.624  19.394  0.00  0.00    +0.000 N 
ATOM     22  C   UNL     1       8.450   9.102  18.395  0.00  0.00    +0.000 C 
ATOM     23  O   UNL     1       7.917   9.801  17.546  0.00  0.00    +0.000 OA
ATOM     24  H   UNL     1       9.754   8.994  20.011  0.00  0.00    +0.000 HD
BRANCH  21  25
ATOM     25  C   UNL     1       9.569  11.037  19.461  0.00  0.00    +0.000 C 
BRANCH  25  26
ATOM     26  C   UNL     1      10.870  11.384  18.744  0.00  0.00    +0.000 C 
BRANCH  26  27
ATOM     27  C   UNL     1      10.662  12.335  17.568  0.00  0.00    +0.000 C 
BRANCH  27  28
ATOM     28  C   UNL     1       9.528  13.293  17.839  0.00  0.00    +0.000 C 
ATOM     29  O   UNL     1       8.344  13.060  17.651  0.00  0.00    +0.000 OA
BRANCH  28  30
ATOM     30  O   UNL     1      10.043  14.493  18.230  0.00  0.00    +0.000 OA
BRANCH  30  32
ATOM     31  C   UNL     1      10.678  16.071  19.899  0.00  0.00    +0.000 C 
ATOM     32  C   UNL     1      10.049  14.711  19.648  0.00  0.00    +0.000 C 
ENDBRANCH  30  32
ENDBRANCH  28  30
ENDBRANCH  27  28
ENDBRANCH  26  27
ENDBRANCH  25  26
ENDBRANCH  21  25
ENDBRANCH  20  22
ENDBRANCH  19  20
ENDBRANCH   1  19
TORSDOF 11
ENDMDL
MODEL 8
REMARK VINA RESULT:      -7.1      1.830      4.073
REMARK  Name = 
REMARK  12 active torsions:
REMARK  status: ('A' for Active; 'I' for Inactive)
REMARK    1  A    between atoms: C_1  and  C_2
REMARK    2  A    between atoms: C_2  and  O_3
REMARK    3  A    between atoms: O_3  and  C_4
REMARK    4  A    between atoms: C_4  and  C_6
REMARK    5  A    between atoms: C_6  and  C_7
REMARK    6  A    between atoms: C_7  and  C_8
REMARK    7  A    between atoms: C_8  and  N_9
REMARK    8  A    between atoms: C_10  and  C_12
REMARK    9  A    between atoms: C_12  and  S_13
REMARK   10  A    between atoms: S_13  and  C_14
REMARK   11  A    between atoms: C_17  and  C_18
REMARK   12  A    between atoms: C_24  and  C_25
REMARK                            x       y       z     vdW  Elec       q    Type
REMARK                         _______ _______ _______ _____ _____    ______ ____
ROOT
ATOM      1  C   UNL     1       6.098   6.160  17.773  0.00  0.00    +0.000 A 
ATOM      2  N   UNL     1       6.163   4.847  18.069  0.00  0.00    +0.000 NA
ATOM      3  N   UNL     1       5.058   4.217  18.571  0.00  0.00    +0.000 NA
ATOM      4  C   UNL     1       3.916   4.920  18.778  0.00  0.00    +0.000 A 
ATOM      5  C   UNL     1       3.931   6.305  18.540  0.00  0.00    +0.000 A 
ATOM      6  N   UNL     1       5.025   6.926  18.016  0.00  0.00    +0.000 NA
ENDROOT
BRANCH   4   7
ATOM      7  C   UNL     1       2.751   4.102  19.200  0.00  0.00    +0.000 A 
ATOM      8  C   UNL     1       2.495   3.843  20.560  0.00  0.00    +0.000 A 
ATOM      9  C   UNL     1       1.346   3.154  20.967  0.00  0.00    +0.000 A 
ATOM     10  C   UNL     1       0.412   2.730  20.027  0.00  0.00    +0.000 A 
ATOM     11  C   UNL     1       0.656   2.937  18.676  0.00  0.00    +0.000 A 
ATOM     12  C   UNL     1       1.838   3.563  18.273  0.00  0.00    +0.000 A 
ENDBRANCH   4   7
BRANCH   5  13
ATOM     13  C   UNL     1       2.771   7.209  18.761  0.00  0.00    +0.000 A 
ATOM     14  C   UNL     1       2.273   8.051  17.748  0.00  0.00    +0.000 A 
ATOM     15  C   UNL     1       1.397   9.103  18.042  0.00  0.00    +0.000 A 
ATOM     16  C   UNL     1       0.910   9.267  19.337  0.00  0.00    +0.000 A 
ATOM     17  C   UNL     1       1.286   8.357  20.330  0.00  0.00    +0.000 A 
ATOM     18  C   UNL     1       2.205   7.341  20.045  0.00  0.00    +0.000 A 
ENDBRANCH   5  13
BRANCH   1  19
ATOM     19  S   UNL     1       7.511   6.958  17.050  0.00  0.00    +0.000 S 
BRANCH  19  20
ATOM     20  C   UNL     1       8.306   7.658  18.530  0.00  0.00    +0.000 C 
BRANCH  20  22
ATOM     21  N   UNL     1       9.281   9.722  19.388  0.00  0.00    +0.000 N 
ATOM     22  C   UNL     1       8.453   9.166  18.430  0.00  0.00    +0.000 C 
ATOM     23  O   UNL     1       7.872   9.840  17.592  0.00  0.00    +0.000 OA
ATOM     24  H   UNL     1       9.821   9.113  19.995  0.00  0.00    +0.000 HD
BRANCH  21  25
ATOM     25  C   UNL     1       9.571  11.142  19.420  0.00  0.00    +0.000 C 
BRANCH  25  26
ATOM     26  C   UNL     1      11.040  11.451  19.149  0.00  0.00    +0.000 C 
BRANCH  26  27
ATOM     27  C   UNL     1      11.456  12.832  19.650  0.00  0.00    +0.000 C 
BRANCH  27  28
ATOM     28  C   UNL     1      11.408  13.850  18.537  0.00  0.00    +0.000 C 
ATOM     29  O   UNL     1      11.218  13.601  17.356  0.00  0.00    +0.000 OA
BRANCH  28  30
ATOM     30  O   UNL     1      11.710  15.078  19.043  0.00  0.00    +0.000 OA
BRANCH  30  32
ATOM     31  C   UNL     1       9.593  16.164  19.193  0.00  0.00    +0.000 C 
ATOM     32  C   UNL     1      10.943  16.160  18.496  0.00  0.00    +0.000 C 
ENDBRANCH  30  32
ENDBRANCH  28  30
ENDBRANCH  27  28
ENDBRANCH  26  27
ENDBRANCH  25  26
ENDBRANCH  21  25
ENDBRANCH  20  22
ENDBRANCH  19  20
ENDBRANCH   1  19
TORSDOF 11
ENDMDL
MODEL 9
REMARK VINA RESULT:      -7.1      4.831      9.093
REMARK  Name = 
REMARK  12 active torsions:
REMARK  status: ('A' for Active; 'I' for Inactive)
REMARK    1  A    between atoms: C_1  and  C_2
REMARK    2  A    between atoms: C_2  and  O_3
REMARK    3  A    between atoms: O_3  and  C_4
REMARK    4  A    between atoms: C_4  and  C_6
REMARK    5  A    between atoms: C_6  and  C_7
REMARK    6  A    between atoms: C_7  and  C_8
REMARK    7  A    between atoms: C_8  and  N_9
REMARK    8  A    between atoms: C_10  and  C_12
REMARK    9  A    between atoms: C_12  and  S_13
REMARK   10  A    between atoms: S_13  and  C_14
REMARK   11  A    between atoms: C_17  and  C_18
REMARK   12  A    between atoms: C_24  and  C_25
REMARK                            x       y       z     vdW  Elec       q    Type
REMARK                         _______ _______ _______ _____ _____    ______ ____
ROOT
ATOM      1  C   UNL     1       0.660   9.217  21.516  0.00  0.00    +0.000 A 
ATOM      2  N   UNL     1      -0.084   9.083  22.632  0.00  0.00    +0.000 NA
ATOM      3  N   UNL     1      -0.784  10.157  23.105  0.00  0.00    +0.000 NA
ATOM      4  C   UNL     1      -0.714  11.347  22.456  0.00  0.00    +0.000 A 
ATOM      5  C   UNL     1       0.147  11.457  21.352  0.00  0.00    +0.000 A 
ATOM      6  N   UNL     1       0.825  10.378  20.868  0.00  0.00    +0.000 NA
ENDROOT
BRANCH   4   7
ATOM      7  C   UNL     1      -1.619  12.398  22.988  0.00  0.00    +0.000 A 
ATOM      8  C   UNL     1      -2.989  12.148  23.191  0.00  0.00    +0.000 A 
ATOM      9  C   UNL     1      -3.825  13.103  23.782  0.00  0.00    +0.000 A 
ATOM     10  C   UNL     1      -3.306  14.322  24.208  0.00  0.00    +0.000 A 
ATOM     11  C   UNL     1      -1.967  14.612  23.988  0.00  0.00    +0.000 A 
ATOM     12  C   UNL     1      -1.154  13.682  23.334  0.00  0.00    +0.000 A 
ENDBRANCH   4   7
BRANCH   5  13
ATOM     13  C   UNL     1       0.359  12.705  20.571  0.00  0.00    +0.000 A 
ATOM     14  C   UNL     1       1.415  13.593  20.851  0.00  0.00    +0.000 A 
ATOM     15  C   UNL     1       1.431  14.892  20.328  0.00  0.00    +0.000 A 
ATOM     16  C   UNL     1       0.451  15.294  19.423  0.00  0.00    +0.000 A 
ATOM     17  C   UNL     1      -0.532  14.380  19.028  0.00  0.00    +0.000 A 
ATOM     18  C   UNL     1      -0.576  13.102  19.594  0.00  0.00    +0.000 A 
ENDBRANCH   5  13
BRANCH   1  19
ATOM     19  S   UNL     1       1.507   7.801  20.862  0.00  0.00    +0.000 S 
BRANCH  19  20
ATOM     20  C   UNL     1       1.839   8.353  19.160  0.00  0.00    +0.000 C 
BRANCH  20  22
ATOM     21  N   UNL     1       2.847   6.142  18.955  0.00  0.00    +0.000 N 
ATOM     22  C   UNL     1       2.808   7.427  18.446  0.00  0.00    +0.000 C 
ATOM     23  O   UNL     1       3.513   7.787  17.515  0.00  0.00    +0.000 OA
ATOM     24  H   UNL     1       2.170   5.863  19.658  0.00  0.00    +0.000 HD
BRANCH  21  25
ATOM     25  C   UNL     1       3.684   5.112  18.372  0.00  0.00    +0.000 C 
BRANCH  25  26
ATOM     26  C   UNL     1       2.914   4.187  17.435  0.00  0.00    +0.000 C 
BRANCH  26  27
ATOM     27  C   UNL     1       1.415   4.163  17.728  0.00  0.00    +0.000 C 
BRANCH  27  28
ATOM     28  C   UNL     1       1.083   3.132  18.778  0.00  0.00    +0.000 C 
ATOM     29  O   UNL     1       0.891   1.944  18.569  0.00  0.00    +0.000 OA
BRANCH  28  30
ATOM     30  O   UNL     1       0.932   3.755  19.981  0.00  0.00    +0.000 OA
BRANCH  30  32
ATOM     31  C   UNL     1       2.548   3.076  21.596  0.00  0.00    +0.000 C 
ATOM     32  C   UNL     1       1.113   2.907  21.124  0.00  0.00    +0.000 C 
ENDBRANCH  30  32
ENDBRANCH  28  30
ENDBRANCH  27  28
ENDBRANCH  26  27
ENDBRANCH  25  26
ENDBRANCH  21  25
ENDBRANCH  20  22
ENDBRANCH  19  20
ENDBRANCH   1  19
TORSDOF 11
ENDMDL
