MODEL 1
REMARK VINA RESULT:      -8.1      0.000      0.000
REMARK  Name = 
REMARK  10 active torsions:
REMARK  status: ('A' for Active; 'I' for Inactive)
REMARK    1  A    between atoms: C_1  and  O_2
REMARK    2  A    between atoms: O_2  and  C_3
REMARK    3  A    between atoms: C_6  and  C_7
REMARK    4  A    between atoms: C_11  and  C_12
REMARK    5  A    between atoms: C_15  and  O_16
REMARK    6  A    between atoms: O_16  and  C_17
REMARK    7  A    between atoms: C_18  and  O_19
REMARK    8  A    between atoms: O_19  and  C_20
REMARK    9  A    between atoms: C_26  and  O_27
REMARK   10  A    between atoms: O_27  and  C_28
REMARK                            x       y       z     vdW  Elec       q    Type
REMARK                         _______ _______ _______ _____ _____    ______ ____
ROOT
ATOM      1  C   UNL     1       2.459   6.128  19.870  0.00  0.00    +0.000 A 
ATOM      2  N   UNL     1       1.744   5.468  20.861  0.00  0.00    +0.000 NA
ATOM      3  C   UNL     1       2.239   4.268  20.851  0.00  0.00    +0.000 A 
ATOM      4  N   UNL     1       3.233   4.113  19.944  0.00  0.00    +0.000 N 
ATOM      5  C   UNL     1       3.447   5.305  19.299  0.00  0.00    +0.000 A 
ATOM      6  C   UNL     1       3.751   2.771  19.786  0.00  0.00    +0.000 C 
ATOM      7  C   UNL     1       3.319   1.967  21.015  0.00  0.00    +0.000 C 
ATOM      8  S   UNL     1       1.862   2.832  21.714  0.00  0.00    +0.000 S 
ENDROOT
BRANCH   1  12
ATOM      9  C   UNL     1       1.275  10.089  18.749  0.00  0.00    +0.000 A 
ATOM     10  C   UNL     1       1.980   9.274  17.856  0.00  0.00    +0.000 A 
ATOM     11  C   UNL     1       2.324   7.970  18.198  0.00  0.00    +0.000 A 
ATOM     12  C   UNL     1       2.104   7.491  19.490  0.00  0.00    +0.000 A 
ATOM     13  C   UNL     1       1.487   8.341  20.415  0.00  0.00    +0.000 A 
ATOM     14  C   UNL     1       1.064   9.637  20.063  0.00  0.00    +0.000 A 
BRANCH   9  16
ATOM     15  C   UNL     1       1.668  12.413  18.620  0.00  0.00    +0.000 C 
ATOM     16  O   UNL     1       0.802  11.301  18.343  0.00  0.00    +0.000 OA
ENDBRANCH   9  16
BRANCH  14  17
ATOM     17  O   UNL     1       0.458  10.289  21.106  0.00  0.00    +0.000 OA
ATOM     18  C   UNL     1      -0.215   9.525  22.096  0.00  0.00    +0.000 C 
ENDBRANCH  14  17
ENDBRANCH   1  12
BRANCH   5  19
ATOM     19  C   UNL     1       4.449   5.536  18.245  0.00  0.00    +0.000 A 
ATOM     20  C   UNL     1       4.271   5.020  16.959  0.00  0.00    +0.000 A 
ATOM     21  C   UNL     1       5.301   5.091  16.019  0.00  0.00    +0.000 A 
ATOM     22  C   UNL     1       6.505   5.746  16.306  0.00  0.00    +0.000 A 
ATOM     23  C   UNL     1       6.678   6.330  17.571  0.00  0.00    +0.000 A 
ATOM     24  C   UNL     1       5.654   6.194  18.526  0.00  0.00    +0.000 A 
BRANCH  22  25
ATOM     25  O   UNL     1       7.382   5.700  15.255  0.00  0.00    +0.000 OA
ATOM     26  C   UNL     1       7.070   4.878  14.138  0.00  0.00    +0.000 C 
ENDBRANCH  22  25
BRANCH  23  27
ATOM     27  O   UNL     1       7.853   6.980  17.840  0.00  0.00    +0.000 OA
ATOM     28  C   UNL     1       7.872   8.398  17.755  0.00  0.00    +0.000 C 
ENDBRANCH  23  27
ENDBRANCH   5  19
TORSDOF 6
ENDMDL
MODEL 2
REMARK VINA RESULT:      -6.9      1.035      1.071
REMARK  Name = 
REMARK  10 active torsions:
REMARK  status: ('A' for Active; 'I' for Inactive)
REMARK    1  A    between atoms: C_1  and  O_2
REMARK    2  A    between atoms: O_2  and  C_3
REMARK    3  A    between atoms: C_6  and  C_7
REMARK    4  A    between atoms: C_11  and  C_12
REMARK    5  A    between atoms: C_15  and  O_16
REMARK    6  A    between atoms: O_16  and  C_17
REMARK    7  A    between atoms: C_18  and  O_19
REMARK    8  A    between atoms: O_19  and  C_20
REMARK    9  A    between atoms: C_26  and  O_27
REMARK   10  A    between atoms: O_27  and  C_28
REMARK                            x       y       z     vdW  Elec       q    Type
REMARK                         _______ _______ _______ _____ _____    ______ ____
ROOT
ATOM      1  C   UNL     1       2.595   5.589  19.001  0.00  0.00    +0.000 A 
ATOM      2  N   UNL     1       1.812   4.822  19.853  0.00  0.00    +0.000 NA
ATOM      3  C   UNL     1       2.200   3.606  19.616  0.00  0.00    +0.000 A 
ATOM      4  N   UNL     1       3.189   3.535  18.693  0.00  0.00    +0.000 N 
ATOM      5  C   UNL     1       3.516   4.803  18.282  0.00  0.00    +0.000 A 
ATOM      6  C   UNL     1       3.589   2.206  18.285  0.00  0.00    +0.000 C 
ATOM      7  C   UNL     1       3.072   1.228  19.342  0.00  0.00    +0.000 C 
ATOM      8  S   UNL     1       1.687   2.073  20.196  0.00  0.00    +0.000 S 
ENDROOT
BRANCH   1  12
ATOM      9  C   UNL     1       1.778   9.779  18.652  0.00  0.00    +0.000 A 
ATOM     10  C   UNL     1       2.377   9.077  17.599  0.00  0.00    +0.000 A 
ATOM     11  C   UNL     1       2.600   7.708  17.690  0.00  0.00    +0.000 A 
ATOM     12  C   UNL     1       2.367   7.025  18.884  0.00  0.00    +0.000 A 
ATOM     13  C   UNL     1       1.859   7.747  19.971  0.00  0.00    +0.000 A 
ATOM     14  C   UNL     1       1.556   9.119  19.872  0.00  0.00    +0.000 A 
BRANCH   9  16
ATOM     15  C   UNL     1       2.444  11.935  17.959  0.00  0.00    +0.000 C 
ATOM     16  O   UNL     1       1.416  11.083  18.488  0.00  0.00    +0.000 OA
ENDBRANCH   9  16
BRANCH  14  17
ATOM     17  O   UNL     1       1.044   9.624  21.039  0.00  0.00    +0.000 OA
ATOM     18  C   UNL     1      -0.219   9.159  21.493  0.00  0.00    +0.000 C 
ENDBRANCH  14  17
ENDBRANCH   1  12
BRANCH   5  19
ATOM     19  C   UNL     1       4.547   5.137  17.287  0.00  0.00    +0.000 A 
ATOM     20  C   UNL     1       4.534   4.560  16.015  0.00  0.00    +0.000 A 
ATOM     21  C   UNL     1       5.608   4.743  15.143  0.00  0.00    +0.000 A 
ATOM     22  C   UNL     1       6.687   5.570  15.480  0.00  0.00    +0.000 A 
ATOM     23  C   UNL     1       6.688   6.215  16.727  0.00  0.00    +0.000 A 
ATOM     24  C   UNL     1       5.628   5.967  17.618  0.00  0.00    +0.000 A 
BRANCH  22  25
ATOM     25  O   UNL     1       7.634   5.613  14.490  0.00  0.00    +0.000 OA
ATOM     26  C   UNL     1       7.417   4.864  13.302  0.00  0.00    +0.000 C 
ENDBRANCH  22  25
BRANCH  23  27
ATOM     27  O   UNL     1       7.740   7.032  17.044  0.00  0.00    +0.000 OA
ATOM     28  C   UNL     1       8.069   7.202  18.416  0.00  0.00    +0.000 C 
ENDBRANCH  23  27
ENDBRANCH   5  19
TORSDOF 6
ENDMDL
MODEL 3
REMARK VINA RESULT:      -6.7      1.216      6.215
REMARK  Name = 
REMARK  10 active torsions:
REMARK  status: ('A' for Active; 'I' for Inactive)
REMARK    1  A    between atoms: C_1  and  O_2
REMARK    2  A    between atoms: O_2  and  C_3
REMARK    3  A    between atoms: C_6  and  C_7
REMARK    4  A    between atoms: C_11  and  C_12
REMARK    5  A    between atoms: C_15  and  O_16
REMARK    6  A    between atoms: O_16  and  C_17
REMARK    7  A    between atoms: C_18  and  O_19
REMARK    8  A    between atoms: O_19  and  C_20
REMARK    9  A    between atoms: C_26  and  O_27
REMARK   10  A    between atoms: O_27  and  C_28
REMARK                            x       y       z     vdW  Elec       q    Type
REMARK                         _______ _______ _______ _____ _____    ______ ____
ROOT
ATOM      1  C   UNL     1       4.061   3.925  18.655  0.00  0.00    +0.000 A 
ATOM      2  N   UNL     1       4.155   2.665  19.233  0.00  0.00    +0.000 NA
ATOM      3  C   UNL     1       3.302   2.711  20.211  0.00  0.00    +0.000 A 
ATOM      4  N   UNL     1       2.651   3.896  20.292  0.00  0.00    +0.000 N 
ATOM      5  C   UNL     1       3.078   4.716  19.278  0.00  0.00    +0.000 A 
ATOM      6  C   UNL     1       1.776   4.067  21.430  0.00  0.00    +0.000 C 
ATOM      7  C   UNL     1       1.495   2.678  22.005  0.00  0.00    +0.000 C 
ATOM      8  S   UNL     1       2.867   1.599  21.445  0.00  0.00    +0.000 S 
ENDROOT
BRANCH   1  12
ATOM      9  C   UNL     1       6.660   5.193  15.496  0.00  0.00    +0.000 A 
ATOM     10  C   UNL     1       5.637   4.270  15.253  0.00  0.00    +0.000 A 
ATOM     11  C   UNL     1       4.760   3.892  16.264  0.00  0.00    +0.000 A 
ATOM     12  C   UNL     1       4.967   4.311  17.579  0.00  0.00    +0.000 A 
ATOM     13  C   UNL     1       6.051   5.157  17.841  0.00  0.00    +0.000 A 
ATOM     14  C   UNL     1       6.903   5.609  16.816  0.00  0.00    +0.000 A 
BRANCH   9  16
ATOM     15  C   UNL     1       7.437   4.843  13.295  0.00  0.00    +0.000 C 
ATOM     16  O   UNL     1       7.406   5.677  14.463  0.00  0.00    +0.000 OA
ENDBRANCH   9  16
BRANCH  14  17
ATOM     17  O   UNL     1       7.879   6.450  17.283  0.00  0.00    +0.000 OA
ATOM     18  C   UNL     1       7.975   6.682  18.681  0.00  0.00    +0.000 C 
ENDBRANCH  14  17
ENDBRANCH   1  12
BRANCH   5  19
ATOM     19  C   UNL     1       2.600   6.087  19.033  0.00  0.00    +0.000 A 
ATOM     20  C   UNL     1       2.695   6.666  17.765  0.00  0.00    +0.000 A 
ATOM     21  C   UNL     1       2.406   8.020  17.582  0.00  0.00    +0.000 A 
ATOM     22  C   UNL     1       1.939   8.814  18.636  0.00  0.00    +0.000 A 
ATOM     23  C   UNL     1       1.772   8.235  19.904  0.00  0.00    +0.000 A 
ATOM     24  C   UNL     1       2.129   6.886  20.084  0.00  0.00    +0.000 A 
BRANCH  22  25
ATOM     25  O   UNL     1       1.719  10.109  18.248  0.00  0.00    +0.000 OA
ATOM     26  C   UNL     1       0.379  10.574  18.141  0.00  0.00    +0.000 C 
ENDBRANCH  22  25
BRANCH  23  27
ATOM     27  O   UNL     1       1.303   9.015  20.927  0.00  0.00    +0.000 OA
ATOM     28  C   UNL     1      -0.006   8.764  21.418  0.00  0.00    +0.000 C 
ENDBRANCH  23  27
ENDBRANCH   5  19
TORSDOF 6
ENDMDL
MODEL 4
REMARK VINA RESULT:      -6.5      1.747      6.132
REMARK  Name = 
REMARK  10 active torsions:
REMARK  status: ('A' for Active; 'I' for Inactive)
REMARK    1  A    between atoms: C_1  and  O_2
REMARK    2  A    between atoms: O_2  and  C_3
REMARK    3  A    between atoms: C_6  and  C_7
REMARK    4  A    between atoms: C_11  and  C_12
REMARK    5  A    between atoms: C_15  and  O_16
REMARK    6  A    between atoms: O_16  and  C_17
REMARK    7  A    between atoms: C_18  and  O_19
REMARK    8  A    between atoms: O_19  and  C_20
REMARK    9  A    between atoms: C_26  and  O_27
REMARK   10  A    between atoms: O_27  and  C_28
REMARK                            x       y       z     vdW  Elec       q    Type
REMARK                         _______ _______ _______ _____ _____    ______ ____
ROOT
ATOM      1  C   UNL     1       3.972   4.950  18.228  0.00  0.00    +0.000 A 
ATOM      2  N   UNL     1       4.043   3.569  18.110  0.00  0.00    +0.000 NA
ATOM      3  C   UNL     1       2.907   3.159  18.586  0.00  0.00    +0.000 A 
ATOM      4  N   UNL     1       2.101   4.175  18.980  0.00  0.00    +0.000 N 
ATOM      5  C   UNL     1       2.728   5.371  18.735  0.00  0.00    +0.000 A 
ATOM      6  C   UNL     1       0.868   3.795  19.635  0.00  0.00    +0.000 C 
ATOM      7  C   UNL     1       0.614   2.321  19.311  0.00  0.00    +0.000 C 
ATOM      8  S   UNL     1       2.238   1.602  18.861  0.00  0.00    +0.000 S 
ENDROOT
BRANCH   1  12
ATOM      9  C   UNL     1       7.340   7.462  17.398  0.00  0.00    +0.000 A 
ATOM     10  C   UNL     1       6.199   7.506  16.589  0.00  0.00    +0.000 A 
ATOM     11  C   UNL     1       5.085   6.727  16.883  0.00  0.00    +0.000 A 
ATOM     12  C   UNL     1       5.128   5.778  17.904  0.00  0.00    +0.000 A 
ATOM     13  C   UNL     1       6.306   5.664  18.652  0.00  0.00    +0.000 A 
ATOM     14  C   UNL     1       7.417   6.497  18.416  0.00  0.00    +0.000 A 
BRANCH   9  16
ATOM     15  C   UNL     1       8.381   9.460  18.099  0.00  0.00    +0.000 C 
ATOM     16  O   UNL     1       8.358   8.346  17.195  0.00  0.00    +0.000 OA
ENDBRANCH   9  16
BRANCH  14  17
ATOM     17  O   UNL     1       8.452   6.240  19.277  0.00  0.00    +0.000 OA
ATOM     18  C   UNL     1       8.250   5.320  20.340  0.00  0.00    +0.000 C 
ENDBRANCH  14  17
ENDBRANCH   1  12
BRANCH   5  19
ATOM     19  C   UNL     1       2.169   6.701  19.027  0.00  0.00    +0.000 A 
ATOM     20  C   UNL     1       2.022   7.656  18.018  0.00  0.00    +0.000 A 
ATOM     21  C   UNL     1       1.659   8.967  18.332  0.00  0.00    +0.000 A 
ATOM     22  C   UNL     1       1.357   9.344  19.646  0.00  0.00    +0.000 A 
ATOM     23  C   UNL     1       1.433   8.383  20.666  0.00  0.00    +0.000 A 
ATOM     24  C   UNL     1       1.861   7.083  20.340  0.00  0.00    +0.000 A 
BRANCH  22  25
ATOM     25  O   UNL     1       1.028  10.671  19.740  0.00  0.00    +0.000 OA
ATOM     26  C   UNL     1       0.030  11.193  18.873  0.00  0.00    +0.000 C 
ENDBRANCH  22  25
BRANCH  23  27
ATOM     27  O   UNL     1       1.123   8.756  21.946  0.00  0.00    +0.000 OA
ATOM     28  C   UNL     1      -0.243   8.970  22.273  0.00  0.00    +0.000 C 
ENDBRANCH  23  27
ENDBRANCH   5  19
TORSDOF 6
ENDMDL
MODEL 5
REMARK VINA RESULT:      -6.4      1.184      2.158
REMARK  Name = 
REMARK  10 active torsions:
REMARK  status: ('A' for Active; 'I' for Inactive)
REMARK    1  A    between atoms: C_1  and  O_2
REMARK    2  A    between atoms: O_2  and  C_3
REMARK    3  A    between atoms: C_6  and  C_7
REMARK    4  A    between atoms: C_11  and  C_12
REMARK    5  A    between atoms: C_15  and  O_16
REMARK    6  A    between atoms: O_16  and  C_17
REMARK    7  A    between atoms: C_18  and  O_19
REMARK    8  A    between atoms: O_19  and  C_20
REMARK    9  A    between atoms: C_26  and  O_27
REMARK   10  A    between atoms: O_27  and  C_28
REMARK                            x       y       z     vdW  Elec       q    Type
REMARK                         _______ _______ _______ _____ _____    ______ ____
ROOT
ATOM      1  C   UNL     1       2.210   5.441  19.274  0.00  0.00    +0.000 A 
ATOM      2  N   UNL     1       1.248   4.518  19.663  0.00  0.00    +0.000 NA
ATOM      3  C   UNL     1       1.750   3.378  19.299  0.00  0.00    +0.000 A 
ATOM      4  N   UNL     1       2.972   3.496  18.725  0.00  0.00    +0.000 N 
ATOM      5  C   UNL     1       3.341   4.817  18.715  0.00  0.00    +0.000 A 
ATOM      6  C   UNL     1       3.542   2.282  18.182  0.00  0.00    +0.000 C 
ATOM      7  C   UNL     1       2.784   1.105  18.797  0.00  0.00    +0.000 C 
ATOM      8  S   UNL     1       1.166   1.764  19.352  0.00  0.00    +0.000 S 
ENDROOT
BRANCH   1  12
ATOM      9  C   UNL     1       1.312   9.610  19.672  0.00  0.00    +0.000 A 
ATOM     10  C   UNL     1       1.748   9.086  18.449  0.00  0.00    +0.000 A 
ATOM     11  C   UNL     1       1.994   7.725  18.303  0.00  0.00    +0.000 A 
ATOM     12  C   UNL     1       1.953   6.871  19.405  0.00  0.00    +0.000 A 
ATOM     13  C   UNL     1       1.613   7.413  20.650  0.00  0.00    +0.000 A 
ATOM     14  C   UNL     1       1.287   8.774  20.801  0.00  0.00    +0.000 A 
BRANCH   9  16
ATOM     15  C   UNL     1       1.496  11.786  18.776  0.00  0.00    +0.000 C 
ATOM     16  O   UNL     1       0.918  10.913  19.758  0.00  0.00    +0.000 OA
ENDBRANCH   9  16
BRANCH  14  17
ATOM     17  O   UNL     1       0.956   9.090  22.093  0.00  0.00    +0.000 OA
ATOM     18  C   UNL     1      -0.416   9.147  22.457  0.00  0.00    +0.000 C 
ENDBRANCH  14  17
ENDBRANCH   1  12
BRANCH   5  19
ATOM     19  C   UNL     1       4.604   5.345  18.175  0.00  0.00    +0.000 A 
ATOM     20  C   UNL     1       5.563   5.918  19.015  0.00  0.00    +0.000 A 
ATOM     21  C   UNL     1       6.674   6.572  18.479  0.00  0.00    +0.000 A 
ATOM     22  C   UNL     1       6.903   6.606  17.098  0.00  0.00    +0.000 A 
ATOM     23  C   UNL     1       5.987   5.978  16.240  0.00  0.00    +0.000 A 
ATOM     24  C   UNL     1       4.841   5.379  16.794  0.00  0.00    +0.000 A 
BRANCH  22  25
ATOM     25  O   UNL     1       8.042   7.298  16.781  0.00  0.00    +0.000 OA
ATOM     26  C   UNL     1       8.310   8.522  17.452  0.00  0.00    +0.000 C 
ENDBRANCH  22  25
BRANCH  23  27
ATOM     27  O   UNL     1       6.224   6.005  14.891  0.00  0.00    +0.000 OA
ATOM     28  C   UNL     1       6.679   4.814  14.265  0.00  0.00    +0.000 C 
ENDBRANCH  23  27
ENDBRANCH   5  19
TORSDOF 6
ENDMDL
MODEL 6
REMARK VINA RESULT:      -6.4      4.687      8.755
REMARK  Name = 
REMARK  10 active torsions:
REMARK  status: ('A' for Active; 'I' for Inactive)
REMARK    1  A    between atoms: C_1  and  O_2
REMARK    2  A    between atoms: O_2  and  C_3
REMARK    3  A    between atoms: C_6  and  C_7
REMARK    4  A    between atoms: C_11  and  C_12
REMARK    5  A    between atoms: C_15  and  O_16
REMARK    6  A    between atoms: O_16  and  C_17
REMARK    7  A    between atoms: C_18  and  O_19
REMARK    8  A    between atoms: O_19  and  C_20
REMARK    9  A    between atoms: C_26  and  O_27
REMARK   10  A    between atoms: O_27  and  C_28
REMARK                            x       y       z     vdW  Elec       q    Type
REMARK                         _______ _______ _______ _____ _____    ______ ____
ROOT
ATOM      1  C   UNL     1       0.399  10.848  20.005  0.00  0.00    +0.000 A 
ATOM      2  N   UNL     1       0.967  11.601  21.023  0.00  0.00    +0.000 NA
ATOM      3  C   UNL     1       0.186  12.634  21.116  0.00  0.00    +0.000 A 
ATOM      4  N   UNL     1      -0.854  12.590  20.249  0.00  0.00    +0.000 N 
ATOM      5  C   UNL     1      -0.790  11.428  19.523  0.00  0.00    +0.000 A 
ATOM      6  C   UNL     1      -1.700  13.763  20.206  0.00  0.00    +0.000 C 
ATOM      7  C   UNL     1      -1.430  14.568  21.479  0.00  0.00    +0.000 C 
ATOM      8  S   UNL     1       0.227  14.059  22.073  0.00  0.00    +0.000 S 
ENDROOT
BRANCH   1  12
ATOM      9  C   UNL     1       2.480   7.356  18.655  0.00  0.00    +0.000 A 
ATOM     10  C   UNL     1       2.291   8.450  17.802  0.00  0.00    +0.000 A 
ATOM     11  C   UNL     1       1.659   9.604  18.252  0.00  0.00    +0.000 A 
ATOM     12  C   UNL     1       1.068   9.648  19.515  0.00  0.00    +0.000 A 
ATOM     13  C   UNL     1       1.172   8.516  20.333  0.00  0.00    +0.000 A 
ATOM     14  C   UNL     1       1.874   7.367  19.922  0.00  0.00    +0.000 A 
BRANCH   9  16
ATOM     15  C   UNL     1       4.286   6.624  17.323  0.00  0.00    +0.000 C 
ATOM     16  O   UNL     1       3.243   6.300  18.254  0.00  0.00    +0.000 OA
ENDBRANCH   9  16
BRANCH  14  17
ATOM     17  O   UNL     1       1.879   6.389  20.883  0.00  0.00    +0.000 OA
ATOM     18  C   UNL     1       1.360   5.107  20.560  0.00  0.00    +0.000 C 
ENDBRANCH  14  17
ENDBRANCH   1  12
BRANCH   5  19
ATOM     19  C   UNL     1      -1.746  11.019  18.481  0.00  0.00    +0.000 A 
ATOM     20  C   UNL     1      -1.361  10.163  17.447  0.00  0.00    +0.000 A 
ATOM     21  C   UNL     1      -2.217   9.922  16.371  0.00  0.00    +0.000 A 
ATOM     22  C   UNL     1      -3.509  10.463  16.333  0.00  0.00    +0.000 A 
ATOM     23  C   UNL     1      -3.940  11.272  17.396  0.00  0.00    +0.000 A 
ATOM     24  C   UNL     1      -3.041  11.555  18.440  0.00  0.00    +0.000 A 
BRANCH  22  25
ATOM     25  O   UNL     1      -4.183  10.110  15.194  0.00  0.00    +0.000 OA
ATOM     26  C   UNL     1      -3.481  10.094  13.958  0.00  0.00    +0.000 C 
ENDBRANCH  22  25
BRANCH  23  27
ATOM     27  O   UNL     1      -5.209  11.787  17.357  0.00  0.00    +0.000 OA
ATOM     28  C   UNL     1      -6.218  11.146  18.124  0.00  0.00    +0.000 C 
ENDBRANCH  23  27
ENDBRANCH   5  19
TORSDOF 6
ENDMDL
MODEL 7
REMARK VINA RESULT:      -6.4      0.741      1.831
REMARK  Name = 
REMARK  10 active torsions:
REMARK  status: ('A' for Active; 'I' for Inactive)
REMARK    1  A    between atoms: C_1  and  O_2
REMARK    2  A    between atoms: O_2  and  C_3
REMARK    3  A    between atoms: C_6  and  C_7
REMARK    4  A    between atoms: C_11  and  C_12
REMARK    5  A    between atoms: C_15  and  O_16
REMARK    6  A    between atoms: O_16  and  C_17
REMARK    7  A    between atoms: C_18  and  O_19
REMARK    8  A    between atoms: O_19  and  C_20
REMARK    9  A    between atoms: C_26  and  O_27
REMARK   10  A    between atoms: O_27  and  C_28
REMARK                            x       y       z     vdW  Elec       q    Type
REMARK                         _______ _______ _______ _____ _____    ______ ____
ROOT
ATOM      1  C   UNL     1       2.249   6.025  20.078  0.00  0.00    +0.000 A 
ATOM      2  N   UNL     1       1.386   5.281  20.872  0.00  0.00    +0.000 NA
ATOM      3  C   UNL     1       1.916   4.095  20.876  0.00  0.00    +0.000 A 
ATOM      4  N   UNL     1       3.065   4.026  20.163  0.00  0.00    +0.000 N 
ATOM      5  C   UNL     1       3.354   5.266  19.650  0.00  0.00    +0.000 A 
ATOM      6  C   UNL     1       3.649   2.711  20.017  0.00  0.00    +0.000 C 
ATOM      7  C   UNL     1       3.025   1.813  21.087  0.00  0.00    +0.000 C 
ATOM      8  S   UNL     1       1.435   2.594  21.556  0.00  0.00    +0.000 S 
ENDROOT
BRANCH   1  12
ATOM      9  C   UNL     1       1.151  10.037  19.060  0.00  0.00    +0.000 A 
ATOM     10  C   UNL     1       1.748   9.197  18.113  0.00  0.00    +0.000 A 
ATOM     11  C   UNL     1       2.062   7.879  18.425  0.00  0.00    +0.000 A 
ATOM     12  C   UNL     1       1.924   7.403  19.730  0.00  0.00    +0.000 A 
ATOM     13  C   UNL     1       1.418   8.274  20.702  0.00  0.00    +0.000 A 
ATOM     14  C   UNL     1       1.024   9.589  20.385  0.00  0.00    +0.000 A 
BRANCH   9  16
ATOM     15  C   UNL     1       1.715  12.281  18.591  0.00  0.00    +0.000 C 
ATOM     16  O   UNL     1       0.700  11.271  18.694  0.00  0.00    +0.000 OA
ENDBRANCH   9  16
BRANCH  14  17
ATOM     17  O   UNL     1       0.531  10.260  21.474  0.00  0.00    +0.000 OA
ATOM     18  C   UNL     1      -0.304   9.566  22.389  0.00  0.00    +0.000 C 
ENDBRANCH  14  17
ENDBRANCH   1  12
BRANCH   5  19
ATOM     19  C   UNL     1       4.525   5.593  18.820  0.00  0.00    +0.000 A 
ATOM     20  C   UNL     1       5.768   5.854  19.400  0.00  0.00    +0.000 A 
ATOM     21  C   UNL     1       6.826   6.334  18.625  0.00  0.00    +0.000 A 
ATOM     22  C   UNL     1       6.699   6.492  17.240  0.00  0.00    +0.000 A 
ATOM     23  C   UNL     1       5.478   6.171  16.625  0.00  0.00    +0.000 A 
ATOM     24  C   UNL     1       4.405   5.749  17.431  0.00  0.00    +0.000 A 
BRANCH  22  25
ATOM     25  O   UNL     1       7.846   6.975  16.668  0.00  0.00    +0.000 OA
ATOM     26  C   UNL     1       8.391   8.197  17.151  0.00  0.00    +0.000 C 
ENDBRANCH  22  25
BRANCH  23  27
ATOM     27  O   UNL     1       5.366   6.316  15.268  0.00  0.00    +0.000 OA
ATOM     28  C   UNL     1       5.647   5.192  14.446  0.00  0.00    +0.000 C 
ENDBRANCH  23  27
ENDBRANCH   5  19
TORSDOF 6
ENDMDL
MODEL 8
REMARK VINA RESULT:      -6.3      4.894      7.939
REMARK  Name = 
REMARK  10 active torsions:
REMARK  status: ('A' for Active; 'I' for Inactive)
REMARK    1  A    between atoms: C_1  and  O_2
REMARK    2  A    between atoms: O_2  and  C_3
REMARK    3  A    between atoms: C_6  and  C_7
REMARK    4  A    between atoms: C_11  and  C_12
REMARK    5  A    between atoms: C_15  and  O_16
REMARK    6  A    between atoms: O_16  and  C_17
REMARK    7  A    between atoms: C_18  and  O_19
REMARK    8  A    between atoms: O_19  and  C_20
REMARK    9  A    between atoms: C_26  and  O_27
REMARK   10  A    between atoms: O_27  and  C_28
REMARK                            x       y       z     vdW  Elec       q    Type
REMARK                         _______ _______ _______ _____ _____    ______ ____
ROOT
ATOM      1  C   UNL     1      -0.494  12.939  18.605  0.00  0.00    +0.000 A 
ATOM      2  N   UNL     1      -0.427  14.325  18.558  0.00  0.00    +0.000 NA
ATOM      3  C   UNL     1       0.814  14.584  18.838  0.00  0.00    +0.000 A 
ATOM      4  N   UNL     1       1.555  13.469  19.041  0.00  0.00    +0.000 N 
ATOM      5  C   UNL     1       0.763  12.361  18.864  0.00  0.00    +0.000 A 
ATOM      6  C   UNL     1       2.918  13.678  19.479  0.00  0.00    +0.000 C 
ATOM      7  C   UNL     1       3.278  15.133  19.175  0.00  0.00    +0.000 C 
ATOM      8  S   UNL     1       1.692  16.044  19.051  0.00  0.00    +0.000 S 
ENDROOT
BRANCH   1  12
ATOM      9  C   UNL     1      -4.286  11.025  18.062  0.00  0.00    +0.000 A 
ATOM     10  C   UNL     1      -4.068  11.883  19.145  0.00  0.00    +0.000 A 
ATOM     11  C   UNL     1      -2.854  12.545  19.298  0.00  0.00    +0.000 A 
ATOM     12  C   UNL     1      -1.775  12.258  18.460  0.00  0.00    +0.000 A 
ATOM     13  C   UNL     1      -1.964  11.325  17.435  0.00  0.00    +0.000 A 
ATOM     14  C   UNL     1      -3.209  10.703  17.219  0.00  0.00    +0.000 A 
BRANCH   9  16
ATOM     15  C   UNL     1      -6.363  10.405  18.996  0.00  0.00    +0.000 C 
ATOM     16  O   UNL     1      -5.529  10.513  17.833  0.00  0.00    +0.000 OA
ENDBRANCH   9  16
BRANCH  14  17
ATOM     17  O   UNL     1      -3.185   9.847  16.148  0.00  0.00    +0.000 OA
ATOM     18  C   UNL     1      -3.039  10.385  14.842  0.00  0.00    +0.000 C 
ENDBRANCH  14  17
ENDBRANCH   1  12
BRANCH   5  19
ATOM     19  C   UNL     1       1.210  10.965  18.997  0.00  0.00    +0.000 A 
ATOM     20  C   UNL     1       1.954  10.349  17.989  0.00  0.00    +0.000 A 
ATOM     21  C   UNL     1       2.221   8.979  18.042  0.00  0.00    +0.000 A 
ATOM     22  C   UNL     1       1.823   8.202  19.137  0.00  0.00    +0.000 A 
ATOM     23  C   UNL     1       1.132   8.816  20.194  0.00  0.00    +0.000 A 
ATOM     24  C   UNL     1       0.818  10.183  20.093  0.00  0.00    +0.000 A 
BRANCH  22  25
ATOM     25  O   UNL     1       2.178   6.886  18.992  0.00  0.00    +0.000 OA
ATOM     26  C   UNL     1       3.334   6.568  18.229  0.00  0.00    +0.000 C 
ENDBRANCH  22  25
BRANCH  23  27
ATOM     27  O   UNL     1       0.758   8.051  21.266  0.00  0.00    +0.000 OA
ATOM     28  C   UNL     1      -0.191   8.589  22.176  0.00  0.00    +0.000 C 
ENDBRANCH  23  27
ENDBRANCH   5  19
TORSDOF 6
ENDMDL
MODEL 9
REMARK VINA RESULT:      -6.3      1.725      6.156
REMARK  Name = 
REMARK  10 active torsions:
REMARK  status: ('A' for Active; 'I' for Inactive)
REMARK    1  A    between atoms: C_1  and  O_2
REMARK    2  A    between atoms: O_2  and  C_3
REMARK    3  A    between atoms: C_6  and  C_7
REMARK    4  A    between atoms: C_11  and  C_12
REMARK    5  A    between atoms: C_15  and  O_16
REMARK    6  A    between atoms: O_16  and  C_17
REMARK    7  A    between atoms: C_18  and  O_19
REMARK    8  A    between atoms: O_19  and  C_20
REMARK    9  A    between atoms: C_26  and  O_27
REMARK   10  A    between atoms: O_27  and  C_28
REMARK                            x       y       z     vdW  Elec       q    Type
REMARK                         _______ _______ _______ _____ _____    ______ ____
ROOT
ATOM      1  C   UNL     1       3.915   4.973  18.306  0.00  0.00    +0.000 A 
ATOM      2  N   UNL     1       3.913   3.608  18.053  0.00  0.00    +0.000 NA
ATOM      3  C   UNL     1       2.794   3.200  18.569  0.00  0.00    +0.000 A 
ATOM      4  N   UNL     1       2.066   4.203  19.115  0.00  0.00    +0.000 N 
ATOM      5  C   UNL     1       2.729   5.391  18.940  0.00  0.00    +0.000 A 
ATOM      6  C   UNL     1       0.864   3.810  19.819  0.00  0.00    +0.000 C 
ATOM      7  C   UNL     1       0.520   2.387  19.376  0.00  0.00    +0.000 C 
ATOM      8  S   UNL     1       2.074   1.651  18.742  0.00  0.00    +0.000 S 
ENDROOT
BRANCH   1  12
ATOM      9  C   UNL     1       7.328   7.421  17.472  0.00  0.00    +0.000 A 
ATOM     10  C   UNL     1       6.151   7.559  16.728  0.00  0.00    +0.000 A 
ATOM     11  C   UNL     1       5.025   6.801  17.028  0.00  0.00    +0.000 A 
ATOM     12  C   UNL     1       5.084   5.781  17.979  0.00  0.00    +0.000 A 
ATOM     13  C   UNL     1       6.292   5.577  18.655  0.00  0.00    +0.000 A 
ATOM     14  C   UNL     1       7.420   6.386  18.417  0.00  0.00    +0.000 A 
BRANCH   9  16
ATOM     15  C   UNL     1       8.380   9.423  18.147  0.00  0.00    +0.000 C 
ATOM     16  O   UNL     1       8.367   8.282  17.276  0.00  0.00    +0.000 OA
ENDBRANCH   9  16
BRANCH  14  17
ATOM     17  O   UNL     1       8.487   6.036  19.204  0.00  0.00    +0.000 OA
ATOM     18  C   UNL     1       8.244   5.373  20.436  0.00  0.00    +0.000 C 
ENDBRANCH  14  17
ENDBRANCH   1  12
BRANCH   5  19
ATOM     19  C   UNL     1       2.255   6.707  19.396  0.00  0.00    +0.000 A 
ATOM     20  C   UNL     1       1.896   6.920  20.730  0.00  0.00    +0.000 A 
ATOM     21  C   UNL     1       1.283   8.113  21.116  0.00  0.00    +0.000 A 
ATOM     22  C   UNL     1       1.081   9.157  20.205  0.00  0.00    +0.000 A 
ATOM     23  C   UNL     1       1.496   8.990  18.874  0.00  0.00    +0.000 A 
ATOM     24  C   UNL     1       2.055   7.757  18.489  0.00  0.00    +0.000 A 
BRANCH  22  25
ATOM     25  O   UNL     1       0.464  10.235  20.782  0.00  0.00    +0.000 OA
ATOM     26  C   UNL     1      -0.078  10.096  22.089  0.00  0.00    +0.000 C 
ENDBRANCH  22  25
BRANCH  23  27
ATOM     27  O   UNL     1       1.307  10.020  17.992  0.00  0.00    +0.000 OA
ATOM     28  C   UNL     1       2.239  11.093  18.002  0.00  0.00    +0.000 C 
ENDBRANCH  23  27
ENDBRANCH   5  19
TORSDOF 6
ENDMDL
