MODEL 1
REMARK VINA RESULT:      -8.9      0.000      0.000
REMARK  Name = 
REMARK  5 active torsions:
REMARK  status: ('A' for Active; 'I' for Inactive)
REMARK    1  A    between atoms: C_1  and  C_2
REMARK    2  A    between atoms: C_2  and  C_3
REMARK    3  A    between atoms: C_3  and  S_4
REMARK    4  A    between atoms: S_4  and  C_7
REMARK    5  A    between atoms: C_21  and  C_22
REMARK                            x       y       z     vdW  Elec       q    Type
REMARK                         _______ _______ _______ _____ _____    ______ ____
ROOT
ATOM      1  C   UNL     1       6.287   5.508  19.307  0.00  0.00    +0.000 C 
ATOM      2  C   UNL     1       5.147   5.000  18.396  0.00  0.00    +0.000 C 
ATOM      3  O   UNL     1       5.363   3.560  18.555  0.00  0.00    +0.000 OA
ATOM      4  O   UNL     1       4.138   2.852  18.228  0.00  0.00    +0.000 OA
ATOM      5  C   UNL     1       3.184   3.018  19.301  0.00  0.00    +0.000 C 
ATOM      6  C   UNL     1       3.426   4.319  20.074  0.00  0.00    +0.000 C 
ATOM      7  C   UNL     1       3.757   5.382  19.012  0.00  0.00    +0.000 C 
ATOM      8  C   UNL     1       2.553   5.544  18.032  0.00  0.00    +0.000 C 
ATOM      9  C   UNL     1       1.532   4.456  17.994  0.00  0.00    +0.000 C 
ATOM     10  O   UNL     1       1.852   3.292  17.222  0.00  0.00    +0.000 OA
ATOM     11  C   UNL     1       1.826   3.139  18.652  0.00  0.00    +0.000 C 
ATOM     12  C   UNL     1       0.654   2.426  19.225  0.00  0.00    +0.000 C 
ENDROOT
BRANCH   2  13
ATOM     13  C   UNL     1       5.405   5.386  16.933  0.00  0.00    +0.000 C 
BRANCH  13  14
ATOM     14  S   UNL     1       7.071   5.294  16.283  0.00  0.00    +0.000 S 
ATOM     15  O   UNL     1       7.613   6.643  16.288  0.00  0.00    +0.000 OA
ATOM     16  O   UNL     1       7.812   4.225  16.924  0.00  0.00    +0.000 OA
BRANCH  14  17
ATOM     17  C   UNL     1       6.951   4.834  14.579  0.00  0.00    +0.000 A 
ATOM     18  C   UNL     1       5.999   3.887  14.196  0.00  0.00    +0.000 A 
ATOM     19  C   UNL     1       5.965   3.471  12.869  0.00  0.00    +0.000 A 
ATOM     20  C   UNL     1       6.859   4.007  11.939  0.00  0.00    +0.000 A 
ATOM     21  C   UNL     1       7.779   4.986  12.321  0.00  0.00    +0.000 A 
ATOM     22  C   UNL     1       7.813   5.419  13.642  0.00  0.00    +0.000 A 
ENDBRANCH  14  17
ENDBRANCH  13  14
ENDBRANCH   2  13
TORSDOF 3
ENDMDL
MODEL 2
REMARK VINA RESULT:      -8.9      0.112      1.042
REMARK  Name = 
REMARK  5 active torsions:
REMARK  status: ('A' for Active; 'I' for Inactive)
REMARK    1  A    between atoms: C_1  and  C_2
REMARK    2  A    between atoms: C_2  and  C_3
REMARK    3  A    between atoms: C_3  and  S_4
REMARK    4  A    between atoms: S_4  and  C_7
REMARK    5  A    between atoms: C_21  and  C_22
REMARK                            x       y       z     vdW  Elec       q    Type
REMARK                         _______ _______ _______ _____ _____    ______ ____
ROOT
ATOM      1  C   UNL     1       6.288   5.547  19.245  0.00  0.00    +0.000 C 
ATOM      2  C   UNL     1       5.146   4.983  18.369  0.00  0.00    +0.000 C 
ATOM      3  O   UNL     1       5.351   3.557  18.632  0.00  0.00    +0.000 OA
ATOM      4  O   UNL     1       4.122   2.836  18.354  0.00  0.00    +0.000 OA
ATOM      5  C   UNL     1       3.166   3.086  19.409  0.00  0.00    +0.000 C 
ATOM      6  C   UNL     1       3.416   4.436  20.088  0.00  0.00    +0.000 C 
ATOM      7  C   UNL     1       3.757   5.418  18.953  0.00  0.00    +0.000 C 
ATOM      8  C   UNL     1       2.557   5.519  17.961  0.00  0.00    +0.000 C 
ATOM      9  C   UNL     1       1.528   4.438  17.998  0.00  0.00    +0.000 C 
ATOM     10  O   UNL     1       1.841   3.220  17.313  0.00  0.00    +0.000 OA
ATOM     11  C   UNL     1       1.810   3.169  18.750  0.00  0.00    +0.000 C 
ATOM     12  C   UNL     1       0.632   2.508  19.369  0.00  0.00    +0.000 C 
ENDROOT
BRANCH   2  13
ATOM     13  C   UNL     1       5.409   5.261  16.883  0.00  0.00    +0.000 C 
BRANCH  13  14
ATOM     14  S   UNL     1       7.094   5.255  16.275  0.00  0.00    +0.000 S 
ATOM     15  O   UNL     1       7.570   6.629  16.302  0.00  0.00    +0.000 OA
ATOM     16  O   UNL     1       7.870   4.219  16.930  0.00  0.00    +0.000 OA
BRANCH  14  17
ATOM     17  C   UNL     1       7.040   4.801  14.567  0.00  0.00    +0.000 A 
ATOM     18  C   UNL     1       7.882   5.453  13.664  0.00  0.00    +0.000 A 
ATOM     19  C   UNL     1       7.778   5.146  12.311  0.00  0.00    +0.000 A 
ATOM     20  C   UNL     1       6.855   4.193  11.873  0.00  0.00    +0.000 A 
ATOM     21  C   UNL     1       6.047   3.516  12.788  0.00  0.00    +0.000 A 
ATOM     22  C   UNL     1       6.152   3.804  14.144  0.00  0.00    +0.000 A 
ENDBRANCH  14  17
ENDBRANCH  13  14
ENDBRANCH   2  13
TORSDOF 3
ENDMDL
MODEL 3
REMARK VINA RESULT:      -8.6      1.226      1.900
REMARK  Name = 
REMARK  5 active torsions:
REMARK  status: ('A' for Active; 'I' for Inactive)
REMARK    1  A    between atoms: C_1  and  C_2
REMARK    2  A    between atoms: C_2  and  C_3
REMARK    3  A    between atoms: C_3  and  S_4
REMARK    4  A    between atoms: S_4  and  C_7
REMARK    5  A    between atoms: C_21  and  C_22
REMARK                            x       y       z     vdW  Elec       q    Type
REMARK                         _______ _______ _______ _____ _____    ______ ____
ROOT
ATOM      1  C   UNL     1       4.054   7.182  17.450  0.00  0.00    +0.000 C 
ATOM      2  C   UNL     1       3.900   5.663  17.689  0.00  0.00    +0.000 C 
ATOM      3  O   UNL     1       4.674   5.555  18.927  0.00  0.00    +0.000 OA
ATOM      4  O   UNL     1       4.273   4.356  19.642  0.00  0.00    +0.000 OA
ATOM      5  C   UNL     1       2.978   4.566  20.248  0.00  0.00    +0.000 C 
ATOM      6  C   UNL     1       2.159   5.609  19.481  0.00  0.00    +0.000 C 
ATOM      7  C   UNL     1       2.400   5.316  17.989  0.00  0.00    +0.000 C 
ATOM      8  C   UNL     1       1.910   3.875  17.646  0.00  0.00    +0.000 C 
ATOM      9  C   UNL     1       1.702   2.920  18.775  0.00  0.00    +0.000 C 
ATOM     10  O   UNL     1       2.868   2.273  19.300  0.00  0.00    +0.000 OA
ATOM     11  C   UNL     1       2.235   3.256  20.138  0.00  0.00    +0.000 C 
ATOM     12  C   UNL     1       1.443   2.743  21.286  0.00  0.00    +0.000 C 
ENDROOT
BRANCH   2  13
ATOM     13  C   UNL     1       4.606   4.862  16.586  0.00  0.00    +0.000 C 
BRANCH  13  14
ATOM     14  S   UNL     1       6.331   5.189  16.233  0.00  0.00    +0.000 S 
ATOM     15  O   UNL     1       6.519   6.629  16.285  0.00  0.00    +0.000 OA
ATOM     16  O   UNL     1       7.187   4.330  17.030  0.00  0.00    +0.000 OA
BRANCH  14  17
ATOM     17  C   UNL     1       6.625   4.727  14.552  0.00  0.00    +0.000 A 
ATOM     18  C   UNL     1       7.646   5.362  13.841  0.00  0.00    +0.000 A 
ATOM     19  C   UNL     1       7.819   5.051  12.497  0.00  0.00    +0.000 A 
ATOM     20  C   UNL     1       6.993   4.109  11.878  0.00  0.00    +0.000 A 
ATOM     21  C   UNL     1       6.002   3.448  12.607  0.00  0.00    +0.000 A 
ATOM     22  C   UNL     1       5.829   3.741  13.955  0.00  0.00    +0.000 A 
ENDBRANCH  14  17
ENDBRANCH  13  14
ENDBRANCH   2  13
TORSDOF 3
ENDMDL
MODEL 4
REMARK VINA RESULT:      -8.6      1.239      1.618
REMARK  Name = 
REMARK  5 active torsions:
REMARK  status: ('A' for Active; 'I' for Inactive)
REMARK    1  A    between atoms: C_1  and  C_2
REMARK    2  A    between atoms: C_2  and  C_3
REMARK    3  A    between atoms: C_3  and  S_4
REMARK    4  A    between atoms: S_4  and  C_7
REMARK    5  A    between atoms: C_21  and  C_22
REMARK                            x       y       z     vdW  Elec       q    Type
REMARK                         _______ _______ _______ _____ _____    ______ ____
ROOT
ATOM      1  C   UNL     1       3.942   7.253  17.583  0.00  0.00    +0.000 C 
ATOM      2  C   UNL     1       3.809   5.723  17.759  0.00  0.00    +0.000 C 
ATOM      3  O   UNL     1       4.644   5.565  18.951  0.00  0.00    +0.000 OA
ATOM      4  O   UNL     1       4.287   4.331  19.628  0.00  0.00    +0.000 OA
ATOM      5  C   UNL     1       3.022   4.501  20.306  0.00  0.00    +0.000 C 
ATOM      6  C   UNL     1       2.159   5.572  19.630  0.00  0.00    +0.000 C 
ATOM      7  C   UNL     1       2.328   5.350  18.116  0.00  0.00    +0.000 C 
ATOM      8  C   UNL     1       1.830   3.922  17.731  0.00  0.00    +0.000 C 
ATOM      9  C   UNL     1       1.685   2.915  18.823  0.00  0.00    +0.000 C 
ATOM     10  O   UNL     1       2.879   2.254  19.259  0.00  0.00    +0.000 OA
ATOM     11  C   UNL     1       2.283   3.192  20.173  0.00  0.00    +0.000 C 
ATOM     12  C   UNL     1       1.551   2.620  21.333  0.00  0.00    +0.000 C 
ENDROOT
BRANCH   2  13
ATOM     13  C   UNL     1       4.464   4.980  16.587  0.00  0.00    +0.000 C 
BRANCH  13  14
ATOM     14  S   UNL     1       6.201   5.246  16.242  0.00  0.00    +0.000 S 
ATOM     15  O   UNL     1       6.444   6.678  16.315  0.00  0.00    +0.000 OA
ATOM     16  O   UNL     1       7.023   4.343  17.026  0.00  0.00    +0.000 OA
BRANCH  14  17
ATOM     17  C   UNL     1       6.481   4.799  14.553  0.00  0.00    +0.000 A 
ATOM     18  C   UNL     1       5.634   3.869  13.947  0.00  0.00    +0.000 A 
ATOM     19  C   UNL     1       5.909   3.463  12.645  0.00  0.00    +0.000 A 
ATOM     20  C   UNL     1       7.006   3.991  11.958  0.00  0.00    +0.000 A 
ATOM     21  C   UNL     1       7.822   4.952  12.557  0.00  0.00    +0.000 A 
ATOM     22  C   UNL     1       7.549   5.375  13.853  0.00  0.00    +0.000 A 
ENDBRANCH  14  17
ENDBRANCH  13  14
ENDBRANCH   2  13
TORSDOF 3
ENDMDL
MODEL 5
REMARK VINA RESULT:      -8.2      2.592      3.566
REMARK  Name = 
REMARK  5 active torsions:
REMARK  status: ('A' for Active; 'I' for Inactive)
REMARK    1  A    between atoms: C_1  and  C_2
REMARK    2  A    between atoms: C_2  and  C_3
REMARK    3  A    between atoms: C_3  and  S_4
REMARK    4  A    between atoms: S_4  and  C_7
REMARK    5  A    between atoms: C_21  and  C_22
REMARK                            x       y       z     vdW  Elec       q    Type
REMARK                         _______ _______ _______ _____ _____    ______ ____
ROOT
ATOM      1  C   UNL     1       3.697   6.942  17.480  0.00  0.00    +0.000 C 
ATOM      2  C   UNL     1       3.597   5.434  17.802  0.00  0.00    +0.000 C 
ATOM      3  O   UNL     1       4.413   5.414  19.018  0.00  0.00    +0.000 OA
ATOM      4  O   UNL     1       4.072   4.243  19.806  0.00  0.00    +0.000 OA
ATOM      5  C   UNL     1       2.790   4.446  20.442  0.00  0.00    +0.000 C 
ATOM      6  C   UNL     1       1.916   5.423  19.650  0.00  0.00    +0.000 C 
ATOM      7  C   UNL     1       2.120   5.060  18.169  0.00  0.00    +0.000 C 
ATOM      8  C   UNL     1       1.663   3.590  17.916  0.00  0.00    +0.000 C 
ATOM      9  C   UNL     1       1.520   2.689  19.099  0.00  0.00    +0.000 C 
ATOM     10  O   UNL     1       2.721   2.105  19.617  0.00  0.00    +0.000 OA
ATOM     11  C   UNL     1       2.085   3.111  20.425  0.00  0.00    +0.000 C 
ATOM     12  C   UNL     1       1.345   2.636  21.623  0.00  0.00    +0.000 C 
ENDROOT
BRANCH   2  13
ATOM     13  C   UNL     1       4.293   4.597  16.719  0.00  0.00    +0.000 C 
BRANCH  13  14
ATOM     14  S   UNL     1       5.702   5.283  15.852  0.00  0.00    +0.000 S 
ATOM     15  O   UNL     1       6.416   4.174  15.241  0.00  0.00    +0.000 OA
ATOM     16  O   UNL     1       5.299   6.409  15.031  0.00  0.00    +0.000 OA
BRANCH  14  17
ATOM     17  C   UNL     1       6.801   5.948  17.067  0.00  0.00    +0.000 A 
ATOM     18  C   UNL     1       7.295   5.110  18.069  0.00  0.00    +0.000 A 
ATOM     19  C   UNL     1       8.094   5.658  19.066  0.00  0.00    +0.000 A 
ATOM     20  C   UNL     1       8.405   7.020  19.052  0.00  0.00    +0.000 A 
ATOM     21  C   UNL     1       7.941   7.843  18.024  0.00  0.00    +0.000 A 
ATOM     22  C   UNL     1       7.153   7.303  17.014  0.00  0.00    +0.000 A 
ENDBRANCH  14  17
ENDBRANCH  13  14
ENDBRANCH   2  13
TORSDOF 3
ENDMDL
MODEL 6
REMARK VINA RESULT:      -8.0      1.345      1.617
REMARK  Name = 
REMARK  5 active torsions:
REMARK  status: ('A' for Active; 'I' for Inactive)
REMARK    1  A    between atoms: C_1  and  C_2
REMARK    2  A    between atoms: C_2  and  C_3
REMARK    3  A    between atoms: C_3  and  S_4
REMARK    4  A    between atoms: S_4  and  C_7
REMARK    5  A    between atoms: C_21  and  C_22
REMARK                            x       y       z     vdW  Elec       q    Type
REMARK                         _______ _______ _______ _____ _____    ______ ____
ROOT
ATOM      1  C   UNL     1       6.427   6.152  18.024  0.00  0.00    +0.000 C 
ATOM      2  C   UNL     1       5.595   4.876  17.766  0.00  0.00    +0.000 C 
ATOM      3  O   UNL     1       6.075   4.070  18.891  0.00  0.00    +0.000 OA
ATOM      4  O   UNL     1       5.100   3.036  19.190  0.00  0.00    +0.000 OA
ATOM      5  C   UNL     1       3.960   3.625  19.855  0.00  0.00    +0.000 C 
ATOM      6  C   UNL     1       3.788   5.100  19.478  0.00  0.00    +0.000 C 
ATOM      7  C   UNL     1       4.070   5.181  17.967  0.00  0.00    +0.000 C 
ATOM      8  C   UNL     1       3.048   4.294  17.189  0.00  0.00    +0.000 C 
ATOM      9  C   UNL     1       2.298   3.256  17.956  0.00  0.00    +0.000 C 
ATOM     10  O   UNL     1       2.984   2.026  18.224  0.00  0.00    +0.000 OA
ATOM     11  C   UNL     1       2.741   2.895  19.345  0.00  0.00    +0.000 C 
ATOM     12  C   UNL     1       1.661   2.489  20.282  0.00  0.00    +0.000 C 
ENDROOT
BRANCH   2  13
ATOM     13  C   UNL     1       6.017   4.205  16.452  0.00  0.00    +0.000 C 
BRANCH  13  14
ATOM     14  S   UNL     1       6.376   5.223  15.024  0.00  0.00    +0.000 S 
ATOM     15  O   UNL     1       5.389   6.290  14.992  0.00  0.00    +0.000 OA
ATOM     16  O   UNL     1       7.787   5.556  14.975  0.00  0.00    +0.000 OA
BRANCH  14  17
ATOM     17  C   UNL     1       6.068   4.244  13.583  0.00  0.00    +0.000 A 
ATOM     18  C   UNL     1       4.752   3.913  13.255  0.00  0.00    +0.000 A 
ATOM     19  C   UNL     1       4.524   3.076  12.168  0.00  0.00    +0.000 A 
ATOM     20  C   UNL     1       5.595   2.592  11.413  0.00  0.00    +0.000 A 
ATOM     21  C   UNL     1       6.905   2.963  11.722  0.00  0.00    +0.000 A 
ATOM     22  C   UNL     1       7.145   3.809  12.799  0.00  0.00    +0.000 A 
ENDBRANCH  14  17
ENDBRANCH  13  14
ENDBRANCH   2  13
TORSDOF 3
ENDMDL
MODEL 7
REMARK VINA RESULT:      -8.0      2.595      3.714
REMARK  Name = 
REMARK  5 active torsions:
REMARK  status: ('A' for Active; 'I' for Inactive)
REMARK    1  A    between atoms: C_1  and  C_2
REMARK    2  A    between atoms: C_2  and  C_3
REMARK    3  A    between atoms: C_3  and  S_4
REMARK    4  A    between atoms: S_4  and  C_7
REMARK    5  A    between atoms: C_21  and  C_22
REMARK                            x       y       z     vdW  Elec       q    Type
REMARK                         _______ _______ _______ _____ _____    ______ ____
ROOT
ATOM      1  C   UNL     1       3.531   6.896  17.321  0.00  0.00    +0.000 C 
ATOM      2  C   UNL     1       3.551   5.402  17.718  0.00  0.00    +0.000 C 
ATOM      3  O   UNL     1       4.346   5.511  18.943  0.00  0.00    +0.000 OA
ATOM      4  O   UNL     1       4.090   4.357  19.786  0.00  0.00    +0.000 OA
ATOM      5  C   UNL     1       2.786   4.484  20.396  0.00  0.00    +0.000 C 
ATOM      6  C   UNL     1       1.847   5.344  19.545  0.00  0.00    +0.000 C 
ATOM      7  C   UNL     1       2.103   4.925  18.086  0.00  0.00    +0.000 C 
ATOM      8  C   UNL     1       1.774   3.411  17.904  0.00  0.00    +0.000 C 
ATOM      9  C   UNL     1       1.688   2.562  19.129  0.00  0.00    +0.000 C 
ATOM     10  O   UNL     1       2.924   2.106  19.691  0.00  0.00    +0.000 OA
ATOM     11  C   UNL     1       2.195   3.095  20.439  0.00  0.00    +0.000 C 
ATOM     12  C   UNL     1       1.478   2.621  21.651  0.00  0.00    +0.000 C 
ENDROOT
BRANCH   2  13
ATOM     13  C   UNL     1       4.330   4.573  16.687  0.00  0.00    +0.000 C 
BRANCH  13  14
ATOM     14  S   UNL     1       5.763   5.291  15.889  0.00  0.00    +0.000 S 
ATOM     15  O   UNL     1       6.549   4.196  15.343  0.00  0.00    +0.000 OA
ATOM     16  O   UNL     1       5.371   6.387  15.023  0.00  0.00    +0.000 OA
BRANCH  14  17
ATOM     17  C   UNL     1       6.767   6.017  17.151  0.00  0.00    +0.000 A 
ATOM     18  C   UNL     1       7.103   7.369  17.058  0.00  0.00    +0.000 A 
ATOM     19  C   UNL     1       7.957   7.913  18.011  0.00  0.00    +0.000 A 
ATOM     20  C   UNL     1       8.455   7.119  19.048  0.00  0.00    +0.000 A 
ATOM     21  C   UNL     1       8.079   5.779  19.157  0.00  0.00    +0.000 A 
ATOM     22  C   UNL     1       7.215   5.228  18.218  0.00  0.00    +0.000 A 
ENDBRANCH  14  17
ENDBRANCH  13  14
ENDBRANCH   2  13
TORSDOF 3
ENDMDL
MODEL 8
REMARK VINA RESULT:      -7.9      1.336      1.845
REMARK  Name = 
REMARK  5 active torsions:
REMARK  status: ('A' for Active; 'I' for Inactive)
REMARK    1  A    between atoms: C_1  and  C_2
REMARK    2  A    between atoms: C_2  and  C_3
REMARK    3  A    between atoms: C_3  and  S_4
REMARK    4  A    between atoms: S_4  and  C_7
REMARK    5  A    between atoms: C_21  and  C_22
REMARK                            x       y       z     vdW  Elec       q    Type
REMARK                         _______ _______ _______ _____ _____    ______ ____
ROOT
ATOM      1  C   UNL     1       6.168   6.226  17.968  0.00  0.00    +0.000 C 
ATOM      2  C   UNL     1       5.399   4.900  17.772  0.00  0.00    +0.000 C 
ATOM      3  O   UNL     1       5.910   4.174  18.936  0.00  0.00    +0.000 OA
ATOM      4  O   UNL     1       4.985   3.111  19.284  0.00  0.00    +0.000 OA
ATOM      5  C   UNL     1       3.814   3.677  19.915  0.00  0.00    +0.000 C 
ATOM      6  C   UNL     1       3.574   5.122  19.465  0.00  0.00    +0.000 C 
ATOM      7  C   UNL     1       3.860   5.141  17.953  0.00  0.00    +0.000 C 
ATOM      8  C   UNL     1       2.886   4.169  17.217  0.00  0.00    +0.000 C 
ATOM      9  C   UNL     1       2.182   3.135  18.032  0.00  0.00    +0.000 C 
ATOM     10  O   UNL     1       2.924   1.955  18.364  0.00  0.00    +0.000 OA
ATOM     11  C   UNL     1       2.634   2.866  19.439  0.00  0.00    +0.000 C 
ATOM     12  C   UNL     1       1.570   2.455  20.392  0.00  0.00    +0.000 C 
ENDROOT
BRANCH   2  13
ATOM     13  C   UNL     1       5.859   4.185  16.494  0.00  0.00    +0.000 C 
BRANCH  13  14
ATOM     14  S   UNL     1       6.330   5.158  15.066  0.00  0.00    +0.000 S 
ATOM     15  O   UNL     1       5.393   6.266  14.969  0.00  0.00    +0.000 OA
ATOM     16  O   UNL     1       7.755   5.429  15.079  0.00  0.00    +0.000 OA
BRANCH  14  17
ATOM     17  C   UNL     1       6.047   4.165  13.631  0.00  0.00    +0.000 A 
ATOM     18  C   UNL     1       7.138   3.750  12.865  0.00  0.00    +0.000 A 
ATOM     19  C   UNL     1       6.902   3.037  11.694  0.00  0.00    +0.000 A 
ATOM     20  C   UNL     1       5.595   2.732  11.305  0.00  0.00    +0.000 A 
ATOM     21  C   UNL     1       4.512   3.114  12.099  0.00  0.00    +0.000 A 
ATOM     22  C   UNL     1       4.736   3.815  13.278  0.00  0.00    +0.000 A 
ENDBRANCH  14  17
ENDBRANCH  13  14
ENDBRANCH   2  13
TORSDOF 3
ENDMDL
MODEL 9
REMARK VINA RESULT:      -7.5      1.401      1.869
REMARK  Name = 
REMARK  5 active torsions:
REMARK  status: ('A' for Active; 'I' for Inactive)
REMARK    1  A    between atoms: C_1  and  C_2
REMARK    2  A    between atoms: C_2  and  C_3
REMARK    3  A    between atoms: C_3  and  S_4
REMARK    4  A    between atoms: S_4  and  C_7
REMARK    5  A    between atoms: C_21  and  C_22
REMARK                            x       y       z     vdW  Elec       q    Type
REMARK                         _______ _______ _______ _____ _____    ______ ____
ROOT
ATOM      1  C   UNL     1       4.875   6.628  17.261  0.00  0.00    +0.000 C 
ATOM      2  C   UNL     1       4.622   5.338  18.073  0.00  0.00    +0.000 C 
ATOM      3  O   UNL     1       4.171   5.951  19.325  0.00  0.00    +0.000 OA
ATOM      4  O   UNL     1       3.389   4.986  20.077  0.00  0.00    +0.000 OA
ATOM      5  C   UNL     1       2.089   4.834  19.463  0.00  0.00    +0.000 C 
ATOM      6  C   UNL     1       2.132   5.156  17.966  0.00  0.00    +0.000 C 
ATOM      7  C   UNL     1       3.436   4.530  17.441  0.00  0.00    +0.000 C 
ATOM      8  C   UNL     1       3.412   2.987  17.668  0.00  0.00    +0.000 C 
ATOM      9  C   UNL     1       2.431   2.441  18.653  0.00  0.00    +0.000 C 
ATOM     10  O   UNL     1       2.789   2.522  20.038  0.00  0.00    +0.000 OA
ATOM     11  C   UNL     1       1.721   3.376  19.590  0.00  0.00    +0.000 C 
ATOM     12  C   UNL     1       0.342   2.979  19.977  0.00  0.00    +0.000 C 
ENDROOT
BRANCH   2  13
ATOM     13  C   UNL     1       5.936   4.587  18.329  0.00  0.00    +0.000 C 
BRANCH  13  14
ATOM     14  S   UNL     1       7.370   4.963  17.325  0.00  0.00    +0.000 S 
ATOM     15  O   UNL     1       7.585   6.399  17.397  0.00  0.00    +0.000 OA
ATOM     16  O   UNL     1       8.464   4.063  17.638  0.00  0.00    +0.000 OA
BRANCH  14  17
ATOM     17  C   UNL     1       6.944   4.626  15.642  0.00  0.00    +0.000 A 
ATOM     18  C   UNL     1       5.995   3.639  15.366  0.00  0.00    +0.000 A 
ATOM     19  C   UNL     1       5.724   3.325  14.038  0.00  0.00    +0.000 A 
ATOM     20  C   UNL     1       6.382   3.999  13.005  0.00  0.00    +0.000 A 
ATOM     21  C   UNL     1       7.297   5.014  13.291  0.00  0.00    +0.000 A 
ATOM     22  C   UNL     1       7.566   5.346  14.613  0.00  0.00    +0.000 A 
ENDBRANCH  14  17
ENDBRANCH  13  14
ENDBRANCH   2  13
TORSDOF 3
ENDMDL
