MODEL 1
REMARK VINA RESULT:      -8.5      0.000      0.000
REMARK  Name = 
REMARK  4 active torsions:
REMARK  status: ('A' for Active; 'I' for Inactive)
REMARK    1  A    between atoms: C_1  and  C_2
REMARK    2  A    between atoms: C_2  and  C_3
REMARK    3  A    between atoms: C_5  and  N_6
REMARK    4  A    between atoms: N_6  and  C_7
REMARK                            x       y       z     vdW  Elec       q    Type
REMARK                         _______ _______ _______ _____ _____    ______ ____
ROOT
ATOM      1  C   UNL     1       2.408   5.579  18.876  0.00  0.00    +0.000 A 
ATOM      2  C   UNL     1       1.746   6.618  19.571  0.00  0.00    +0.000 A 
ATOM      3  C   UNL     1       1.932   7.982  19.275  0.00  0.00    +0.000 A 
ATOM      4  C   UNL     1       2.799   8.301  18.228  0.00  0.00    +0.000 A 
ATOM      5  C   UNL     1       3.456   7.296  17.510  0.00  0.00    +0.000 A 
ATOM      6  C   UNL     1       3.256   5.957  17.835  0.00  0.00    +0.000 A 
ATOM      7  F   UNL     1       3.873   5.027  17.092  0.00  0.00    +0.000 F 
ENDROOT
BRANCH   1   9
ATOM      8  C   UNL     1       1.356   3.393  18.079  0.00  0.00    +0.000 C 
ATOM      9  C   UNL     1       2.146   4.099  19.204  0.00  0.00    +0.000 C 
ATOM     10  C   UNL     1       1.322   4.011  20.527  0.00  0.00    +0.000 C 
ATOM     11  O   UNL     1       1.480   2.771  21.224  0.00  0.00    +0.000 OA
ATOM     12  C   UNL     1       2.846   2.544  21.509  0.00  0.00    +0.000 C 
ATOM     13  C   UNL     1       3.728   2.639  20.274  0.00  0.00    +0.000 C 
ATOM     14  N   UNL     1       4.923   1.971  20.252  0.00  0.00    +0.000 N 
ATOM     15  N   UNL     1       3.436   3.363  19.247  0.00  0.00    +0.000 NA
ATOM     16  H   UNL     1       5.384   1.786  21.139  0.00  0.00    +0.000 HD
ATOM     17  H   UNL     1       5.537   2.277  19.508  0.00  0.00    +0.000 HD
ENDBRANCH   1   9
BRANCH   3  18
ATOM     18  N   UNL     1       1.217   8.933  19.991  0.00  0.00    +0.000 N 
ATOM     19  H   UNL     1       1.205   8.817  20.998  0.00  0.00    +0.000 HD
BRANCH  18  20
ATOM     20  C   UNL     1       1.050  10.315  19.543  0.00  0.00    +0.000 C 
ATOM     21  C   UNL     1       0.918  11.293  20.734  0.00  0.00    +0.000 C 
ATOM     22  C   UNL     1      -0.496  11.894  20.754  0.00  0.00    +0.000 C 
ATOM     23  C   UNL     1      -1.121  11.367  19.513  0.00  0.00    +0.000 A 
ATOM     24  C   UNL     1      -2.398  11.617  19.033  0.00  0.00    +0.000 A 
ATOM     25  C   UNL     1      -2.784  10.982  17.858  0.00  0.00    +0.000 A 
ATOM     26 CL   UNL     1      -4.364  11.215  17.225  0.00  0.00    +0.000 Cl
ATOM     27  C   UNL     1      -1.875  10.144  17.217  0.00  0.00    +0.000 A 
ATOM     28  N   UNL     1      -0.623   9.881  17.676  0.00  0.00    +0.000 NA
ATOM     29  C   UNL     1      -0.281  10.501  18.824  0.00  0.00    +0.000 A 
ENDBRANCH  18  20
ENDBRANCH   3  18
TORSDOF 3
ENDMDL
MODEL 2
REMARK VINA RESULT:      -8.4      3.170      4.176
REMARK  Name = 
REMARK  4 active torsions:
REMARK  status: ('A' for Active; 'I' for Inactive)
REMARK    1  A    between atoms: C_1  and  C_2
REMARK    2  A    between atoms: C_2  and  C_3
REMARK    3  A    between atoms: C_5  and  N_6
REMARK    4  A    between atoms: N_6  and  C_7
REMARK                            x       y       z     vdW  Elec       q    Type
REMARK                         _______ _______ _______ _____ _____    ______ ____
ROOT
ATOM      1  C   UNL     1       4.435   5.228  17.388  0.00  0.00    +0.000 A 
ATOM      2  C   UNL     1       3.718   6.419  17.654  0.00  0.00    +0.000 A 
ATOM      3  C   UNL     1       2.329   6.443  17.889  0.00  0.00    +0.000 A 
ATOM      4  C   UNL     1       1.652   5.222  17.877  0.00  0.00    +0.000 A 
ATOM      5  C   UNL     1       2.336   4.027  17.633  0.00  0.00    +0.000 A 
ATOM      6  C   UNL     1       3.707   4.038  17.396  0.00  0.00    +0.000 A 
ATOM      7  F   UNL     1       4.327   2.864  17.211  0.00  0.00    +0.000 F 
ENDROOT
BRANCH   1   9
ATOM      8  C   UNL     1       6.364   4.486  15.888  0.00  0.00    +0.000 C 
ATOM      9  C   UNL     1       5.959   5.239  17.176  0.00  0.00    +0.000 C 
ATOM     10  C   UNL     1       6.647   4.552  18.396  0.00  0.00    +0.000 C 
ATOM     11  O   UNL     1       8.001   4.967  18.605  0.00  0.00    +0.000 OA
ATOM     12  C   UNL     1       8.059   6.371  18.764  0.00  0.00    +0.000 C 
ATOM     13  C   UNL     1       7.385   7.121  17.627  0.00  0.00    +0.000 C 
ATOM     14  N   UNL     1       7.775   8.403  17.347  0.00  0.00    +0.000 N 
ATOM     15  N   UNL     1       6.417   6.631  16.929  0.00  0.00    +0.000 NA
ATOM     16  H   UNL     1       8.167   8.960  18.101  0.00  0.00    +0.000 HD
ATOM     17  H   UNL     1       7.124   8.896  16.748  0.00  0.00    +0.000 HD
ENDBRANCH   1   9
BRANCH   3  18
ATOM     18  N   UNL     1       1.714   7.656  18.171  0.00  0.00    +0.000 N 
ATOM     19  H   UNL     1       0.770   7.770  17.816  0.00  0.00    +0.000 HD
BRANCH  18  20
ATOM     20  C   UNL     1       2.007   8.444  19.367  0.00  0.00    +0.000 C 
ATOM     21  C   UNL     1       1.647   7.678  20.662  0.00  0.00    +0.000 C 
ATOM     22  C   UNL     1       0.479   8.382  21.370  0.00  0.00    +0.000 C 
ATOM     23  C   UNL     1       0.261   9.608  20.558  0.00  0.00    +0.000 A 
ATOM     24  C   UNL     1      -0.670  10.612  20.771  0.00  0.00    +0.000 A 
ATOM     25  C   UNL     1      -0.718  11.658  19.855  0.00  0.00    +0.000 A 
ATOM     26 CL   UNL     1      -1.871  12.917  20.034  0.00  0.00    +0.000 Cl
ATOM     27  C   UNL     1       0.173  11.652  18.784  0.00  0.00    +0.000 A 
ATOM     28  N   UNL     1       1.088  10.673  18.555  0.00  0.00    +0.000 NA
ATOM     29  C   UNL     1       1.101   9.666  19.453  0.00  0.00    +0.000 A 
ENDBRANCH  18  20
ENDBRANCH   3  18
TORSDOF 3
ENDMDL
MODEL 3
REMARK VINA RESULT:      -8.3      2.692      3.842
REMARK  Name = 
REMARK  4 active torsions:
REMARK  status: ('A' for Active; 'I' for Inactive)
REMARK    1  A    between atoms: C_1  and  C_2
REMARK    2  A    between atoms: C_2  and  C_3
REMARK    3  A    between atoms: C_5  and  N_6
REMARK    4  A    between atoms: N_6  and  C_7
REMARK                            x       y       z     vdW  Elec       q    Type
REMARK                         _______ _______ _______ _____ _____    ______ ____
ROOT
ATOM      1  C   UNL     1       4.053   5.053  19.163  0.00  0.00    +0.000 A 
ATOM      2  C   UNL     1       3.127   6.059  19.529  0.00  0.00    +0.000 A 
ATOM      3  C   UNL     1       2.019   5.816  20.364  0.00  0.00    +0.000 A 
ATOM      4  C   UNL     1       1.857   4.521  20.859  0.00  0.00    +0.000 A 
ATOM      5  C   UNL     1       2.764   3.509  20.528  0.00  0.00    +0.000 A 
ATOM      6  C   UNL     1       3.844   3.780  19.694  0.00  0.00    +0.000 A 
ATOM      7  F   UNL     1       4.712   2.790  19.439  0.00  0.00    +0.000 F 
ENDROOT
BRANCH   1   9
ATOM      8  C   UNL     1       6.553   5.572  19.123  0.00  0.00    +0.000 C 
ATOM      9  C   UNL     1       5.273   5.369  18.281  0.00  0.00    +0.000 C 
ATOM     10  C   UNL     1       4.993   6.675  17.473  0.00  0.00    +0.000 C 
ATOM     11  O   UNL     1       5.747   6.778  16.262  0.00  0.00    +0.000 OA
ATOM     12  C   UNL     1       5.500   5.656  15.437  0.00  0.00    +0.000 C 
ATOM     13  C   UNL     1       5.725   4.336  16.157  0.00  0.00    +0.000 C 
ATOM     14  N   UNL     1       6.034   3.220  15.428  0.00  0.00    +0.000 N 
ATOM     15  N   UNL     1       5.592   4.191  17.432  0.00  0.00    +0.000 NA
ATOM     16  H   UNL     1       5.713   3.175  14.464  0.00  0.00    +0.000 HD
ATOM     17  H   UNL     1       5.932   2.360  15.951  0.00  0.00    +0.000 HD
ENDBRANCH   1   9
BRANCH   3  18
ATOM     18  N   UNL     1       1.179   6.871  20.695  0.00  0.00    +0.000 N 
ATOM     19  H   UNL     1       0.366   6.636  21.254  0.00  0.00    +0.000 HD
BRANCH  18  20
ATOM     20  C   UNL     1       1.647   8.246  20.862  0.00  0.00    +0.000 C 
ATOM     21  C   UNL     1       1.310   8.800  22.267  0.00  0.00    +0.000 C 
ATOM     22  C   UNL     1       0.282   9.935  22.141  0.00  0.00    +0.000 C 
ATOM     23  C   UNL     1       0.134  10.115  20.673  0.00  0.00    +0.000 A 
ATOM     24  C   UNL     1      -0.666  11.032  20.007  0.00  0.00    +0.000 A 
ATOM     25  C   UNL     1      -0.673  10.996  18.617  0.00  0.00    +0.000 A 
ATOM     26 CL   UNL     1      -1.668  12.076  17.726  0.00  0.00    +0.000 Cl
ATOM     27  C   UNL     1       0.126  10.060  17.966  0.00  0.00    +0.000 A 
ATOM     28  N   UNL     1       0.910   9.149  18.601  0.00  0.00    +0.000 NA
ATOM     29  C   UNL     1       0.886   9.199  19.949  0.00  0.00    +0.000 A 
ENDBRANCH  18  20
ENDBRANCH   3  18
TORSDOF 3
ENDMDL
MODEL 4
REMARK VINA RESULT:      -8.2      1.223      1.552
REMARK  Name = 
REMARK  4 active torsions:
REMARK  status: ('A' for Active; 'I' for Inactive)
REMARK    1  A    between atoms: C_1  and  C_2
REMARK    2  A    between atoms: C_2  and  C_3
REMARK    3  A    between atoms: C_5  and  N_6
REMARK    4  A    between atoms: N_6  and  C_7
REMARK                            x       y       z     vdW  Elec       q    Type
REMARK                         _______ _______ _______ _____ _____    ______ ____
ROOT
ATOM      1  C   UNL     1       3.224   5.617  18.706  0.00  0.00    +0.000 A 
ATOM      2  C   UNL     1       2.367   6.477  19.435  0.00  0.00    +0.000 A 
ATOM      3  C   UNL     1       2.150   7.823  19.084  0.00  0.00    +0.000 A 
ATOM      4  C   UNL     1       2.804   8.307  17.949  0.00  0.00    +0.000 A 
ATOM      5  C   UNL     1       3.645   7.478  17.199  0.00  0.00    +0.000 A 
ATOM      6  C   UNL     1       3.844   6.154  17.578  0.00  0.00    +0.000 A 
ATOM      7  F   UNL     1       4.624   5.385  16.804  0.00  0.00    +0.000 F 
ENDROOT
BRANCH   1   9
ATOM      8  C   UNL     1       4.895   3.748  19.188  0.00  0.00    +0.000 C 
ATOM      9  C   UNL     1       3.403   4.141  19.099  0.00  0.00    +0.000 C 
ATOM     10  C   UNL     1       2.711   3.242  18.027  0.00  0.00    +0.000 C 
ATOM     11  O   UNL     1       2.321   1.956  18.518  0.00  0.00    +0.000 OA
ATOM     12  C   UNL     1       1.462   2.100  19.632  0.00  0.00    +0.000 C 
ATOM     13  C   UNL     1       2.051   2.987  20.717  0.00  0.00    +0.000 C 
ATOM     14  N   UNL     1       1.633   2.827  22.011  0.00  0.00    +0.000 N 
ATOM     15  N   UNL     1       2.900   3.929  20.481  0.00  0.00    +0.000 NA
ATOM     16  H   UNL     1       0.700   2.456  22.170  0.00  0.00    +0.000 HD
ATOM     17  H   UNL     1       1.892   3.600  22.611  0.00  0.00    +0.000 HD
ENDBRANCH   1   9
BRANCH   3  18
ATOM     18  N   UNL     1       1.268   8.584  19.840  0.00  0.00    +0.000 N 
ATOM     19  H   UNL     1       1.107   8.268  20.791  0.00  0.00    +0.000 HD
BRANCH  18  20
ATOM     20  C   UNL     1       1.076  10.020  19.643  0.00  0.00    +0.000 C 
ATOM     21  C   UNL     1       0.873  10.762  20.986  0.00  0.00    +0.000 C 
ATOM     22  C   UNL     1      -0.558  11.318  21.056  0.00  0.00    +0.000 C 
ATOM     23  C   UNL     1      -1.122  11.011  19.716  0.00  0.00    +0.000 A 
ATOM     24  C   UNL     1      -2.387  11.316  19.237  0.00  0.00    +0.000 A 
ATOM     25  C   UNL     1      -2.712  10.898  17.951  0.00  0.00    +0.000 A 
ATOM     26 CL   UNL     1      -4.274  11.206  17.307  0.00  0.00    +0.000 Cl
ATOM     27  C   UNL     1      -1.756  10.211  17.207  0.00  0.00    +0.000 A 
ATOM     28  N   UNL     1      -0.514   9.896  17.661  0.00  0.00    +0.000 NA
ATOM     29  C   UNL     1      -0.232  10.304  18.917  0.00  0.00    +0.000 A 
ENDBRANCH  18  20
ENDBRANCH   3  18
TORSDOF 3
ENDMDL
MODEL 5
REMARK VINA RESULT:      -8.2      2.445      3.135
REMARK  Name = 
REMARK  4 active torsions:
REMARK  status: ('A' for Active; 'I' for Inactive)
REMARK    1  A    between atoms: C_1  and  C_2
REMARK    2  A    between atoms: C_2  and  C_3
REMARK    3  A    between atoms: C_5  and  N_6
REMARK    4  A    between atoms: N_6  and  C_7
REMARK                            x       y       z     vdW  Elec       q    Type
REMARK                         _______ _______ _______ _____ _____    ______ ____
ROOT
ATOM      1  C   UNL     1       3.736   4.689  17.783  0.00  0.00    +0.000 A 
ATOM      2  C   UNL     1       3.308   5.979  18.180  0.00  0.00    +0.000 A 
ATOM      3  C   UNL     1       3.782   7.164  17.585  0.00  0.00    +0.000 A 
ATOM      4  C   UNL     1       4.702   7.037  16.542  0.00  0.00    +0.000 A 
ATOM      5  C   UNL     1       5.132   5.776  16.116  0.00  0.00    +0.000 A 
ATOM      6  C   UNL     1       4.649   4.625  16.731  0.00  0.00    +0.000 A 
ATOM      7  F   UNL     1       5.057   3.437  16.260  0.00  0.00    +0.000 F 
ENDROOT
BRANCH   1   9
ATOM      8  C   UNL     1       2.502   2.489  17.389  0.00  0.00    +0.000 C 
ATOM      9  C   UNL     1       3.163   3.418  18.432  0.00  0.00    +0.000 C 
ATOM     10  C   UNL     1       2.089   3.827  19.489  0.00  0.00    +0.000 C 
ATOM     11  O   UNL     1       1.890   2.851  20.517  0.00  0.00    +0.000 OA
ATOM     12  C   UNL     1       3.113   2.579  21.173  0.00  0.00    +0.000 C 
ATOM     13  C   UNL     1       4.225   2.197  20.210  0.00  0.00    +0.000 C 
ATOM     14  N   UNL     1       5.266   1.431  20.660  0.00  0.00    +0.000 N 
ATOM     15  N   UNL     1       4.272   2.598  18.984  0.00  0.00    +0.000 NA
ATOM     16  H   UNL     1       5.504   1.480  21.647  0.00  0.00    +0.000 HD
ATOM     17  H   UNL     1       6.060   1.428  20.032  0.00  0.00    +0.000 HD
ENDBRANCH   1   9
BRANCH   3  18
ATOM     18  N   UNL     1       3.284   8.384  18.020  0.00  0.00    +0.000 N 
ATOM     19  H   UNL     1       3.874   9.192  17.853  0.00  0.00    +0.000 HD
BRANCH  18  20
ATOM     20  C   UNL     1       1.855   8.687  18.091  0.00  0.00    +0.000 C 
ATOM     21  C   UNL     1       1.544  10.112  17.575  0.00  0.00    +0.000 C 
ATOM     22  C   UNL     1       1.045  10.984  18.737  0.00  0.00    +0.000 C 
ATOM     23  C   UNL     1       0.949  10.034  19.876  0.00  0.00    +0.000 A 
ATOM     24  C   UNL     1       0.528  10.300  21.170  0.00  0.00    +0.000 A 
ATOM     25  C   UNL     1       0.552   9.255  22.087  0.00  0.00    +0.000 A 
ATOM     26 CL   UNL     1       0.081   9.519  23.717  0.00  0.00    +0.000 Cl
ATOM     27  C   UNL     1       0.981   7.999  21.663  0.00  0.00    +0.000 A 
ATOM     28  N   UNL     1       1.404   7.721  20.401  0.00  0.00    +0.000 NA
ATOM     29  C   UNL     1       1.381   8.758  19.537  0.00  0.00    +0.000 A 
ENDBRANCH  18  20
ENDBRANCH   3  18
TORSDOF 3
ENDMDL
MODEL 6
REMARK VINA RESULT:      -8.2      3.055      4.136
REMARK  Name = 
REMARK  4 active torsions:
REMARK  status: ('A' for Active; 'I' for Inactive)
REMARK    1  A    between atoms: C_1  and  C_2
REMARK    2  A    between atoms: C_2  and  C_3
REMARK    3  A    between atoms: C_5  and  N_6
REMARK    4  A    between atoms: N_6  and  C_7
REMARK                            x       y       z     vdW  Elec       q    Type
REMARK                         _______ _______ _______ _____ _____    ______ ____
ROOT
ATOM      1  C   UNL     1       3.639   5.253  18.944  0.00  0.00    +0.000 A 
ATOM      2  C   UNL     1       3.238   6.561  19.306  0.00  0.00    +0.000 A 
ATOM      3  C   UNL     1       2.153   6.823  20.165  0.00  0.00    +0.000 A 
ATOM      4  C   UNL     1       1.469   5.725  20.690  0.00  0.00    +0.000 A 
ATOM      5  C   UNL     1       1.851   4.419  20.364  0.00  0.00    +0.000 A 
ATOM      6  C   UNL     1       2.923   4.196  19.505  0.00  0.00    +0.000 A 
ATOM      7  F   UNL     1       3.280   2.928  19.256  0.00  0.00    +0.000 F 
ENDROOT
BRANCH   1   9
ATOM      8  C   UNL     1       4.472   4.212  16.766  0.00  0.00    +0.000 C 
ATOM      9  C   UNL     1       4.855   5.010  18.034  0.00  0.00    +0.000 C 
ATOM     10  C   UNL     1       5.930   4.203  18.827  0.00  0.00    +0.000 C 
ATOM     11  O   UNL     1       7.263   4.382  18.338  0.00  0.00    +0.000 OA
ATOM     12  C   UNL     1       7.605   5.754  18.349  0.00  0.00    +0.000 C 
ATOM     13  C   UNL     1       6.592   6.619  17.618  0.00  0.00    +0.000 C 
ATOM     14  N   UNL     1       6.990   7.819  17.094  0.00  0.00    +0.000 N 
ATOM     15  N   UNL     1       5.345   6.307  17.500  0.00  0.00    +0.000 NA
ATOM     16  H   UNL     1       7.776   8.294  17.530  0.00  0.00    +0.000 HD
ATOM     17  H   UNL     1       6.216   8.421  16.842  0.00  0.00    +0.000 HD
ENDBRANCH   1   9
BRANCH   3  18
ATOM     18  N   UNL     1       1.850   8.138  20.489  0.00  0.00    +0.000 N 
ATOM     19  H   UNL     1       2.625   8.709  20.809  0.00  0.00    +0.000 HD
BRANCH  18  20
ATOM     20  C   UNL     1       0.770   8.891  19.853  0.00  0.00    +0.000 C 
ATOM     21  C   UNL     1       1.292   9.775  18.695  0.00  0.00    +0.000 C 
ATOM     22  C   UNL     1       1.128  11.258  19.064  0.00  0.00    +0.000 C 
ATOM     23  C   UNL     1       0.402  11.221  20.360  0.00  0.00    +0.000 A 
ATOM     24  C   UNL     1      -0.019  12.296  21.128  0.00  0.00    +0.000 A 
ATOM     25  C   UNL     1      -0.656  12.022  22.333  0.00  0.00    +0.000 A 
ATOM     26 CL   UNL     1      -1.170  13.303  23.355  0.00  0.00    +0.000 Cl
ATOM     27  C   UNL     1      -0.853  10.693  22.701  0.00  0.00    +0.000 A 
ATOM     28  N   UNL     1      -0.442   9.626  21.965  0.00  0.00    +0.000 NA
ATOM     29  C   UNL     1       0.185   9.924  20.808  0.00  0.00    +0.000 A 
ENDBRANCH  18  20
ENDBRANCH   3  18
TORSDOF 3
ENDMDL
MODEL 7
REMARK VINA RESULT:      -8.2      2.591      3.579
REMARK  Name = 
REMARK  4 active torsions:
REMARK  status: ('A' for Active; 'I' for Inactive)
REMARK    1  A    between atoms: C_1  and  C_2
REMARK    2  A    between atoms: C_2  and  C_3
REMARK    3  A    between atoms: C_5  and  N_6
REMARK    4  A    between atoms: N_6  and  C_7
REMARK                            x       y       z     vdW  Elec       q    Type
REMARK                         _______ _______ _______ _____ _____    ______ ____
ROOT
ATOM      1  C   UNL     1       3.634   5.217  18.862  0.00  0.00    +0.000 A 
ATOM      2  C   UNL     1       2.762   6.199  19.391  0.00  0.00    +0.000 A 
ATOM      3  C   UNL     1       1.898   5.956  20.476  0.00  0.00    +0.000 A 
ATOM      4  C   UNL     1       1.935   4.687  21.057  0.00  0.00    +0.000 A 
ATOM      5  C   UNL     1       2.798   3.700  20.568  0.00  0.00    +0.000 A 
ATOM      6  C   UNL     1       3.633   3.970  19.489  0.00  0.00    +0.000 A 
ATOM      7  F   UNL     1       4.473   3.008  19.083  0.00  0.00    +0.000 F 
ENDROOT
BRANCH   1   9
ATOM      8  C   UNL     1       4.566   7.035  17.331  0.00  0.00    +0.000 C 
ATOM      9  C   UNL     1       4.591   5.535  17.701  0.00  0.00    +0.000 C 
ATOM     10  C   UNL     1       4.165   4.704  16.450  0.00  0.00    +0.000 C 
ATOM     11  O   UNL     1       5.230   4.470  15.523  0.00  0.00    +0.000 OA
ATOM     12  C   UNL     1       6.306   3.822  16.171  0.00  0.00    +0.000 C 
ATOM     13  C   UNL     1       6.768   4.554  17.420  0.00  0.00    +0.000 C 
ATOM     14  N   UNL     1       8.054   4.386  17.858  0.00  0.00    +0.000 N 
ATOM     15  N   UNL     1       5.993   5.300  18.133  0.00  0.00    +0.000 NA
ATOM     16  H   UNL     1       8.528   3.516  17.628  0.00  0.00    +0.000 HD
ATOM     17  H   UNL     1       8.199   4.712  18.805  0.00  0.00    +0.000 HD
ENDBRANCH   1   9
BRANCH   3  18
ATOM     18  N   UNL     1       1.098   6.989  20.946  0.00  0.00    +0.000 N 
ATOM     19  H   UNL     1       0.381   6.729  21.615  0.00  0.00    +0.000 HD
BRANCH  18  20
ATOM     20  C   UNL     1       1.563   8.370  21.069  0.00  0.00    +0.000 C 
ATOM     21  C   UNL     1       1.193   8.980  22.442  0.00  0.00    +0.000 C 
ATOM     22  C   UNL     1       0.169  10.109  22.246  0.00  0.00    +0.000 C 
ATOM     23  C   UNL     1       0.054  10.229  20.770  0.00  0.00    +0.000 A 
ATOM     24  C   UNL     1      -0.729  11.117  20.049  0.00  0.00    +0.000 A 
ATOM     25  C   UNL     1      -0.704  11.025  18.661  0.00  0.00    +0.000 A 
ATOM     26 CL   UNL     1      -1.678  12.068  17.705  0.00  0.00    +0.000 Cl
ATOM     27  C   UNL     1       0.110  10.064  18.067  0.00  0.00    +0.000 A 
ATOM     28  N   UNL     1       0.879   9.180  18.757  0.00  0.00    +0.000 NA
ATOM     29  C   UNL     1       0.824   9.285  20.101  0.00  0.00    +0.000 A 
ENDBRANCH  18  20
ENDBRANCH   3  18
TORSDOF 3
ENDMDL
MODEL 8
REMARK VINA RESULT:      -8.1      1.819      2.478
REMARK  Name = 
REMARK  4 active torsions:
REMARK  status: ('A' for Active; 'I' for Inactive)
REMARK    1  A    between atoms: C_1  and  C_2
REMARK    2  A    between atoms: C_2  and  C_3
REMARK    3  A    between atoms: C_5  and  N_6
REMARK    4  A    between atoms: N_6  and  C_7
REMARK                            x       y       z     vdW  Elec       q    Type
REMARK                         _______ _______ _______ _____ _____    ______ ____
ROOT
ATOM      1  C   UNL     1       2.476   5.543  18.817  0.00  0.00    +0.000 A 
ATOM      2  C   UNL     1       1.893   6.611  19.541  0.00  0.00    +0.000 A 
ATOM      3  C   UNL     1       2.111   7.965  19.221  0.00  0.00    +0.000 A 
ATOM      4  C   UNL     1       2.925   8.244  18.121  0.00  0.00    +0.000 A 
ATOM      5  C   UNL     1       3.502   7.211  17.376  0.00  0.00    +0.000 A 
ATOM      6  C   UNL     1       3.274   5.883  17.725  0.00  0.00    +0.000 A 
ATOM      7  F   UNL     1       3.812   4.925  16.956  0.00  0.00    +0.000 F 
ENDROOT
BRANCH   1   9
ATOM      8  C   UNL     1       1.372   3.367  18.066  0.00  0.00    +0.000 C 
ATOM      9  C   UNL     1       2.181   4.077  19.175  0.00  0.00    +0.000 C 
ATOM     10  C   UNL     1       1.357   4.033  20.501  0.00  0.00    +0.000 C 
ATOM     11  O   UNL     1       1.489   2.803  21.221  0.00  0.00    +0.000 OA
ATOM     12  C   UNL     1       2.851   2.551  21.508  0.00  0.00    +0.000 C 
ATOM     13  C   UNL     1       3.731   2.601  20.270  0.00  0.00    +0.000 C 
ATOM     14  N   UNL     1       4.910   1.906  20.258  0.00  0.00    +0.000 N 
ATOM     15  N   UNL     1       3.453   3.312  19.229  0.00  0.00    +0.000 NA
ATOM     16  H   UNL     1       5.369   1.728  21.148  0.00  0.00    +0.000 HD
ATOM     17  H   UNL     1       5.530   2.183  19.507  0.00  0.00    +0.000 HD
ENDBRANCH   1   9
BRANCH   3  18
ATOM     18  N   UNL     1       1.475   8.947  19.969  0.00  0.00    +0.000 N 
ATOM     19  H   UNL     1       2.069   9.679  20.342  0.00  0.00    +0.000 HD
BRANCH  18  20
ATOM     20  C   UNL     1       0.088   9.354  19.743  0.00  0.00    +0.000 C 
ATOM     21  C   UNL     1      -0.058  10.201  18.456  0.00  0.00    +0.000 C 
ATOM     22  C   UNL     1      -0.462  11.637  18.828  0.00  0.00    +0.000 C 
ATOM     23  C   UNL     1      -0.671  11.575  20.298  0.00  0.00    +0.000 A 
ATOM     24  C   UNL     1      -1.067  12.601  21.143  0.00  0.00    +0.000 A 
ATOM     25  C   UNL     1      -1.165  12.321  22.501  0.00  0.00    +0.000 A 
ATOM     26 CL   UNL     1      -1.612  13.552  23.612  0.00  0.00    +0.000 Cl
ATOM     27  C   UNL     1      -0.877  11.032  22.943  0.00  0.00    +0.000 A 
ATOM     28  N   UNL     1      -0.481  10.015  22.132  0.00  0.00    +0.000 NA
ATOM     29  C   UNL     1      -0.382  10.321  20.821  0.00  0.00    +0.000 A 
ENDBRANCH  18  20
ENDBRANCH   3  18
TORSDOF 3
ENDMDL
MODEL 9
REMARK VINA RESULT:      -8.1      1.272      1.626
REMARK  Name = 
REMARK  4 active torsions:
REMARK  status: ('A' for Active; 'I' for Inactive)
REMARK    1  A    between atoms: C_1  and  C_2
REMARK    2  A    between atoms: C_2  and  C_3
REMARK    3  A    between atoms: C_5  and  N_6
REMARK    4  A    between atoms: N_6  and  C_7
REMARK                            x       y       z     vdW  Elec       q    Type
REMARK                         _______ _______ _______ _____ _____    ______ ____
ROOT
ATOM      1  C   UNL     1       2.792   6.042  19.188  0.00  0.00    +0.000 A 
ATOM      2  C   UNL     1       2.022   7.055  19.808  0.00  0.00    +0.000 A 
ATOM      3  C   UNL     1       1.845   8.336  19.250  0.00  0.00    +0.000 A 
ATOM      4  C   UNL     1       2.446   8.589  18.016  0.00  0.00    +0.000 A 
ATOM      5  C   UNL     1       3.199   7.603  17.370  0.00  0.00    +0.000 A 
ATOM      6  C   UNL     1       3.363   6.351  17.953  0.00  0.00    +0.000 A 
ATOM      7  F   UNL     1       4.056   5.423  17.277  0.00  0.00    +0.000 F 
ENDROOT
BRANCH   1   9
ATOM      8  C   UNL     1       2.311   4.583  21.228  0.00  0.00    +0.000 C 
ATOM      9  C   UNL     1       2.929   4.643  19.812  0.00  0.00    +0.000 C 
ATOM     10  C   UNL     1       4.443   4.276  19.911  0.00  0.00    +0.000 C 
ATOM     11  O   UNL     1       4.695   2.868  19.938  0.00  0.00    +0.000 OA
ATOM     12  C   UNL     1       4.139   2.252  18.794  0.00  0.00    +0.000 C 
ATOM     13  C   UNL     1       2.666   2.580  18.607  0.00  0.00    +0.000 C 
ATOM     14  N   UNL     1       1.871   1.712  17.908  0.00  0.00    +0.000 N 
ATOM     15  N   UNL     1       2.121   3.669  19.034  0.00  0.00    +0.000 NA
ATOM     16  H   UNL     1       2.308   1.124  17.204  0.00  0.00    +0.000 HD
ATOM     17  H   UNL     1       0.985   2.116  17.634  0.00  0.00    +0.000 HD
ENDBRANCH   1   9
BRANCH   3  18
ATOM     18  N   UNL     1       1.048   9.258  19.915  0.00  0.00    +0.000 N 
ATOM     19  H   UNL     1       1.010   9.169  20.925  0.00  0.00    +0.000 HD
BRANCH  18  20
ATOM     20  C   UNL     1       0.808  10.613  19.422  0.00  0.00    +0.000 C 
ATOM     21  C   UNL     1       0.667  11.629  20.580  0.00  0.00    +0.000 C 
ATOM     22  C   UNL     1      -0.771  12.170  20.619  0.00  0.00    +0.000 C 
ATOM     23  C   UNL     1      -1.406  11.570  19.417  0.00  0.00    +0.000 A 
ATOM     24  C   UNL     1      -2.705  11.747  18.965  0.00  0.00    +0.000 A 
ATOM     25  C   UNL     1      -3.096  11.053  17.825  0.00  0.00    +0.000 A 
ATOM     26 CL   UNL     1      -4.701  11.194  17.231  0.00  0.00    +0.000 Cl
ATOM     27  C   UNL     1      -2.169  10.231  17.190  0.00  0.00    +0.000 A 
ATOM     28  N   UNL     1      -0.894  10.038  17.621  0.00  0.00    +0.000 NA
ATOM     29  C   UNL     1      -0.548  10.715  18.736  0.00  0.00    +0.000 A 
ENDBRANCH  18  20
ENDBRANCH   3  18
TORSDOF 3
ENDMDL
