MODEL 1
REMARK VINA RESULT:      -6.7      0.000      0.000
REMARK  Name = 
REMARK  22 active torsions:
REMARK  status: ('A' for Active; 'I' for Inactive)
REMARK    1  A    between atoms: C_1  and  C_2
REMARK    2  A    between atoms: C_2  and  C_3
REMARK    3  A    between atoms: C_3  and  C_4
REMARK    4  A    between atoms: C_4  and  C_5
REMARK    5  A    between atoms: C_5  and  C_6
REMARK    6  A    between atoms: C_6  and  C_7
REMARK    7  A    between atoms: C_7  and  N_8
REMARK    8  A    between atoms: C_7  and  C_16
REMARK    9  A    between atoms: C_9  and  O_11
REMARK   10  A    between atoms: O_11  and  C_12
REMARK   11  A    between atoms: C_12  and  C_13
REMARK   12  A    between atoms: C_12  and  C_14
REMARK   13  A    between atoms: C_12  and  C_15
REMARK   14  A    between atoms: N_18  and  C_19
REMARK   15  A    between atoms: N_18  and  O_25
REMARK   16  A    between atoms: C_19  and  C_20
REMARK   17  A    between atoms: C_20  and  N_21
REMARK   18  A    between atoms: N_21  and  C_22
REMARK   19  A    between atoms: N_21  and  C_23
REMARK   20  A    between atoms: N_21  and  C_24
REMARK   21  A    between atoms: O_25  and  C_26
REMARK   22  A    between atoms: C_26  and  C_27
REMARK                            x       y       z     vdW  Elec       q    Type
REMARK                         _______ _______ _______ _____ _____    ______ ____
ROOT
ATOM      1  C   UNL     1       5.931   5.387  18.740  0.00  0.00    +0.000 C 
ATOM      2  O   UNL     1       6.646   4.418  19.008  0.00  0.00    +0.000 OA
ATOM      3  N   UNL     1       4.625   5.415  19.196  0.00  0.00    +0.000 N 
ENDROOT
BRANCH   1   4
ATOM      4  C   UNL     1       6.435   6.613  17.896  0.00  0.00    +0.000 C 
BRANCH   4   5
ATOM      5  N   UNL     1       6.396   6.380  16.455  0.00  0.00    +0.000 N 
ATOM      6  C   UNL     1       5.270   6.553  15.698  0.00  0.00    +0.000 C 
ATOM      7  O   UNL     1       4.270   7.121  16.077  0.00  0.00    +0.000 OA
ATOM      8  H   UNL     1       7.177   5.938  15.987  0.00  0.00    +0.000 HD
BRANCH   6   9
ATOM      9  O   UNL     1       5.425   5.944  14.491  0.00  0.00    +0.000 OA
BRANCH   9  10
ATOM     10  C   UNL     1       5.705   4.513  14.468  0.00  0.00    +0.000 C 
ATOM     11  C   UNL     1       5.281   3.864  13.144  0.00  0.00    +0.000 C 
ATOM     12  C   UNL     1       7.229   4.346  14.613  0.00  0.00    +0.000 C 
ATOM     13  C   UNL     1       5.033   3.813  15.661  0.00  0.00    +0.000 C 
ENDBRANCH   9  10
ENDBRANCH   6   9
ENDBRANCH   4   5
BRANCH   4  14
ATOM     14  C   UNL     1       7.725   7.250  18.454  0.00  0.00    +0.000 C 
BRANCH  14  15
ATOM     15  C   UNL     1       8.288   8.370  17.554  0.00  0.00    +0.000 C 
BRANCH  15  16
ATOM     16  C   UNL     1       8.228   9.769  18.184  0.00  0.00    +0.000 C 
BRANCH  16  17
ATOM     17  C   UNL     1       9.223   9.891  19.337  0.00  0.00    +0.000 C 
BRANCH  17  19
ATOM     18  C   UNL     1      10.451  11.478  17.831  0.00  0.00    +0.000 C 
ATOM     19  C   UNL     1      10.020  11.193  19.259  0.00  0.00    +0.000 C 
ENDBRANCH  17  19
ENDBRANCH  16  17
ENDBRANCH  15  16
ENDBRANCH  14  15
ENDBRANCH   4  14
ENDBRANCH   1   4
BRANCH   3  20
ATOM     20  C   UNL     1       3.959   4.421  20.074  0.00  0.00    +0.000 C 
BRANCH  20  21
ATOM     21  C   UNL     1       3.397   3.166  19.353  0.00  0.00    +0.000 C 
BRANCH  21  22
ATOM     22  N   UNL     1       1.840   3.165  19.089  0.00  0.00    +0.000 N 
ATOM     23  C   UNL     1       1.045   3.637  20.300  0.00  0.00    +0.000 C 
ATOM     24  C   UNL     1       1.465   4.006  17.872  0.00  0.00    +0.000 C 
ATOM     25  C   UNL     1       1.420   1.715  18.795  0.00  0.00    +0.000 C 
ENDBRANCH  21  22
ENDBRANCH  20  21
ENDBRANCH   3  20
BRANCH   3  26
ATOM     26  O   UNL     1       3.758   6.445  18.767  0.00  0.00    +0.000 OA
BRANCH  26  27
ATOM     27  C   UNL     1       2.699   6.671  19.727  0.00  0.00    +0.000 C 
BRANCH  27  28
ATOM     28  C   UNL     1       2.005   7.974  19.436  0.00  0.00    +0.000 A 
ATOM     29  C   UNL     1       1.991   8.546  18.153  0.00  0.00    +0.000 A 
ATOM     30  C   UNL     1       1.322   9.746  17.915  0.00  0.00    +0.000 A 
ATOM     31  C   UNL     1       0.647  10.381  18.955  0.00  0.00    +0.000 A 
ATOM     32  C   UNL     1       0.623   9.806  20.223  0.00  0.00    +0.000 A 
ATOM     33  C   UNL     1       1.286   8.602  20.460  0.00  0.00    +0.000 A 
ENDBRANCH  27  28
ENDBRANCH  26  27
ENDBRANCH   3  26
TORSDOF 15
ENDMDL
MODEL 2
REMARK VINA RESULT:      -6.7      3.428      7.929
REMARK  Name = 
REMARK  22 active torsions:
REMARK  status: ('A' for Active; 'I' for Inactive)
REMARK    1  A    between atoms: C_1  and  C_2
REMARK    2  A    between atoms: C_2  and  C_3
REMARK    3  A    between atoms: C_3  and  C_4
REMARK    4  A    between atoms: C_4  and  C_5
REMARK    5  A    between atoms: C_5  and  C_6
REMARK    6  A    between atoms: C_6  and  C_7
REMARK    7  A    between atoms: C_7  and  N_8
REMARK    8  A    between atoms: C_7  and  C_16
REMARK    9  A    between atoms: C_9  and  O_11
REMARK   10  A    between atoms: O_11  and  C_12
REMARK   11  A    between atoms: C_12  and  C_13
REMARK   12  A    between atoms: C_12  and  C_14
REMARK   13  A    between atoms: C_12  and  C_15
REMARK   14  A    between atoms: N_18  and  C_19
REMARK   15  A    between atoms: N_18  and  O_25
REMARK   16  A    between atoms: C_19  and  C_20
REMARK   17  A    between atoms: C_20  and  N_21
REMARK   18  A    between atoms: N_21  and  C_22
REMARK   19  A    between atoms: N_21  and  C_23
REMARK   20  A    between atoms: N_21  and  C_24
REMARK   21  A    between atoms: O_25  and  C_26
REMARK   22  A    between atoms: C_26  and  C_27
REMARK                            x       y       z     vdW  Elec       q    Type
REMARK                         _______ _______ _______ _____ _____    ______ ____
ROOT
ATOM      1  C   UNL     1       2.013   9.302  18.054  0.00  0.00    +0.000 C 
ATOM      2  O   UNL     1       2.641  10.030  17.283  0.00  0.00    +0.000 OA
ATOM      3  N   UNL     1       2.533   8.067  18.401  0.00  0.00    +0.000 N 
ENDROOT
BRANCH   1   4
ATOM      4  C   UNL     1       0.630   9.710  18.678  0.00  0.00    +0.000 C 
BRANCH   4   5
ATOM      5  N   UNL     1      -0.175  10.556  17.801  0.00  0.00    +0.000 N 
ATOM      6  C   UNL     1      -1.344  11.147  18.195  0.00  0.00    +0.000 C 
ATOM      7  O   UNL     1      -1.718  11.226  19.344  0.00  0.00    +0.000 OA
ATOM      8  H   UNL     1       0.037  10.616  16.813  0.00  0.00    +0.000 HD
BRANCH   6   9
ATOM      9  O   UNL     1      -2.040  11.571  17.105  0.00  0.00    +0.000 OA
BRANCH   9  10
ATOM     10  C   UNL     1      -3.152  10.755  16.632  0.00  0.00    +0.000 C 
ATOM     11  C   UNL     1      -2.923  10.244  15.203  0.00  0.00    +0.000 C 
ATOM     12  C   UNL     1      -3.250   9.535  17.564  0.00  0.00    +0.000 C 
ATOM     13  C   UNL     1      -4.472  11.537  16.729  0.00  0.00    +0.000 C 
ENDBRANCH   9  10
ENDBRANCH   6   9
ENDBRANCH   4   5
BRANCH   4  14
ATOM     14  C   UNL     1       0.731  10.151  20.153  0.00  0.00    +0.000 C 
BRANCH  14  15
ATOM     15  C   UNL     1       0.204   9.090  21.143  0.00  0.00    +0.000 C 
BRANCH  15  16
ATOM     16  C   UNL     1       0.413   9.453  22.620  0.00  0.00    +0.000 C 
BRANCH  16  17
ATOM     17  C   UNL     1      -0.865  10.033  23.225  0.00  0.00    +0.000 C 
BRANCH  17  19
ATOM     18  C   UNL     1      -2.446  11.981  23.142  0.00  0.00    +0.000 C 
ATOM     19  C   UNL     1      -1.017  11.520  22.906  0.00  0.00    +0.000 C 
ENDBRANCH  17  19
ENDBRANCH  16  17
ENDBRANCH  15  16
ENDBRANCH  14  15
ENDBRANCH   4  14
ENDBRANCH   1   4
BRANCH   3  20
ATOM     20  C   UNL     1       3.850   7.506  18.008  0.00  0.00    +0.000 C 
BRANCH  20  21
ATOM     21  C   UNL     1       3.821   6.509  16.819  0.00  0.00    +0.000 C 
BRANCH  21  22
ATOM     22  N   UNL     1       5.084   5.571  16.677  0.00  0.00    +0.000 N 
ATOM     23  C   UNL     1       5.683   5.609  15.277  0.00  0.00    +0.000 C 
ATOM     24  C   UNL     1       6.162   5.905  17.704  0.00  0.00    +0.000 C 
ATOM     25  C   UNL     1       4.623   4.128  16.945  0.00  0.00    +0.000 C 
ENDBRANCH  21  22
ENDBRANCH  20  21
ENDBRANCH   3  20
BRANCH   3  26
ATOM     26  O   UNL     1       1.752   7.168  19.160  0.00  0.00    +0.000 OA
BRANCH  26  27
ATOM     27  C   UNL     1       2.583   6.334  20.000  0.00  0.00    +0.000 C 
BRANCH  27  28
ATOM     28  C   UNL     1       2.064   4.921  20.003  0.00  0.00    +0.000 A 
ATOM     29  C   UNL     1       1.937   4.171  21.184  0.00  0.00    +0.000 A 
ATOM     30  C   UNL     1       1.435   2.871  21.152  0.00  0.00    +0.000 A 
ATOM     31  C   UNL     1       1.039   2.311  19.940  0.00  0.00    +0.000 A 
ATOM     32  C   UNL     1       1.124   3.057  18.767  0.00  0.00    +0.000 A 
ATOM     33  C   UNL     1       1.621   4.360  18.800  0.00  0.00    +0.000 A 
ENDBRANCH  27  28
ENDBRANCH  26  27
ENDBRANCH   3  26
TORSDOF 15
ENDMDL
MODEL 3
REMARK VINA RESULT:      -6.5      0.977      1.451
REMARK  Name = 
REMARK  22 active torsions:
REMARK  status: ('A' for Active; 'I' for Inactive)
REMARK    1  A    between atoms: C_1  and  C_2
REMARK    2  A    between atoms: C_2  and  C_3
REMARK    3  A    between atoms: C_3  and  C_4
REMARK    4  A    between atoms: C_4  and  C_5
REMARK    5  A    between atoms: C_5  and  C_6
REMARK    6  A    between atoms: C_6  and  C_7
REMARK    7  A    between atoms: C_7  and  N_8
REMARK    8  A    between atoms: C_7  and  C_16
REMARK    9  A    between atoms: C_9  and  O_11
REMARK   10  A    between atoms: O_11  and  C_12
REMARK   11  A    between atoms: C_12  and  C_13
REMARK   12  A    between atoms: C_12  and  C_14
REMARK   13  A    between atoms: C_12  and  C_15
REMARK   14  A    between atoms: N_18  and  C_19
REMARK   15  A    between atoms: N_18  and  O_25
REMARK   16  A    between atoms: C_19  and  C_20
REMARK   17  A    between atoms: C_20  and  N_21
REMARK   18  A    between atoms: N_21  and  C_22
REMARK   19  A    between atoms: N_21  and  C_23
REMARK   20  A    between atoms: N_21  and  C_24
REMARK   21  A    between atoms: O_25  and  C_26
REMARK   22  A    between atoms: C_26  and  C_27
REMARK                            x       y       z     vdW  Elec       q    Type
REMARK                         _______ _______ _______ _____ _____    ______ ____
ROOT
ATOM      1  C   UNL     1       5.483   5.537  18.759  0.00  0.00    +0.000 C 
ATOM      2  O   UNL     1       6.118   4.825  19.540  0.00  0.00    +0.000 OA
ATOM      3  N   UNL     1       4.118   5.686  18.930  0.00  0.00    +0.000 N 
ENDROOT
BRANCH   1   4
ATOM      4  C   UNL     1       6.154   6.299  17.560  0.00  0.00    +0.000 C 
BRANCH   4   5
ATOM      5  N   UNL     1       6.005   5.613  16.279  0.00  0.00    +0.000 N 
ATOM      6  C   UNL     1       5.335   6.149  15.215  0.00  0.00    +0.000 C 
ATOM      7  O   UNL     1       4.996   7.309  15.132  0.00  0.00    +0.000 OA
ATOM      8  H   UNL     1       6.275   4.642  16.186  0.00  0.00    +0.000 HD
BRANCH   6   9
ATOM      9  O   UNL     1       5.057   5.177  14.304  0.00  0.00    +0.000 OA
BRANCH   9  10
ATOM     10  C   UNL     1       6.107   4.221  13.970  0.00  0.00    +0.000 C 
ATOM     11  C   UNL     1       6.336   3.201  15.093  0.00  0.00    +0.000 C 
ATOM     12  C   UNL     1       5.641   3.454  12.719  0.00  0.00    +0.000 C 
ATOM     13  C   UNL     1       7.412   4.955  13.621  0.00  0.00    +0.000 C 
ENDBRANCH   9  10
ENDBRANCH   6   9
ENDBRANCH   4   5
BRANCH   4  14
ATOM     14  C   UNL     1       7.562   6.838  17.890  0.00  0.00    +0.000 C 
BRANCH  14  15
ATOM     15  C   UNL     1       7.705   8.356  17.645  0.00  0.00    +0.000 C 
BRANCH  15  16
ATOM     16  C   UNL     1       8.655   9.060  18.624  0.00  0.00    +0.000 C 
BRANCH  16  17
ATOM     17  C   UNL     1       8.965  10.482  18.157  0.00  0.00    +0.000 C 
BRANCH  17  19
ATOM     18  C   UNL     1       9.777  11.310  20.382  0.00  0.00    +0.000 C 
ATOM     19  C   UNL     1      10.141  11.084  18.924  0.00  0.00    +0.000 C 
ENDBRANCH  17  19
ENDBRANCH  16  17
ENDBRANCH  15  16
ENDBRANCH  14  15
ENDBRANCH   4  14
ENDBRANCH   1   4
BRANCH   3  20
ATOM     20  C   UNL     1       3.286   5.137  20.030  0.00  0.00    +0.000 C 
BRANCH  20  21
ATOM     21  C   UNL     1       1.913   4.555  19.600  0.00  0.00    +0.000 C 
BRANCH  21  22
ATOM     22  N   UNL     1       1.704   3.013  19.876  0.00  0.00    +0.000 N 
ATOM     23  C   UNL     1       1.346   2.726  21.328  0.00  0.00    +0.000 C 
ATOM     24  C   UNL     1       0.646   2.407  18.958  0.00  0.00    +0.000 C 
ATOM     25  C   UNL     1       3.035   2.303  19.577  0.00  0.00    +0.000 C 
ENDBRANCH  21  22
ENDBRANCH  20  21
ENDBRANCH   3  20
BRANCH   3  26
ATOM     26  O   UNL     1       3.363   6.374  17.954  0.00  0.00    +0.000 OA
BRANCH  26  27
ATOM     27  C   UNL     1       3.561   7.804  18.053  0.00  0.00    +0.000 C 
BRANCH  27  28
ATOM     28  C   UNL     1       2.307   8.468  18.555  0.00  0.00    +0.000 A 
ATOM     29  C   UNL     1       1.471   9.224  17.717  0.00  0.00    +0.000 A 
ATOM     30  C   UNL     1       0.307   9.809  18.212  0.00  0.00    +0.000 A 
ATOM     31  C   UNL     1      -0.042   9.633  19.549  0.00  0.00    +0.000 A 
ATOM     32  C   UNL     1       0.758   8.855  20.381  0.00  0.00    +0.000 A 
ATOM     33  C   UNL     1       1.919   8.264  19.885  0.00  0.00    +0.000 A 
ENDBRANCH  27  28
ENDBRANCH  26  27
ENDBRANCH   3  26
TORSDOF 15
ENDMDL
MODEL 4
REMARK VINA RESULT:      -6.5      1.399      2.413
REMARK  Name = 
REMARK  22 active torsions:
REMARK  status: ('A' for Active; 'I' for Inactive)
REMARK    1  A    between atoms: C_1  and  C_2
REMARK    2  A    between atoms: C_2  and  C_3
REMARK    3  A    between atoms: C_3  and  C_4
REMARK    4  A    between atoms: C_4  and  C_5
REMARK    5  A    between atoms: C_5  and  C_6
REMARK    6  A    between atoms: C_6  and  C_7
REMARK    7  A    between atoms: C_7  and  N_8
REMARK    8  A    between atoms: C_7  and  C_16
REMARK    9  A    between atoms: C_9  and  O_11
REMARK   10  A    between atoms: O_11  and  C_12
REMARK   11  A    between atoms: C_12  and  C_13
REMARK   12  A    between atoms: C_12  and  C_14
REMARK   13  A    between atoms: C_12  and  C_15
REMARK   14  A    between atoms: N_18  and  C_19
REMARK   15  A    between atoms: N_18  and  O_25
REMARK   16  A    between atoms: C_19  and  C_20
REMARK   17  A    between atoms: C_20  and  N_21
REMARK   18  A    between atoms: N_21  and  C_22
REMARK   19  A    between atoms: N_21  and  C_23
REMARK   20  A    between atoms: N_21  and  C_24
REMARK   21  A    between atoms: O_25  and  C_26
REMARK   22  A    between atoms: C_26  and  C_27
REMARK                            x       y       z     vdW  Elec       q    Type
REMARK                         _______ _______ _______ _____ _____    ______ ____
ROOT
ATOM      1  C   UNL     1       5.184   4.721  17.978  0.00  0.00    +0.000 C 
ATOM      2  O   UNL     1       5.923   3.959  18.604  0.00  0.00    +0.000 OA
ATOM      3  N   UNL     1       4.040   5.210  18.584  0.00  0.00    +0.000 N 
ENDROOT
BRANCH   1   4
ATOM      4  C   UNL     1       5.478   5.177  16.503  0.00  0.00    +0.000 C 
BRANCH   4   5
ATOM      5  N   UNL     1       5.866   4.079  15.622  0.00  0.00    +0.000 N 
ATOM      6  C   UNL     1       6.458   4.268  14.405  0.00  0.00    +0.000 C 
ATOM      7  O   UNL     1       6.926   5.319  14.026  0.00  0.00    +0.000 OA
ATOM      8  H   UNL     1       5.573   3.132  15.827  0.00  0.00    +0.000 HD
BRANCH   6   9
ATOM      9  O   UNL     1       6.387   3.124  13.672  0.00  0.00    +0.000 OA
BRANCH   9  10
ATOM     10  C   UNL     1       6.110   3.231  12.244  0.00  0.00    +0.000 C 
ATOM     11  C   UNL     1       4.673   3.693  11.969  0.00  0.00    +0.000 C 
ATOM     12  C   UNL     1       7.068   4.292  11.673  0.00  0.00    +0.000 C 
ATOM     13  C   UNL     1       6.401   1.897  11.537  0.00  0.00    +0.000 C 
ENDBRANCH   9  10
ENDBRANCH   6   9
ENDBRANCH   4   5
BRANCH   4  14
ATOM     14  C   UNL     1       6.333   6.459  16.419  0.00  0.00    +0.000 C 
BRANCH  14  15
ATOM     15  C   UNL     1       7.674   6.346  17.175  0.00  0.00    +0.000 C 
BRANCH  15  16
ATOM     16  C   UNL     1       7.874   7.416  18.258  0.00  0.00    +0.000 C 
BRANCH  16  17
ATOM     17  C   UNL     1       7.505   8.802  17.731  0.00  0.00    +0.000 C 
BRANCH  17  19
ATOM     18  C   UNL     1       9.134   9.942  19.262  0.00  0.00    +0.000 C 
ATOM     19  C   UNL     1       8.682   9.772  17.821  0.00  0.00    +0.000 C 
ENDBRANCH  17  19
ENDBRANCH  16  17
ENDBRANCH  15  16
ENDBRANCH  14  15
ENDBRANCH   4  14
ENDBRANCH   1   4
BRANCH   3  20
ATOM     20  C   UNL     1       3.602   4.989  19.985  0.00  0.00    +0.000 C 
BRANCH  20  21
ATOM     21  C   UNL     1       3.240   3.523  20.346  0.00  0.00    +0.000 C 
BRANCH  21  22
ATOM     22  N   UNL     1       1.697   3.192  20.411  0.00  0.00    +0.000 N 
ATOM     23  C   UNL     1       1.227   2.374  19.215  0.00  0.00    +0.000 C 
ATOM     24  C   UNL     1       1.321   2.473  21.703  0.00  0.00    +0.000 C 
ATOM     25  C   UNL     1       0.935   4.528  20.387  0.00  0.00    +0.000 C 
ENDBRANCH  21  22
ENDBRANCH  20  21
ENDBRANCH   3  20
BRANCH   3  26
ATOM     26  O   UNL     1       3.113   5.959  17.825  0.00  0.00    +0.000 OA
BRANCH  26  27
ATOM     27  C   UNL     1       3.442   7.368  17.841  0.00  0.00    +0.000 C 
BRANCH  27  28
ATOM     28  C   UNL     1       2.348   8.148  18.520  0.00  0.00    +0.000 A 
ATOM     29  C   UNL     1       2.040   7.978  19.880  0.00  0.00    +0.000 A 
ATOM     30  C   UNL     1       1.032   8.731  20.480  0.00  0.00    +0.000 A 
ATOM     31  C   UNL     1       0.331   9.673  19.732  0.00  0.00    +0.000 A 
ATOM     32  C   UNL     1       0.652   9.878  18.392  0.00  0.00    +0.000 A 
ATOM     33  C   UNL     1       1.665   9.130  17.792  0.00  0.00    +0.000 A 
ENDBRANCH  27  28
ENDBRANCH  26  27
ENDBRANCH   3  26
TORSDOF 15
ENDMDL
MODEL 5
REMARK VINA RESULT:      -6.5      2.632      5.402
REMARK  Name = 
REMARK  22 active torsions:
REMARK  status: ('A' for Active; 'I' for Inactive)
REMARK    1  A    between atoms: C_1  and  C_2
REMARK    2  A    between atoms: C_2  and  C_3
REMARK    3  A    between atoms: C_3  and  C_4
REMARK    4  A    between atoms: C_4  and  C_5
REMARK    5  A    between atoms: C_5  and  C_6
REMARK    6  A    between atoms: C_6  and  C_7
REMARK    7  A    between atoms: C_7  and  N_8
REMARK    8  A    between atoms: C_7  and  C_16
REMARK    9  A    between atoms: C_9  and  O_11
REMARK   10  A    between atoms: O_11  and  C_12
REMARK   11  A    between atoms: C_12  and  C_13
REMARK   12  A    between atoms: C_12  and  C_14
REMARK   13  A    between atoms: C_12  and  C_15
REMARK   14  A    between atoms: N_18  and  C_19
REMARK   15  A    between atoms: N_18  and  O_25
REMARK   16  A    between atoms: C_19  and  C_20
REMARK   17  A    between atoms: C_20  and  N_21
REMARK   18  A    between atoms: N_21  and  C_22
REMARK   19  A    between atoms: N_21  and  C_23
REMARK   20  A    between atoms: N_21  and  C_24
REMARK   21  A    between atoms: O_25  and  C_26
REMARK   22  A    between atoms: C_26  and  C_27
REMARK                            x       y       z     vdW  Elec       q    Type
REMARK                         _______ _______ _______ _____ _____    ______ ____
ROOT
ATOM      1  C   UNL     1       2.304   6.496  18.373  0.00  0.00    +0.000 C 
ATOM      2  O   UNL     1       2.065   5.415  17.830  0.00  0.00    +0.000 OA
ATOM      3  N   UNL     1       1.969   6.677  19.704  0.00  0.00    +0.000 N 
ENDROOT
BRANCH   1   4
ATOM      4  C   UNL     1       2.984   7.698  17.623  0.00  0.00    +0.000 C 
BRANCH   4   5
ATOM      5  N   UNL     1       4.440   7.702  17.733  0.00  0.00    +0.000 N 
ATOM      6  C   UNL     1       5.252   6.906  16.973  0.00  0.00    +0.000 C 
ATOM      7  O   UNL     1       4.889   6.294  15.994  0.00  0.00    +0.000 OA
ATOM      8  H   UNL     1       4.893   8.200  18.489  0.00  0.00    +0.000 HD
BRANCH   6   9
ATOM      9  O   UNL     1       6.498   6.862  17.517  0.00  0.00    +0.000 OA
BRANCH   9  10
ATOM     10  C   UNL     1       6.877   5.682  18.287  0.00  0.00    +0.000 C 
ATOM     11  C   UNL     1       5.692   5.099  19.067  0.00  0.00    +0.000 C 
ATOM     12  C   UNL     1       7.355   4.618  17.282  0.00  0.00    +0.000 C 
ATOM     13  C   UNL     1       8.047   6.008  19.229  0.00  0.00    +0.000 C 
ENDBRANCH   9  10
ENDBRANCH   6   9
ENDBRANCH   4   5
BRANCH   4  14
ATOM     14  C   UNL     1       2.273   9.047  17.861  0.00  0.00    +0.000 C 
BRANCH  14  15
ATOM     15  C   UNL     1       0.766   9.006  17.533  0.00  0.00    +0.000 C 
BRANCH  15  16
ATOM     16  C   UNL     1       0.013  10.295  17.891  0.00  0.00    +0.000 C 
BRANCH  16  17
ATOM     17  C   UNL     1      -1.475  10.018  18.102  0.00  0.00    +0.000 C 
BRANCH  17  19
ATOM     18  C   UNL     1      -3.676  10.420  16.965  0.00  0.00    +0.000 C 
ATOM     19  C   UNL     1      -2.235   9.974  16.777  0.00  0.00    +0.000 C 
ENDBRANCH  17  19
ENDBRANCH  16  17
ENDBRANCH  15  16
ENDBRANCH  14  15
ENDBRANCH   4  14
ENDBRANCH   1   4
BRANCH   3  20
ATOM     20  C   UNL     1       1.402   5.667  20.632  0.00  0.00    +0.000 C 
BRANCH  20  21
ATOM     21  C   UNL     1       2.391   4.571  21.109  0.00  0.00    +0.000 C 
BRANCH  21  22
ATOM     22  N   UNL     1       2.041   3.093  20.675  0.00  0.00    +0.000 N 
ATOM     23  C   UNL     1       3.118   2.475  19.793  0.00  0.00    +0.000 C 
ATOM     24  C   UNL     1       1.783   2.190  21.878  0.00  0.00    +0.000 C 
ATOM     25  C   UNL     1       0.742   3.146  19.852  0.00  0.00    +0.000 C 
ENDBRANCH  21  22
ENDBRANCH  20  21
ENDBRANCH   3  20
BRANCH   3  26
ATOM     26  O   UNL     1       2.101   7.956  20.288  0.00  0.00    +0.000 OA
BRANCH  26  27
ATOM     27  C   UNL     1       1.538   7.982  21.621  0.00  0.00    +0.000 C 
BRANCH  27  28
ATOM     28  C   UNL     1       0.793   9.271  21.845  0.00  0.00    +0.000 A 
ATOM     29  C   UNL     1       1.032  10.419  21.071  0.00  0.00    +0.000 A 
ATOM     30  C   UNL     1       0.311  11.590  21.294  0.00  0.00    +0.000 A 
ATOM     31  C   UNL     1      -0.669  11.623  22.283  0.00  0.00    +0.000 A 
ATOM     32  C   UNL     1      -0.942  10.481  23.032  0.00  0.00    +0.000 A 
ATOM     33  C   UNL     1      -0.225   9.307  22.805  0.00  0.00    +0.000 A 
ENDBRANCH  27  28
ENDBRANCH  26  27
ENDBRANCH   3  26
TORSDOF 15
ENDMDL
MODEL 6
REMARK VINA RESULT:      -6.5      1.185      1.879
REMARK  Name = 
REMARK  22 active torsions:
REMARK  status: ('A' for Active; 'I' for Inactive)
REMARK    1  A    between atoms: C_1  and  C_2
REMARK    2  A    between atoms: C_2  and  C_3
REMARK    3  A    between atoms: C_3  and  C_4
REMARK    4  A    between atoms: C_4  and  C_5
REMARK    5  A    between atoms: C_5  and  C_6
REMARK    6  A    between atoms: C_6  and  C_7
REMARK    7  A    between atoms: C_7  and  N_8
REMARK    8  A    between atoms: C_7  and  C_16
REMARK    9  A    between atoms: C_9  and  O_11
REMARK   10  A    between atoms: O_11  and  C_12
REMARK   11  A    between atoms: C_12  and  C_13
REMARK   12  A    between atoms: C_12  and  C_14
REMARK   13  A    between atoms: C_12  and  C_15
REMARK   14  A    between atoms: N_18  and  C_19
REMARK   15  A    between atoms: N_18  and  O_25
REMARK   16  A    between atoms: C_19  and  C_20
REMARK   17  A    between atoms: C_20  and  N_21
REMARK   18  A    between atoms: N_21  and  C_22
REMARK   19  A    between atoms: N_21  and  C_23
REMARK   20  A    between atoms: N_21  and  C_24
REMARK   21  A    between atoms: O_25  and  C_26
REMARK   22  A    between atoms: C_26  and  C_27
REMARK                            x       y       z     vdW  Elec       q    Type
REMARK                         _______ _______ _______ _____ _____    ______ ____
ROOT
ATOM      1  C   UNL     1       5.590   4.866  18.422  0.00  0.00    +0.000 C 
ATOM      2  O   UNL     1       5.892   3.789  18.940  0.00  0.00    +0.000 OA
ATOM      3  N   UNL     1       4.419   5.499  18.799  0.00  0.00    +0.000 N 
ENDROOT
BRANCH   1   4
ATOM      4  C   UNL     1       6.483   5.571  17.338  0.00  0.00    +0.000 C 
BRANCH   4   5
ATOM      5  N   UNL     1       6.792   4.717  16.195  0.00  0.00    +0.000 N 
ATOM      6  C   UNL     1       6.178   4.838  14.980  0.00  0.00    +0.000 C 
ATOM      7  O   UNL     1       5.495   5.783  14.648  0.00  0.00    +0.000 OA
ATOM      8  H   UNL     1       7.380   3.900  16.312  0.00  0.00    +0.000 HD
BRANCH   6   9
ATOM      9  O   UNL     1       6.398   3.722  14.234  0.00  0.00    +0.000 OA
BRANCH   9  10
ATOM     10  C   UNL     1       6.325   3.832  12.781  0.00  0.00    +0.000 C 
ATOM     11  C   UNL     1       7.231   4.948  12.243  0.00  0.00    +0.000 C 
ATOM     12  C   UNL     1       6.818   2.496  12.198  0.00  0.00    +0.000 C 
ATOM     13  C   UNL     1       4.870   4.042  12.331  0.00  0.00    +0.000 C 
ENDBRANCH   9  10
ENDBRANCH   6   9
ENDBRANCH   4   5
BRANCH   4  14
ATOM     14  C   UNL     1       7.661   6.366  17.939  0.00  0.00    +0.000 C 
BRANCH  14  15
ATOM     15  C   UNL     1       7.648   7.860  17.552  0.00  0.00    +0.000 C 
BRANCH  15  16
ATOM     16  C   UNL     1       8.531   8.745  18.442  0.00  0.00    +0.000 C 
BRANCH  16  17
ATOM     17  C   UNL     1       8.578  10.178  17.913  0.00  0.00    +0.000 C 
BRANCH  17  19
ATOM     18  C   UNL     1      10.184  12.102  17.787  0.00  0.00    +0.000 C 
ATOM     19  C   UNL     1       9.584  11.032  18.684  0.00  0.00    +0.000 C 
ENDBRANCH  17  19
ENDBRANCH  16  17
ENDBRANCH  15  16
ENDBRANCH  14  15
ENDBRANCH   4  14
ENDBRANCH   1   4
BRANCH   3  20
ATOM     20  C   UNL     1       3.467   5.070  19.854  0.00  0.00    +0.000 C 
BRANCH  20  21
ATOM     21  C   UNL     1       2.152   4.425  19.342  0.00  0.00    +0.000 C 
BRANCH  21  22
ATOM     22  N   UNL     1       2.281   2.954  18.782  0.00  0.00    +0.000 N 
ATOM     23  C   UNL     1       2.701   2.925  17.317  0.00  0.00    +0.000 C 
ATOM     24  C   UNL     1       3.245   2.109  19.608  0.00  0.00    +0.000 C 
ATOM     25  C   UNL     1       0.893   2.297  18.878  0.00  0.00    +0.000 C 
ENDBRANCH  21  22
ENDBRANCH  20  21
ENDBRANCH   3  20
BRANCH   3  26
ATOM     26  O   UNL     1       3.993   6.652  18.103  0.00  0.00    +0.000 OA
BRANCH  26  27
ATOM     27  C   UNL     1       2.550   6.700  18.006  0.00  0.00    +0.000 C 
BRANCH  27  28
ATOM     28  C   UNL     1       2.039   8.013  18.536  0.00  0.00    +0.000 A 
ATOM     29  C   UNL     1       1.514   8.145  19.832  0.00  0.00    +0.000 A 
ATOM     30  C   UNL     1       1.066   9.381  20.297  0.00  0.00    +0.000 A 
ATOM     31  C   UNL     1       1.152  10.502  19.475  0.00  0.00    +0.000 A 
ATOM     32  C   UNL     1       1.705  10.393  18.202  0.00  0.00    +0.000 A 
ATOM     33  C   UNL     1       2.158   9.158  17.739  0.00  0.00    +0.000 A 
ENDBRANCH  27  28
ENDBRANCH  26  27
ENDBRANCH   3  26
TORSDOF 15
ENDMDL
MODEL 7
REMARK VINA RESULT:      -6.4      3.301      8.242
REMARK  Name = 
REMARK  22 active torsions:
REMARK  status: ('A' for Active; 'I' for Inactive)
REMARK    1  A    between atoms: C_1  and  C_2
REMARK    2  A    between atoms: C_2  and  C_3
REMARK    3  A    between atoms: C_3  and  C_4
REMARK    4  A    between atoms: C_4  and  C_5
REMARK    5  A    between atoms: C_5  and  C_6
REMARK    6  A    between atoms: C_6  and  C_7
REMARK    7  A    between atoms: C_7  and  N_8
REMARK    8  A    between atoms: C_7  and  C_16
REMARK    9  A    between atoms: C_9  and  O_11
REMARK   10  A    between atoms: O_11  and  C_12
REMARK   11  A    between atoms: C_12  and  C_13
REMARK   12  A    between atoms: C_12  and  C_14
REMARK   13  A    between atoms: C_12  and  C_15
REMARK   14  A    between atoms: N_18  and  C_19
REMARK   15  A    between atoms: N_18  and  O_25
REMARK   16  A    between atoms: C_19  and  C_20
REMARK   17  A    between atoms: C_20  and  N_21
REMARK   18  A    between atoms: N_21  and  C_22
REMARK   19  A    between atoms: N_21  and  C_23
REMARK   20  A    between atoms: N_21  and  C_24
REMARK   21  A    between atoms: O_25  and  C_26
REMARK   22  A    between atoms: C_26  and  C_27
REMARK                            x       y       z     vdW  Elec       q    Type
REMARK                         _______ _______ _______ _____ _____    ______ ____
ROOT
ATOM      1  C   UNL     1       1.430   8.247  20.292  0.00  0.00    +0.000 C 
ATOM      2  O   UNL     1       0.919   8.084  21.403  0.00  0.00    +0.000 OA
ATOM      3  N   UNL     1       2.237   7.256  19.762  0.00  0.00    +0.000 N 
ENDROOT
BRANCH   1   4
ATOM      4  C   UNL     1       1.206   9.542  19.431  0.00  0.00    +0.000 C 
BRANCH   4   5
ATOM      5  N   UNL     1       0.885  10.722  20.229  0.00  0.00    +0.000 N 
ATOM      6  C   UNL     1       1.482  11.938  20.044  0.00  0.00    +0.000 C 
ATOM      7  O   UNL     1       2.154  12.231  19.080  0.00  0.00    +0.000 OA
ATOM      8  H   UNL     1       0.304  10.638  21.055  0.00  0.00    +0.000 HD
BRANCH   6   9
ATOM      9  O   UNL     1       1.257  12.735  21.124  0.00  0.00    +0.000 OA
BRANCH   9  10
ATOM     10  C   UNL     1       0.370  13.882  20.966  0.00  0.00    +0.000 C 
ATOM     11  C   UNL     1      -0.312  14.268  22.285  0.00  0.00    +0.000 C 
ATOM     12  C   UNL     1       1.238  15.069  20.513  0.00  0.00    +0.000 C 
ATOM     13  C   UNL     1      -0.673  13.608  19.869  0.00  0.00    +0.000 C 
ENDBRANCH   9  10
ENDBRANCH   6   9
ENDBRANCH   4   5
BRANCH   4  14
ATOM     14  C   UNL     1       0.333   9.302  18.181  0.00  0.00    +0.000 C 
BRANCH  14  15
ATOM     15  C   UNL     1      -0.681  10.436  17.920  0.00  0.00    +0.000 C 
BRANCH  15  16
ATOM     16  C   UNL     1      -2.106  10.122  18.398  0.00  0.00    +0.000 C 
BRANCH  16  17
ATOM     17  C   UNL     1      -3.011   9.767  17.219  0.00  0.00    +0.000 C 
BRANCH  17  19
ATOM     18  C   UNL     1      -2.861  10.133  14.741  0.00  0.00    +0.000 C 
ATOM     19  C   UNL     1      -2.919  10.806  16.102  0.00  0.00    +0.000 C 
ENDBRANCH  17  19
ENDBRANCH  16  17
ENDBRANCH  15  16
ENDBRANCH  14  15
ENDBRANCH   4  14
ENDBRANCH   1   4
BRANCH   3  20
ATOM     20  C   UNL     1       2.522   5.922  20.348  0.00  0.00    +0.000 C 
BRANCH  20  21
ATOM     21  C   UNL     1       1.331   4.928  20.354  0.00  0.00    +0.000 C 
BRANCH  21  22
ATOM     22  N   UNL     1       1.708   3.402  20.205  0.00  0.00    +0.000 N 
ATOM     23  C   UNL     1       0.871   2.696  19.145  0.00  0.00    +0.000 C 
ATOM     24  C   UNL     1       3.191   3.206  19.901  0.00  0.00    +0.000 C 
ATOM     25  C   UNL     1       1.420   2.719  21.553  0.00  0.00    +0.000 C 
ENDBRANCH  21  22
ENDBRANCH  20  21
ENDBRANCH   3  20
BRANCH   3  26
ATOM     26  O   UNL     1       2.944   7.498  18.563  0.00  0.00    +0.000 OA
BRANCH  26  27
ATOM     27  C   UNL     1       2.881   6.354  17.679  0.00  0.00    +0.000 C 
BRANCH  27  28
ATOM     28  C   UNL     1       4.270   5.930  17.282  0.00  0.00    +0.000 A 
ATOM     29  C   UNL     1       4.548   4.646  16.783  0.00  0.00    +0.000 A 
ATOM     30  C   UNL     1       5.843   4.294  16.407  0.00  0.00    +0.000 A 
ATOM     31  C   UNL     1       6.873   5.225  16.513  0.00  0.00    +0.000 A 
ATOM     32  C   UNL     1       6.604   6.512  16.971  0.00  0.00    +0.000 A 
ATOM     33  C   UNL     1       5.307   6.868  17.341  0.00  0.00    +0.000 A 
ENDBRANCH  27  28
ENDBRANCH  26  27
ENDBRANCH   3  26
TORSDOF 15
ENDMDL
MODEL 8
REMARK VINA RESULT:      -6.4      2.018      5.283
REMARK  Name = 
REMARK  22 active torsions:
REMARK  status: ('A' for Active; 'I' for Inactive)
REMARK    1  A    between atoms: C_1  and  C_2
REMARK    2  A    between atoms: C_2  and  C_3
REMARK    3  A    between atoms: C_3  and  C_4
REMARK    4  A    between atoms: C_4  and  C_5
REMARK    5  A    between atoms: C_5  and  C_6
REMARK    6  A    between atoms: C_6  and  C_7
REMARK    7  A    between atoms: C_7  and  N_8
REMARK    8  A    between atoms: C_7  and  C_16
REMARK    9  A    between atoms: C_9  and  O_11
REMARK   10  A    between atoms: O_11  and  C_12
REMARK   11  A    between atoms: C_12  and  C_13
REMARK   12  A    between atoms: C_12  and  C_14
REMARK   13  A    between atoms: C_12  and  C_15
REMARK   14  A    between atoms: N_18  and  C_19
REMARK   15  A    between atoms: N_18  and  O_25
REMARK   16  A    between atoms: C_19  and  C_20
REMARK   17  A    between atoms: C_20  and  N_21
REMARK   18  A    between atoms: N_21  and  C_22
REMARK   19  A    between atoms: N_21  and  C_23
REMARK   20  A    between atoms: N_21  and  C_24
REMARK   21  A    between atoms: O_25  and  C_26
REMARK   22  A    between atoms: C_26  and  C_27
REMARK                            x       y       z     vdW  Elec       q    Type
REMARK                         _______ _______ _______ _____ _____    ______ ____
ROOT
ATOM      1  C   UNL     1       3.524   3.682  16.820  0.00  0.00    +0.000 C 
ATOM      2  O   UNL     1       2.820   2.735  16.467  0.00  0.00    +0.000 OA
ATOM      3  N   UNL     1       3.022   4.606  17.720  0.00  0.00    +0.000 N 
ENDROOT
BRANCH   1   4
ATOM      4  C   UNL     1       4.990   3.900  16.295  0.00  0.00    +0.000 C 
BRANCH   4   5
ATOM      5  N   UNL     1       5.933   4.275  17.344  0.00  0.00    +0.000 N 
ATOM      6  C   UNL     1       7.270   4.451  17.123  0.00  0.00    +0.000 C 
ATOM      7  O   UNL     1       7.777   4.540  16.027  0.00  0.00    +0.000 OA
ATOM      8  H   UNL     1       5.643   4.277  18.315  0.00  0.00    +0.000 HD
BRANCH   6   9
ATOM      9  O   UNL     1       7.941   4.449  18.307  0.00  0.00    +0.000 OA
BRANCH   9  10
ATOM     10  C   UNL     1       7.732   5.563  19.224  0.00  0.00    +0.000 C 
ATOM     11  C   UNL     1       8.047   6.915  18.570  0.00  0.00    +0.000 C 
ATOM     12  C   UNL     1       6.243   5.558  19.614  0.00  0.00    +0.000 C 
ATOM     13  C   UNL     1       8.561   5.368  20.505  0.00  0.00    +0.000 C 
ENDBRANCH   9  10
ENDBRANCH   6   9
ENDBRANCH   4   5
BRANCH   4  14
ATOM     14  C   UNL     1       5.055   4.719  14.988  0.00  0.00    +0.000 C 
BRANCH  14  15
ATOM     15  C   UNL     1       5.345   3.854  13.743  0.00  0.00    +0.000 C 
BRANCH  15  16
ATOM     16  C   UNL     1       6.599   4.280  12.965  0.00  0.00    +0.000 C 
BRANCH  16  17
ATOM     17  C   UNL     1       6.806   3.394  11.737  0.00  0.00    +0.000 C 
BRANCH  17  19
ATOM     18  C   UNL     1       6.271   1.012  11.154  0.00  0.00    +0.000 C 
ATOM     19  C   UNL     1       5.701   2.347  11.603  0.00  0.00    +0.000 C 
ENDBRANCH  17  19
ENDBRANCH  16  17
ENDBRANCH  15  16
ENDBRANCH  14  15
ENDBRANCH   4  14
ENDBRANCH   1   4
BRANCH   3  20
ATOM     20  C   UNL     1       1.709   4.562  18.411  0.00  0.00    +0.000 C 
BRANCH  20  21
ATOM     21  C   UNL     1       1.441   3.286  19.252  0.00  0.00    +0.000 C 
BRANCH  21  22
ATOM     22  N   UNL     1       2.206   3.198  20.631  0.00  0.00    +0.000 N 
ATOM     23  C   UNL     1       1.438   2.394  21.672  0.00  0.00    +0.000 C 
ATOM     24  C   UNL     1       3.609   2.620  20.471  0.00  0.00    +0.000 C 
ATOM     25  C   UNL     1       2.357   4.631  21.170  0.00  0.00    +0.000 C 
ENDBRANCH  21  22
ENDBRANCH  20  21
ENDBRANCH   3  20
BRANCH   3  26
ATOM     26  O   UNL     1       3.764   5.772  18.012  0.00  0.00    +0.000 OA
BRANCH  26  27
ATOM     27  C   UNL     1       3.239   6.917  17.300  0.00  0.00    +0.000 C 
BRANCH  27  28
ATOM     28  C   UNL     1       2.432   7.781  18.232  0.00  0.00    +0.000 A 
ATOM     29  C   UNL     1       2.312   7.496  19.603  0.00  0.00    +0.000 A 
ATOM     30  C   UNL     1       1.571   8.329  20.441  0.00  0.00    +0.000 A 
ATOM     31  C   UNL     1       0.954   9.463  19.921  0.00  0.00    +0.000 A 
ATOM     32  C   UNL     1       1.096   9.777  18.571  0.00  0.00    +0.000 A 
ATOM     33  C   UNL     1       1.842   8.948  17.734  0.00  0.00    +0.000 A 
ENDBRANCH  27  28
ENDBRANCH  26  27
ENDBRANCH   3  26
TORSDOF 15
ENDMDL
MODEL 9
REMARK VINA RESULT:      -6.3      3.290      8.122
REMARK  Name = 
REMARK  22 active torsions:
REMARK  status: ('A' for Active; 'I' for Inactive)
REMARK    1  A    between atoms: C_1  and  C_2
REMARK    2  A    between atoms: C_2  and  C_3
REMARK    3  A    between atoms: C_3  and  C_4
REMARK    4  A    between atoms: C_4  and  C_5
REMARK    5  A    between atoms: C_5  and  C_6
REMARK    6  A    between atoms: C_6  and  C_7
REMARK    7  A    between atoms: C_7  and  N_8
REMARK    8  A    between atoms: C_7  and  C_16
REMARK    9  A    between atoms: C_9  and  O_11
REMARK   10  A    between atoms: O_11  and  C_12
REMARK   11  A    between atoms: C_12  and  C_13
REMARK   12  A    between atoms: C_12  and  C_14
REMARK   13  A    between atoms: C_12  and  C_15
REMARK   14  A    between atoms: N_18  and  C_19
REMARK   15  A    between atoms: N_18  and  O_25
REMARK   16  A    between atoms: C_19  and  C_20
REMARK   17  A    between atoms: C_20  and  N_21
REMARK   18  A    between atoms: N_21  and  C_22
REMARK   19  A    between atoms: N_21  and  C_23
REMARK   20  A    between atoms: N_21  and  C_24
REMARK   21  A    between atoms: O_25  and  C_26
REMARK   22  A    between atoms: C_26  and  C_27
REMARK                            x       y       z     vdW  Elec       q    Type
REMARK                         _______ _______ _______ _____ _____    ______ ____
ROOT
ATOM      1  C   UNL     1       1.445   8.378  20.062  0.00  0.00    +0.000 C 
ATOM      2  O   UNL     1       0.916   8.318  21.173  0.00  0.00    +0.000 OA
ATOM      3  N   UNL     1       2.257   7.340  19.638  0.00  0.00    +0.000 N 
ENDROOT
BRANCH   1   4
ATOM      4  C   UNL     1       1.242   9.590  19.082  0.00  0.00    +0.000 C 
BRANCH   4   5
ATOM      5  N   UNL     1       1.296  10.889  19.747  0.00  0.00    +0.000 N 
ATOM      6  C   UNL     1       1.948  11.971  19.225  0.00  0.00    +0.000 C 
ATOM      7  O   UNL     1       2.347  12.046  18.083  0.00  0.00    +0.000 OA
ATOM      8  H   UNL     1       0.969  10.989  20.700  0.00  0.00    +0.000 HD
BRANCH   6   9
ATOM      9  O   UNL     1       2.131  12.913  20.190  0.00  0.00    +0.000 OA
BRANCH   9  10
ATOM     10  C   UNL     1       1.317  14.123  20.141  0.00  0.00    +0.000 C 
ATOM     11  C   UNL     1       1.908  15.176  19.195  0.00  0.00    +0.000 C 
ATOM     12  C   UNL     1      -0.066  13.719  19.600  0.00  0.00    +0.000 C 
ATOM     13  C   UNL     1       1.127  14.700  21.553  0.00  0.00    +0.000 C 
ENDBRANCH   9  10
ENDBRANCH   6   9
ENDBRANCH   4   5
BRANCH   4  14
ATOM     14  C   UNL     1       0.086   9.379  18.081  0.00  0.00    +0.000 C 
BRANCH  14  15
ATOM     15  C   UNL     1      -1.249   9.990  18.556  0.00  0.00    +0.000 C 
BRANCH  15  16
ATOM     16  C   UNL     1      -2.378   9.910  17.518  0.00  0.00    +0.000 C 
BRANCH  16  17
ATOM     17  C   UNL     1      -2.584  11.259  16.831  0.00  0.00    +0.000 C 
BRANCH  17  19
ATOM     18  C   UNL     1      -3.071   9.631  14.985  0.00  0.00    +0.000 C 
ATOM     19  C   UNL     1      -3.097  11.092  15.401  0.00  0.00    +0.000 C 
ENDBRANCH  17  19
ENDBRANCH  16  17
ENDBRANCH  15  16
ENDBRANCH  14  15
ENDBRANCH   4  14
ENDBRANCH   1   4
BRANCH   3  20
ATOM     20  C   UNL     1       2.527   6.065  20.349  0.00  0.00    +0.000 C 
BRANCH  20  21
ATOM     21  C   UNL     1       1.357   5.046  20.355  0.00  0.00    +0.000 C 
BRANCH  21  22
ATOM     22  N   UNL     1       1.766   3.529  20.192  0.00  0.00    +0.000 N 
ATOM     23  C   UNL     1       0.984   2.832  19.086  0.00  0.00    +0.000 C 
ATOM     24  C   UNL     1       3.262   3.363  19.944  0.00  0.00    +0.000 C 
ATOM     25  C   UNL     1       1.436   2.814  21.514  0.00  0.00    +0.000 C 
ENDBRANCH  21  22
ENDBRANCH  20  21
ENDBRANCH   3  20
BRANCH   3  26
ATOM     26  O   UNL     1       2.985   7.470  18.435  0.00  0.00    +0.000 OA
BRANCH  26  27
ATOM     27  C   UNL     1       2.951   6.243  17.668  0.00  0.00    +0.000 C 
BRANCH  27  28
ATOM     28  C   UNL     1       4.342   5.864  17.234  0.00  0.00    +0.000 A 
ATOM     29  C   UNL     1       4.635   4.613  16.666  0.00  0.00    +0.000 A 
ATOM     30  C   UNL     1       5.932   4.303  16.259  0.00  0.00    +0.000 A 
ATOM     31  C   UNL     1       6.947   5.246  16.401  0.00  0.00    +0.000 A 
ATOM     32  C   UNL     1       6.662   6.503  16.928  0.00  0.00    +0.000 A 
ATOM     33  C   UNL     1       5.364   6.816  17.330  0.00  0.00    +0.000 A 
ENDBRANCH  27  28
ENDBRANCH  26  27
ENDBRANCH   3  26
TORSDOF 15
ENDMDL
