MODEL 1
REMARK VINA RESULT:      -7.7      0.000      0.000
REMARK  Name = 
REMARK  8 active torsions:
REMARK  status: ('A' for Active; 'I' for Inactive)
REMARK    1  A    between atoms: C_1  and  O_2
REMARK    2  A    between atoms: O_2  and  C_3
REMARK    3  A    between atoms: C_6  and  C_7
REMARK    4  A    between atoms: C_8  and  C_9
REMARK    5  A    between atoms: C_12  and  O_13
REMARK    6  A    between atoms: O_13  and  C_14
REMARK    7  A    between atoms: N_20  and  N_21
REMARK    8  A    between atoms: C_22  and  C_23
REMARK                            x       y       z     vdW  Elec       q    Type
REMARK                         _______ _______ _______ _____ _____    ______ ____
ROOT
ATOM      1  C   UNL     1       0.559  11.913  19.612  0.00  0.00    +0.000 C 
ATOM      2  C   UNL     1       0.989  13.017  18.940  0.00  0.00    +0.000 C 
ATOM      3  N   UNL     1       1.925  12.881  17.923  0.00  0.00    +0.000 N 
ATOM      4  N   UNL     1       2.574  11.672  17.790  0.00  0.00    +0.000 N 
ATOM      5  C   UNL     1       1.967  10.572  18.402  0.00  0.00    +0.000 C 
ATOM      6  N   UNL     1       2.467   9.391  17.879  0.00  0.00    +0.000 N 
ATOM      7  N   UNL     1       1.003  10.640  19.284  0.00  0.00    +0.000 NA
ATOM      8  H   UNL     1       2.455  13.729  17.733  0.00  0.00    +0.000 HD
ATOM      9  H   UNL     1       2.874  11.455  16.842  0.00  0.00    +0.000 HD
ATOM     10  H   UNL     1       3.480   9.381  17.799  0.00  0.00    +0.000 HD
ENDROOT
BRANCH   1  14
ATOM     11  C   UNL     1      -2.400  11.972  22.711  0.00  0.00    +0.000 A 
ATOM     12  C   UNL     1      -1.099  11.543  22.979  0.00  0.00    +0.000 A 
ATOM     13  C   UNL     1      -0.116  11.585  21.986  0.00  0.00    +0.000 A 
ATOM     14  C   UNL     1      -0.434  12.033  20.699  0.00  0.00    +0.000 A 
ATOM     15  C   UNL     1      -1.735  12.484  20.439  0.00  0.00    +0.000 A 
ATOM     16  C   UNL     1      -2.716  12.450  21.439  0.00  0.00    +0.000 A 
BRANCH  11  18
ATOM     17  C   UNL     1      -3.860  13.037  24.238  0.00  0.00    +0.000 C 
ATOM     18  O   UNL     1      -3.279  11.834  23.750  0.00  0.00    +0.000 OA
ENDBRANCH  11  18
ENDBRANCH   1  14
BRANCH   2  19
ATOM     19  C   UNL     1       0.542  14.384  19.253  0.00  0.00    +0.000 A 
ATOM     20  C   UNL     1      -0.245  15.078  18.332  0.00  0.00    +0.000 A 
ATOM     21  C   UNL     1      -0.582  16.412  18.570  0.00  0.00    +0.000 A 
ATOM     22  C   UNL     1      -0.158  17.052  19.735  0.00  0.00    +0.000 A 
ATOM     23  C   UNL     1       0.614  16.356  20.666  0.00  0.00    +0.000 A 
ATOM     24  C   UNL     1       0.961  15.020  20.426  0.00  0.00    +0.000 A 
BRANCH  22  25
ATOM     25  O   UNL     1      -0.513  18.369  19.827  0.00  0.00    +0.000 OA
ATOM     26  C   UNL     1      -1.758  18.630  20.460  0.00  0.00    +0.000 C 
ENDBRANCH  22  25
ENDBRANCH   2  19
BRANCH   6  27
ATOM     27  N   UNL     1       1.897   8.147  17.932  0.00  0.00    +0.000 NA
ATOM     28  C   UNL     1       2.521   7.301  18.695  0.00  0.00    +0.000 C 
BRANCH  28  29
ATOM     29  C   UNL     1       2.053   5.923  18.895  0.00  0.00    +0.000 A 
ATOM     30  C   UNL     1       1.678   5.465  20.163  0.00  0.00    +0.000 A 
ATOM     31  C   UNL     1       1.268   4.144  20.322  0.00  0.00    +0.000 A 
ATOM     32  C   UNL     1       1.236   3.296  19.218  0.00  0.00    +0.000 A 
ATOM     33  F   UNL     1       0.843   2.026  19.379  0.00  0.00    +0.000 F 
ATOM     34  C   UNL     1       1.605   3.744  17.954  0.00  0.00    +0.000 A 
ATOM     35  C   UNL     1       2.016   5.066  17.788  0.00  0.00    +0.000 A 
ENDBRANCH  28  29
ENDBRANCH   6  27
TORSDOF 6
ENDMDL
MODEL 2
REMARK VINA RESULT:      -7.7      3.363      4.863
REMARK  Name = 
REMARK  8 active torsions:
REMARK  status: ('A' for Active; 'I' for Inactive)
REMARK    1  A    between atoms: C_1  and  O_2
REMARK    2  A    between atoms: O_2  and  C_3
REMARK    3  A    between atoms: C_6  and  C_7
REMARK    4  A    between atoms: C_8  and  C_9
REMARK    5  A    between atoms: C_12  and  O_13
REMARK    6  A    between atoms: O_13  and  C_14
REMARK    7  A    between atoms: N_20  and  N_21
REMARK    8  A    between atoms: C_22  and  C_23
REMARK                            x       y       z     vdW  Elec       q    Type
REMARK                         _______ _______ _______ _____ _____    ______ ____
ROOT
ATOM      1  C   UNL     1       0.173   9.694  20.093  0.00  0.00    +0.000 C 
ATOM      2  C   UNL     1       0.396  10.180  21.345  0.00  0.00    +0.000 C 
ATOM      3  N   UNL     1       1.345   9.573  22.157  0.00  0.00    +0.000 N 
ATOM      4  N   UNL     1       1.856   8.353  21.767  0.00  0.00    +0.000 N 
ATOM      5  C   UNL     1       1.698   8.017  20.421  0.00  0.00    +0.000 C 
ATOM      6  N   UNL     1       2.571   7.001  20.069  0.00  0.00    +0.000 N 
ATOM      7  N   UNL     1       0.899   8.627  19.582  0.00  0.00    +0.000 NA
ATOM      8  H   UNL     1       1.201   9.733  23.152  0.00  0.00    +0.000 HD
ATOM      9  H   UNL     1       2.803   8.168  22.091  0.00  0.00    +0.000 HD
ATOM     10  H   UNL     1       2.596   6.239  20.742  0.00  0.00    +0.000 HD
ENDROOT
BRANCH   1  14
ATOM     11  C   UNL     1      -2.631  11.350  17.306  0.00  0.00    +0.000 A 
ATOM     12  C   UNL     1      -2.910  10.153  17.967  0.00  0.00    +0.000 A 
ATOM     13  C   UNL     1      -2.026   9.646  18.925  0.00  0.00    +0.000 A 
ATOM     14  C   UNL     1      -0.834  10.321  19.211  0.00  0.00    +0.000 A 
ATOM     15  C   UNL     1      -0.568  11.533  18.561  0.00  0.00    +0.000 A 
ATOM     16  C   UNL     1      -1.459  12.044  17.609  0.00  0.00    +0.000 A 
BRANCH  11  18
ATOM     17  C   UNL     1      -3.581  10.906  15.185  0.00  0.00    +0.000 C 
ATOM     18  O   UNL     1      -3.548  11.712  16.358  0.00  0.00    +0.000 OA
ENDBRANCH  11  18
ENDBRANCH   1  14
BRANCH   2  19
ATOM     19  C   UNL     1      -0.348  11.310  21.923  0.00  0.00    +0.000 A 
ATOM     20  C   UNL     1       0.102  12.614  21.705  0.00  0.00    +0.000 A 
ATOM     21  C   UNL     1      -0.532  13.683  22.339  0.00  0.00    +0.000 A 
ATOM     22  C   UNL     1      -1.631  13.464  23.172  0.00  0.00    +0.000 A 
ATOM     23  C   UNL     1      -2.094  12.164  23.378  0.00  0.00    +0.000 A 
ATOM     24  C   UNL     1      -1.455  11.087  22.750  0.00  0.00    +0.000 A 
BRANCH  22  25
ATOM     25  O   UNL     1      -2.131  14.588  23.768  0.00  0.00    +0.000 OA
ATOM     26  C   UNL     1      -3.387  15.038  23.281  0.00  0.00    +0.000 C 
ENDBRANCH  22  25
ENDBRANCH   2  19
BRANCH   6  27
ATOM     27  N   UNL     1       2.983   6.652  18.812  0.00  0.00    +0.000 NA
ATOM     28  C   UNL     1       4.022   5.873  18.782  0.00  0.00    +0.000 C 
BRANCH  28  29
ATOM     29  C   UNL     1       4.602   5.375  17.528  0.00  0.00    +0.000 A 
ATOM     30  C   UNL     1       4.874   4.015  17.349  0.00  0.00    +0.000 A 
ATOM     31  C   UNL     1       5.452   3.581  16.158  0.00  0.00    +0.000 A 
ATOM     32  C   UNL     1       5.752   4.507  15.162  0.00  0.00    +0.000 A 
ATOM     33  F   UNL     1       6.309   4.083  14.021  0.00  0.00    +0.000 F 
ATOM     34  C   UNL     1       5.481   5.861  15.331  0.00  0.00    +0.000 A 
ATOM     35  C   UNL     1       4.902   6.301  16.521  0.00  0.00    +0.000 A 
ENDBRANCH  28  29
ENDBRANCH   6  27
TORSDOF 6
ENDMDL
MODEL 3
REMARK VINA RESULT:      -7.6      0.723      1.538
REMARK  Name = 
REMARK  8 active torsions:
REMARK  status: ('A' for Active; 'I' for Inactive)
REMARK    1  A    between atoms: C_1  and  O_2
REMARK    2  A    between atoms: O_2  and  C_3
REMARK    3  A    between atoms: C_6  and  C_7
REMARK    4  A    between atoms: C_8  and  C_9
REMARK    5  A    between atoms: C_12  and  O_13
REMARK    6  A    between atoms: O_13  and  C_14
REMARK    7  A    between atoms: N_20  and  N_21
REMARK    8  A    between atoms: C_22  and  C_23
REMARK                            x       y       z     vdW  Elec       q    Type
REMARK                         _______ _______ _______ _____ _____    ______ ____
ROOT
ATOM      1  C   UNL     1       0.853  12.086  19.361  0.00  0.00    +0.000 C 
ATOM      2  C   UNL     1       1.337  13.124  18.626  0.00  0.00    +0.000 C 
ATOM      3  N   UNL     1       2.271  12.880  17.627  0.00  0.00    +0.000 N 
ATOM      4  N   UNL     1       2.863  11.636  17.574  0.00  0.00    +0.000 N 
ATOM      5  C   UNL     1       2.201  10.607  18.247  0.00  0.00    +0.000 C 
ATOM      6  N   UNL     1       2.646   9.373  17.802  0.00  0.00    +0.000 N 
ATOM      7  N   UNL     1       1.237  10.775  19.116  0.00  0.00    +0.000 NA
ATOM      8  H   UNL     1       2.842  13.690  17.388  0.00  0.00    +0.000 HD
ATOM      9  H   UNL     1       3.156  11.348  16.643  0.00  0.00    +0.000 HD
ATOM     10  H   UNL     1       3.658   9.311  17.730  0.00  0.00    +0.000 HD
ENDROOT
BRANCH   1  14
ATOM     11  C   UNL     1      -2.073  13.038  22.345  0.00  0.00    +0.000 A 
ATOM     12  C   UNL     1      -2.457  12.465  21.131  0.00  0.00    +0.000 A 
ATOM     13  C   UNL     1      -1.498  12.094  20.184  0.00  0.00    +0.000 A 
ATOM     14  C   UNL     1      -0.139  12.319  20.431  0.00  0.00    +0.000 A 
ATOM     15  C   UNL     1       0.244  12.875  21.660  0.00  0.00    +0.000 A 
ATOM     16  C   UNL     1      -0.718  13.237  22.611  0.00  0.00    +0.000 A 
BRANCH  11  18
ATOM     17  C   UNL     1      -3.648  12.370  23.979  0.00  0.00    +0.000 C 
ATOM     18  O   UNL     1      -3.106  13.403  23.163  0.00  0.00    +0.000 OA
ENDBRANCH  11  18
ENDBRANCH   1  14
BRANCH   2  19
ATOM     19  C   UNL     1       0.955  14.527  18.850  0.00  0.00    +0.000 A 
ATOM     20  C   UNL     1       1.869  15.405  19.435  0.00  0.00    +0.000 A 
ATOM     21  C   UNL     1       1.478  16.707  19.752  0.00  0.00    +0.000 A 
ATOM     22  C   UNL     1       0.185  17.148  19.467  0.00  0.00    +0.000 A 
ATOM     23  C   UNL     1      -0.726  16.279  18.867  0.00  0.00    +0.000 A 
ATOM     24  C   UNL     1      -0.340  14.969  18.555  0.00  0.00    +0.000 A 
BRANCH  22  25
ATOM     25  O   UNL     1      -0.086  18.426  19.870  0.00  0.00    +0.000 OA
ATOM     26  C   UNL     1      -1.332  18.617  20.525  0.00  0.00    +0.000 C 
ENDBRANCH  22  25
ENDBRANCH   2  19
BRANCH   6  27
ATOM     27  N   UNL     1       2.018   8.163  17.928  0.00  0.00    +0.000 NA
ATOM     28  C   UNL     1       2.675   7.284  18.621  0.00  0.00    +0.000 C 
BRANCH  28  29
ATOM     29  C   UNL     1       2.157   5.934  18.882  0.00  0.00    +0.000 A 
ATOM     30  C   UNL     1       1.979   5.016  17.841  0.00  0.00    +0.000 A 
ATOM     31  C   UNL     1       1.458   3.755  18.119  0.00  0.00    +0.000 A 
ATOM     32  C   UNL     1       1.120   3.425  19.429  0.00  0.00    +0.000 A 
ATOM     33  F   UNL     1       0.617   2.211  19.689  0.00  0.00    +0.000 F 
ATOM     34  C   UNL     1       1.297   4.331  20.470  0.00  0.00    +0.000 A 
ATOM     35  C   UNL     1       1.819   5.594  20.198  0.00  0.00    +0.000 A 
ENDBRANCH  28  29
ENDBRANCH   6  27
TORSDOF 6
ENDMDL
MODEL 4
REMARK VINA RESULT:      -7.5      0.389      1.269
REMARK  Name = 
REMARK  8 active torsions:
REMARK  status: ('A' for Active; 'I' for Inactive)
REMARK    1  A    between atoms: C_1  and  O_2
REMARK    2  A    between atoms: O_2  and  C_3
REMARK    3  A    between atoms: C_6  and  C_7
REMARK    4  A    between atoms: C_8  and  C_9
REMARK    5  A    between atoms: C_12  and  O_13
REMARK    6  A    between atoms: O_13  and  C_14
REMARK    7  A    between atoms: N_20  and  N_21
REMARK    8  A    between atoms: C_22  and  C_23
REMARK                            x       y       z     vdW  Elec       q    Type
REMARK                         _______ _______ _______ _____ _____    ______ ____
ROOT
ATOM      1  C   UNL     1       0.497  11.691  19.606  0.00  0.00    +0.000 C 
ATOM      2  C   UNL     1       0.910  12.826  18.977  0.00  0.00    +0.000 C 
ATOM      3  N   UNL     1       1.874  12.745  17.980  0.00  0.00    +0.000 N 
ATOM      4  N   UNL     1       2.559  11.559  17.827  0.00  0.00    +0.000 N 
ATOM      5  C   UNL     1       1.970  10.426  18.392  0.00  0.00    +0.000 C 
ATOM      6  N   UNL     1       2.514   9.275  17.847  0.00  0.00    +0.000 N 
ATOM      7  N   UNL     1       0.984  10.441  19.253  0.00  0.00    +0.000 NA
ATOM      8  H   UNL     1       2.383  13.614  17.827  0.00  0.00    +0.000 HD
ATOM      9  H   UNL     1       2.887  11.380  16.881  0.00  0.00    +0.000 HD
ATOM     10  H   UNL     1       3.529   9.296  17.791  0.00  0.00    +0.000 HD
ENDROOT
BRANCH   1  14
ATOM     11  C   UNL     1      -2.403  12.161  22.727  0.00  0.00    +0.000 A 
ATOM     12  C   UNL     1      -2.749  12.392  21.395  0.00  0.00    +0.000 A 
ATOM     13  C   UNL     1      -1.824  12.176  20.370  0.00  0.00    +0.000 A 
ATOM     14  C   UNL     1      -0.525  11.751  20.672  0.00  0.00    +0.000 A 
ATOM     15  C   UNL     1      -0.186  11.499  22.009  0.00  0.00    +0.000 A 
ATOM     16  C   UNL     1      -1.119  11.707  23.033  0.00  0.00    +0.000 A 
BRANCH  11  18
ATOM     17  C   UNL     1      -4.563  13.045  23.111  0.00  0.00    +0.000 C 
ATOM     18  O   UNL     1      -3.379  12.457  23.638  0.00  0.00    +0.000 OA
ENDBRANCH  11  18
ENDBRANCH   1  14
BRANCH   2  19
ATOM     19  C   UNL     1       0.417  14.169  19.319  0.00  0.00    +0.000 A 
ATOM     20  C   UNL     1      -0.271  14.915  18.360  0.00  0.00    +0.000 A 
ATOM     21  C   UNL     1      -0.645  16.230  18.638  0.00  0.00    +0.000 A 
ATOM     22  C   UNL     1      -0.358  16.802  19.878  0.00  0.00    +0.000 A 
ATOM     23  C   UNL     1       0.315  16.055  20.845  0.00  0.00    +0.000 A 
ATOM     24  C   UNL     1       0.700  14.737  20.567  0.00  0.00    +0.000 A 
BRANCH  22  25
ATOM     25  O   UNL     1      -0.735  18.110  20.007  0.00  0.00    +0.000 OA
ATOM     26  C   UNL     1      -1.957  18.466  19.377  0.00  0.00    +0.000 C 
ENDBRANCH  22  25
ENDBRANCH   2  19
BRANCH   6  27
ATOM     27  N   UNL     1       1.979   8.015  17.850  0.00  0.00    +0.000 NA
ATOM     28  C   UNL     1       2.521   7.201  18.705  0.00  0.00    +0.000 C 
BRANCH  28  29
ATOM     29  C   UNL     1       2.071   5.812  18.870  0.00  0.00    +0.000 A 
ATOM     30  C   UNL     1       2.041   4.930  17.784  0.00  0.00    +0.000 A 
ATOM     31  C   UNL     1       1.581   3.629  17.969  0.00  0.00    +0.000 A 
ATOM     32  C   UNL     1       1.157   3.223  19.232  0.00  0.00    +0.000 A 
ATOM     33  F   UNL     1       0.714   1.971  19.403  0.00  0.00    +0.000 F 
ATOM     34  C   UNL     1       1.187   4.093  20.318  0.00  0.00    +0.000 A 
ATOM     35  C   UNL     1       1.647   5.397  20.139  0.00  0.00    +0.000 A 
ENDBRANCH  28  29
ENDBRANCH   6  27
TORSDOF 6
ENDMDL
MODEL 5
REMARK VINA RESULT:      -7.4      0.606      1.050
REMARK  Name = 
REMARK  8 active torsions:
REMARK  status: ('A' for Active; 'I' for Inactive)
REMARK    1  A    between atoms: C_1  and  O_2
REMARK    2  A    between atoms: O_2  and  C_3
REMARK    3  A    between atoms: C_6  and  C_7
REMARK    4  A    between atoms: C_8  and  C_9
REMARK    5  A    between atoms: C_12  and  O_13
REMARK    6  A    between atoms: O_13  and  C_14
REMARK    7  A    between atoms: N_20  and  N_21
REMARK    8  A    between atoms: C_22  and  C_23
REMARK                            x       y       z     vdW  Elec       q    Type
REMARK                         _______ _______ _______ _____ _____    ______ ____
ROOT
ATOM      1  C   UNL     1       0.768  12.042  19.347  0.00  0.00    +0.000 C 
ATOM      2  C   UNL     1       1.261  13.092  18.635  0.00  0.00    +0.000 C 
ATOM      3  N   UNL     1       2.223  12.866  17.658  0.00  0.00    +0.000 N 
ATOM      4  N   UNL     1       2.826  11.628  17.608  0.00  0.00    +0.000 N 
ATOM      5  C   UNL     1       2.157  10.586  18.254  0.00  0.00    +0.000 C 
ATOM      6  N   UNL     1       2.625   9.360  17.809  0.00  0.00    +0.000 N 
ATOM      7  N   UNL     1       1.170  10.737  19.100  0.00  0.00    +0.000 NA
ATOM      8  H   UNL     1       2.792  13.683  17.442  0.00  0.00    +0.000 HD
ATOM      9  H   UNL     1       3.146  11.351  16.682  0.00  0.00    +0.000 HD
ATOM     10  H   UNL     1       3.639   9.308  17.762  0.00  0.00    +0.000 HD
ENDROOT
BRANCH   1  14
ATOM     11  C   UNL     1      -2.185  12.365  22.437  0.00  0.00    +0.000 A 
ATOM     12  C   UNL     1      -0.825  12.430  22.745  0.00  0.00    +0.000 A 
ATOM     13  C   UNL     1       0.137  12.390  21.731  0.00  0.00    +0.000 A 
ATOM     14  C   UNL     1      -0.253  12.256  20.394  0.00  0.00    +0.000 A 
ATOM     15  C   UNL     1      -1.620  12.214  20.087  0.00  0.00    +0.000 A 
ATOM     16  C   UNL     1      -2.582  12.263  21.104  0.00  0.00    +0.000 A 
BRANCH  11  18
ATOM     17  C   UNL     1      -3.544  13.629  23.905  0.00  0.00    +0.000 C 
ATOM     18  O   UNL     1      -3.022  12.362  23.519  0.00  0.00    +0.000 OA
ENDBRANCH  11  18
ENDBRANCH   1  14
BRANCH   2  19
ATOM     19  C   UNL     1       0.860  14.489  18.863  0.00  0.00    +0.000 A 
ATOM     20  C   UNL     1      -0.429  14.900  18.519  0.00  0.00    +0.000 A 
ATOM     21  C   UNL     1      -0.783  16.245  18.629  0.00  0.00    +0.000 A 
ATOM     22  C   UNL     1       0.136  17.184  19.103  0.00  0.00    +0.000 A 
ATOM     23  C   UNL     1       1.419  16.773  19.464  0.00  0.00    +0.000 A 
ATOM     24  C   UNL     1       1.781  15.425  19.347  0.00  0.00    +0.000 A 
BRANCH  22  25
ATOM     25  O   UNL     1      -0.318  18.473  19.118  0.00  0.00    +0.000 OA
ATOM     26  C   UNL     1      -1.725  18.631  19.234  0.00  0.00    +0.000 C 
ENDBRANCH  22  25
ENDBRANCH   2  19
BRANCH   6  27
ATOM     27  N   UNL     1       2.004   8.144  17.907  0.00  0.00    +0.000 NA
ATOM     28  C   UNL     1       2.646   7.268  18.617  0.00  0.00    +0.000 C 
BRANCH  28  29
ATOM     29  C   UNL     1       2.132   5.911  18.853  0.00  0.00    +0.000 A 
ATOM     30  C   UNL     1       1.944   5.017  17.794  0.00  0.00    +0.000 A 
ATOM     31  C   UNL     1       1.427   3.749  18.049  0.00  0.00    +0.000 A 
ATOM     32  C   UNL     1       1.105   3.389  19.355  0.00  0.00    +0.000 A 
ATOM     33  F   UNL     1       0.606   2.169  19.593  0.00  0.00    +0.000 F 
ATOM     34  C   UNL     1       1.292   4.271  20.415  0.00  0.00    +0.000 A 
ATOM     35  C   UNL     1       1.810   5.541  20.165  0.00  0.00    +0.000 A 
ENDBRANCH  28  29
ENDBRANCH   6  27
TORSDOF 6
ENDMDL
MODEL 6
REMARK VINA RESULT:      -7.4      0.811      1.344
REMARK  Name = 
REMARK  8 active torsions:
REMARK  status: ('A' for Active; 'I' for Inactive)
REMARK    1  A    between atoms: C_1  and  O_2
REMARK    2  A    between atoms: O_2  and  C_3
REMARK    3  A    between atoms: C_6  and  C_7
REMARK    4  A    between atoms: C_8  and  C_9
REMARK    5  A    between atoms: C_12  and  O_13
REMARK    6  A    between atoms: O_13  and  C_14
REMARK    7  A    between atoms: N_20  and  N_21
REMARK    8  A    between atoms: C_22  and  C_23
REMARK                            x       y       z     vdW  Elec       q    Type
REMARK                         _______ _______ _______ _____ _____    ______ ____
ROOT
ATOM      1  C   UNL     1       0.788  11.848  19.325  0.00  0.00    +0.000 C 
ATOM      2  C   UNL     1       1.269  12.897  18.602  0.00  0.00    +0.000 C 
ATOM      3  N   UNL     1       2.210  12.670  17.607  0.00  0.00    +0.000 N 
ATOM      4  N   UNL     1       2.812  11.431  17.545  0.00  0.00    +0.000 N 
ATOM      5  C   UNL     1       2.154  10.390  18.205  0.00  0.00    +0.000 C 
ATOM      6  N   UNL     1       2.612   9.164  17.751  0.00  0.00    +0.000 N 
ATOM      7  N   UNL     1       1.184  10.542  19.070  0.00  0.00    +0.000 NA
ATOM      8  H   UNL     1       2.776  13.486  17.379  0.00  0.00    +0.000 HD
ATOM      9  H   UNL     1       3.113  11.154  16.613  0.00  0.00    +0.000 HD
ATOM     10  H   UNL     1       3.624   9.110  17.684  0.00  0.00    +0.000 HD
ENDROOT
BRANCH   1  14
ATOM     11  C   UNL     1      -2.149  12.756  22.311  0.00  0.00    +0.000 A 
ATOM     12  C   UNL     1      -2.533  12.258  21.065  0.00  0.00    +0.000 A 
ATOM     13  C   UNL     1      -1.573  11.899  20.114  0.00  0.00    +0.000 A 
ATOM     14  C   UNL     1      -0.211  12.064  20.391  0.00  0.00    +0.000 A 
ATOM     15  C   UNL     1       0.172  12.544  21.651  0.00  0.00    +0.000 A 
ATOM     16  C   UNL     1      -0.792  12.894  22.606  0.00  0.00    +0.000 A 
BRANCH  11  18
ATOM     17  C   UNL     1      -4.469  13.167  22.527  0.00  0.00    +0.000 C 
ATOM     18  O   UNL     1      -3.181  13.116  23.132  0.00  0.00    +0.000 OA
ENDBRANCH  11  18
ENDBRANCH   1  14
BRANCH   2  19
ATOM     19  C   UNL     1       0.874  14.295  18.838  0.00  0.00    +0.000 A 
ATOM     20  C   UNL     1       1.770  15.168  19.457  0.00  0.00    +0.000 A 
ATOM     21  C   UNL     1       1.366  16.464  19.783  0.00  0.00    +0.000 A 
ATOM     22  C   UNL     1       0.077  16.903  19.475  0.00  0.00    +0.000 A 
ATOM     23  C   UNL     1      -0.815  16.038  18.841  0.00  0.00    +0.000 A 
ATOM     24  C   UNL     1      -0.416  14.735  18.519  0.00  0.00    +0.000 A 
BRANCH  22  25
ATOM     25  O   UNL     1      -0.209  18.174  19.889  0.00  0.00    +0.000 OA
ATOM     26  C   UNL     1       0.512  18.631  21.024  0.00  0.00    +0.000 C 
ENDBRANCH  22  25
ENDBRANCH   2  19
BRANCH   6  27
ATOM     27  N   UNL     1       1.992   7.949  17.861  0.00  0.00    +0.000 NA
ATOM     28  C   UNL     1       2.591   7.108  18.648  0.00  0.00    +0.000 C 
BRANCH  28  29
ATOM     29  C   UNL     1       2.070   5.759  18.910  0.00  0.00    +0.000 A 
ATOM     30  C   UNL     1       1.756   5.346  20.209  0.00  0.00    +0.000 A 
ATOM     31  C   UNL     1       1.292   4.051  20.425  0.00  0.00    +0.000 A 
ATOM     32  C   UNL     1       1.146   3.184  19.345  0.00  0.00    +0.000 A 
ATOM     33  F   UNL     1       0.702   1.940  19.560  0.00  0.00    +0.000 F 
ATOM     34  C   UNL     1       1.453   3.588  18.049  0.00  0.00    +0.000 A 
ATOM     35  C   UNL     1       1.917   4.884  17.827  0.00  0.00    +0.000 A 
ENDBRANCH  28  29
ENDBRANCH   6  27
TORSDOF 6
ENDMDL
MODEL 7
REMARK VINA RESULT:      -7.4      2.564      3.238
REMARK  Name = 
REMARK  8 active torsions:
REMARK  status: ('A' for Active; 'I' for Inactive)
REMARK    1  A    between atoms: C_1  and  O_2
REMARK    2  A    between atoms: O_2  and  C_3
REMARK    3  A    between atoms: C_6  and  C_7
REMARK    4  A    between atoms: C_8  and  C_9
REMARK    5  A    between atoms: C_12  and  O_13
REMARK    6  A    between atoms: O_13  and  C_14
REMARK    7  A    between atoms: N_20  and  N_21
REMARK    8  A    between atoms: C_22  and  C_23
REMARK                            x       y       z     vdW  Elec       q    Type
REMARK                         _______ _______ _______ _____ _____    ______ ____
ROOT
ATOM      1  C   UNL     1      -0.559  10.970  19.837  0.00  0.00    +0.000 C 
ATOM      2  C   UNL     1       0.191  12.022  20.266  0.00  0.00    +0.000 C 
ATOM      3  N   UNL     1       1.292  11.792  21.081  0.00  0.00    +0.000 N 
ATOM      4  N   UNL     1       1.449  10.538  21.631  0.00  0.00    +0.000 N 
ATOM      5  C   UNL     1       0.741   9.500  21.019  0.00  0.00    +0.000 C 
ATOM      6  N   UNL     1       1.270   8.273  21.383  0.00  0.00    +0.000 N 
ATOM      7  N   UNL     1      -0.233   9.660  20.159  0.00  0.00    +0.000 NA
ATOM      8  H   UNL     1       1.565  12.596  21.643  0.00  0.00    +0.000 HD
ATOM      9  H   UNL     1       2.414  10.275  21.816  0.00  0.00    +0.000 HD
ATOM     10  H   UNL     1       1.453   8.191  22.379  0.00  0.00    +0.000 HD
ENDROOT
BRANCH   1  14
ATOM     11  C   UNL     1      -4.094  11.350  17.444  0.00  0.00    +0.000 A 
ATOM     12  C   UNL     1      -4.048  11.883  18.733  0.00  0.00    +0.000 A 
ATOM     13  C   UNL     1      -2.874  11.818  19.490  0.00  0.00    +0.000 A 
ATOM     14  C   UNL     1      -1.736  11.188  18.972  0.00  0.00    +0.000 A 
ATOM     15  C   UNL     1      -1.779  10.673  17.669  0.00  0.00    +0.000 A 
ATOM     16  C   UNL     1      -2.954  10.749  16.909  0.00  0.00    +0.000 A 
BRANCH  11  18
ATOM     17  C   UNL     1      -6.156  12.494  17.258  0.00  0.00    +0.000 C 
ATOM     18  O   UNL     1      -5.312  11.432  16.828  0.00  0.00    +0.000 OA
ENDBRANCH  11  18
ENDBRANCH   1  14
BRANCH   2  19
ATOM     19  C   UNL     1      -0.118  13.424  19.946  0.00  0.00    +0.000 A 
ATOM     20  C   UNL     1       0.314  13.964  18.732  0.00  0.00    +0.000 A 
ATOM     21  C   UNL     1       0.122  15.321  18.468  0.00  0.00    +0.000 A 
ATOM     22  C   UNL     1      -0.520  16.141  19.397  0.00  0.00    +0.000 A 
ATOM     23  C   UNL     1      -0.968  15.601  20.602  0.00  0.00    +0.000 A 
ATOM     24  C   UNL     1      -0.770  14.242  20.876  0.00  0.00    +0.000 A 
BRANCH  22  25
ATOM     25  O   UNL     1      -0.603  17.457  19.038  0.00  0.00    +0.000 OA
ATOM     26  C   UNL     1      -0.630  17.717  17.642  0.00  0.00    +0.000 C 
ENDBRANCH  22  25
ENDBRANCH   2  19
BRANCH   6  27
ATOM     27  N   UNL     1       1.116   7.074  20.740  0.00  0.00    +0.000 NA
ATOM     28  C   UNL     1       2.165   6.674  20.089  0.00  0.00    +0.000 C 
BRANCH  28  29
ATOM     29  C   UNL     1       2.201   5.403  19.351  0.00  0.00    +0.000 A 
ATOM     30  C   UNL     1       1.471   4.294  19.790  0.00  0.00    +0.000 A 
ATOM     31  C   UNL     1       1.551   3.096  19.084  0.00  0.00    +0.000 A 
ATOM     32  C   UNL     1       2.357   3.018  17.952  0.00  0.00    +0.000 A 
ATOM     33  F   UNL     1       2.431   1.863  17.279  0.00  0.00    +0.000 F 
ATOM     34  C   UNL     1       3.084   4.118  17.507  0.00  0.00    +0.000 A 
ATOM     35  C   UNL     1       3.007   5.320  18.209  0.00  0.00    +0.000 A 
ENDBRANCH  28  29
ENDBRANCH   6  27
TORSDOF 6
ENDMDL
MODEL 8
REMARK VINA RESULT:      -7.3      2.898      3.811
REMARK  Name = 
REMARK  8 active torsions:
REMARK  status: ('A' for Active; 'I' for Inactive)
REMARK    1  A    between atoms: C_1  and  O_2
REMARK    2  A    between atoms: O_2  and  C_3
REMARK    3  A    between atoms: C_6  and  C_7
REMARK    4  A    between atoms: C_8  and  C_9
REMARK    5  A    between atoms: C_12  and  O_13
REMARK    6  A    between atoms: O_13  and  C_14
REMARK    7  A    between atoms: N_20  and  N_21
REMARK    8  A    between atoms: C_22  and  C_23
REMARK                            x       y       z     vdW  Elec       q    Type
REMARK                         _______ _______ _______ _____ _____    ______ ____
ROOT
ATOM      1  C   UNL     1      -0.421  10.460  19.739  0.00  0.00    +0.000 C 
ATOM      2  C   UNL     1       0.213  11.571  20.202  0.00  0.00    +0.000 C 
ATOM      3  N   UNL     1       1.212  11.443  21.159  0.00  0.00    +0.000 N 
ATOM      4  N   UNL     1       1.361  10.226  21.790  0.00  0.00    +0.000 N 
ATOM      5  C   UNL     1       0.790   9.123  21.150  0.00  0.00    +0.000 C 
ATOM      6  N   UNL     1       1.330   7.946  21.641  0.00  0.00    +0.000 N 
ATOM      7  N   UNL     1      -0.073   9.187  20.168  0.00  0.00    +0.000 NA
ATOM      8  H   UNL     1       1.370  12.286  21.707  0.00  0.00    +0.000 HD
ATOM      9  H   UNL     1       2.307  10.028  22.107  0.00  0.00    +0.000 HD
ATOM     10  H   UNL     1       1.389   7.920  22.655  0.00  0.00    +0.000 HD
ENDROOT
BRANCH   1  14
ATOM     11  C   UNL     1      -3.368  11.018  16.677  0.00  0.00    +0.000 A 
ATOM     12  C   UNL     1      -2.245  10.222  16.446  0.00  0.00    +0.000 A 
ATOM     13  C   UNL     1      -1.317   9.986  17.464  0.00  0.00    +0.000 A 
ATOM     14  C   UNL     1      -1.489  10.571  18.724  0.00  0.00    +0.000 A 
ATOM     15  C   UNL     1      -2.629  11.352  18.959  0.00  0.00    +0.000 A 
ATOM     16  C   UNL     1      -3.562  11.579  17.940  0.00  0.00    +0.000 A 
BRANCH  11  18
ATOM     17  C   UNL     1      -3.912  10.379  14.465  0.00  0.00    +0.000 C 
ATOM     18  O   UNL     1      -4.172  11.214  15.588  0.00  0.00    +0.000 OA
ENDBRANCH  11  18
ENDBRANCH   1  14
BRANCH   2  19
ATOM     19  C   UNL     1      -0.123  12.938  19.772  0.00  0.00    +0.000 A 
ATOM     20  C   UNL     1       0.391  13.427  18.570  0.00  0.00    +0.000 A 
ATOM     21  C   UNL     1       0.168  14.757  18.208  0.00  0.00    +0.000 A 
ATOM     22  C   UNL     1      -0.587  15.598  19.027  0.00  0.00    +0.000 A 
ATOM     23  C   UNL     1      -1.117  15.107  20.221  0.00  0.00    +0.000 A 
ATOM     24  C   UNL     1      -0.888  13.776  20.592  0.00  0.00    +0.000 A 
BRANCH  22  25
ATOM     25  O   UNL     1      -0.692  16.886  18.584  0.00  0.00    +0.000 OA
ATOM     26  C   UNL     1       0.522  17.498  18.170  0.00  0.00    +0.000 C 
ENDBRANCH  22  25
ENDBRANCH   2  19
BRANCH   6  27
ATOM     27  N   UNL     1       1.320   6.712  21.049  0.00  0.00    +0.000 NA
ATOM     28  C   UNL     1       2.136   6.590  20.046  0.00  0.00    +0.000 C 
BRANCH  28  29
ATOM     29  C   UNL     1       2.282   5.336  19.293  0.00  0.00    +0.000 A 
ATOM     30  C   UNL     1       3.084   5.271  18.149  0.00  0.00    +0.000 A 
ATOM     31  C   UNL     1       3.177   4.074  17.442  0.00  0.00    +0.000 A 
ATOM     32  C   UNL     1       2.470   2.959  17.884  0.00  0.00    +0.000 A 
ATOM     33  F   UNL     1       2.561   1.813  17.198  0.00  0.00    +0.000 F 
ATOM     34  C   UNL     1       1.672   3.015  19.022  0.00  0.00    +0.000 A 
ATOM     35  C   UNL     1       1.576   4.210  19.734  0.00  0.00    +0.000 A 
ENDBRANCH  28  29
ENDBRANCH   6  27
TORSDOF 6
ENDMDL
MODEL 9
REMARK VINA RESULT:      -7.3      5.119      7.274
REMARK  Name = 
REMARK  8 active torsions:
REMARK  status: ('A' for Active; 'I' for Inactive)
REMARK    1  A    between atoms: C_1  and  O_2
REMARK    2  A    between atoms: O_2  and  C_3
REMARK    3  A    between atoms: C_6  and  C_7
REMARK    4  A    between atoms: C_8  and  C_9
REMARK    5  A    between atoms: C_12  and  O_13
REMARK    6  A    between atoms: O_13  and  C_14
REMARK    7  A    between atoms: N_20  and  N_21
REMARK    8  A    between atoms: C_22  and  C_23
REMARK                            x       y       z     vdW  Elec       q    Type
REMARK                         _______ _______ _______ _____ _____    ______ ____
ROOT
ATOM      1  C   UNL     1       0.848  12.736  20.813  0.00  0.00    +0.000 C 
ATOM      2  C   UNL     1       0.959  12.382  19.503  0.00  0.00    +0.000 C 
ATOM      3  N   UNL     1       2.115  12.699  18.801  0.00  0.00    +0.000 N 
ATOM      4  N   UNL     1       3.010  13.575  19.378  0.00  0.00    +0.000 N 
ATOM      5  C   UNL     1       2.899  13.755  20.758  0.00  0.00    +0.000 C 
ATOM      6  N   UNL     1       4.058  14.315  21.268  0.00  0.00    +0.000 N 
ATOM      7  N   UNL     1       1.879  13.376  21.487  0.00  0.00    +0.000 NA
ATOM      8  H   UNL     1       1.986  12.744  17.792  0.00  0.00    +0.000 HD
ATOM      9  H   UNL     1       3.977  13.438  19.094  0.00  0.00    +0.000 HD
ATOM     10  H   UNL     1       4.404  15.098  20.720  0.00  0.00    +0.000 HD
ENDROOT
BRANCH   1  14
ATOM     11  C   UNL     1      -2.571  11.945  23.273  0.00  0.00    +0.000 A 
ATOM     12  C   UNL     1      -2.486  13.126  22.534  0.00  0.00    +0.000 A 
ATOM     13  C   UNL     1      -1.402  13.355  21.680  0.00  0.00    +0.000 A 
ATOM     14  C   UNL     1      -0.373  12.413  21.579  0.00  0.00    +0.000 A 
ATOM     15  C   UNL     1      -0.472  11.219  22.307  0.00  0.00    +0.000 A 
ATOM     16  C   UNL     1      -1.564  10.987  23.154  0.00  0.00    +0.000 A 
BRANCH  11  18
ATOM     17  C   UNL     1      -4.566  12.951  24.049  0.00  0.00    +0.000 C 
ATOM     18  O   UNL     1      -3.652  11.863  24.107  0.00  0.00    +0.000 OA
ENDBRANCH  11  18
ENDBRANCH   1  14
BRANCH   2  19
ATOM     19  C   UNL     1      -0.108  11.700  18.753  0.00  0.00    +0.000 A 
ATOM     20  C   UNL     1      -0.017  10.327  18.520  0.00  0.00    +0.000 A 
ATOM     21  C   UNL     1      -0.966   9.693  17.717  0.00  0.00    +0.000 A 
ATOM     22  C   UNL     1      -2.023  10.416  17.162  0.00  0.00    +0.000 A 
ATOM     23  C   UNL     1      -2.126  11.786  17.406  0.00  0.00    +0.000 A 
ATOM     24  C   UNL     1      -1.171  12.428  18.205  0.00  0.00    +0.000 A 
BRANCH  22  25
ATOM     25  O   UNL     1      -2.855   9.689  16.358  0.00  0.00    +0.000 OA
ATOM     26  C   UNL     1      -3.006  10.169  15.030  0.00  0.00    +0.000 C 
ENDBRANCH  22  25
ENDBRANCH   2  19
BRANCH   6  27
ATOM     27  N   UNL     1       4.488  14.308  22.568  0.00  0.00    +0.000 NA
ATOM     28  C   UNL     1       5.419  13.439  22.823  0.00  0.00    +0.000 C 
BRANCH  28  29
ATOM     29  C   UNL     1       6.021  13.293  24.155  0.00  0.00    +0.000 A 
ATOM     30  C   UNL     1       6.135  14.387  25.019  0.00  0.00    +0.000 A 
ATOM     31  C   UNL     1       6.738  14.220  26.263  0.00  0.00    +0.000 A 
ATOM     32  C   UNL     1       7.218  12.966  26.631  0.00  0.00    +0.000 A 
ATOM     33  F   UNL     1       7.799  12.812  27.828  0.00  0.00    +0.000 F 
ATOM     34  C   UNL     1       7.105  11.871  25.779  0.00  0.00    +0.000 A 
ATOM     35  C   UNL     1       6.502  12.033  24.532  0.00  0.00    +0.000 A 
ENDBRANCH  28  29
ENDBRANCH   6  27
TORSDOF 6
ENDMDL
