MODEL 1
REMARK VINA RESULT:      -7.8      0.000      0.000
REMARK  Name = 
REMARK  9 active torsions:
REMARK  status: ('A' for Active; 'I' for Inactive)
REMARK    1  A    between atoms: C_1  and  O_2
REMARK    2  A    between atoms: O_2  and  C_3
REMARK    3  A    between atoms: C_8  and  O_9
REMARK    4  A    between atoms: O_9  and  C_10
REMARK    5  A    between atoms: C_13  and  C_14
REMARK    6  A    between atoms: C_14  and  C_15
REMARK    7  A    between atoms: N_18  and  C_19
REMARK    8  A    between atoms: C_19  and  C_20
REMARK    9  A    between atoms: C_23  and  C_24
REMARK                            x       y       z     vdW  Elec       q    Type
REMARK                         _______ _______ _______ _____ _____    ______ ____
ROOT
ATOM      1  C   UNL     1       2.015   5.494  20.859  0.00  0.00    +0.000 C 
ENDROOT
BRANCH   1  10
ATOM      2  C   UNL     1       0.123  11.424  20.494  0.00  0.00    +0.000 A 
ATOM      3  C   UNL     1      -0.072  10.251  21.280  0.00  0.00    +0.000 A 
ATOM      4  C   UNL     1       0.536   9.046  20.881  0.00  0.00    +0.000 A 
ATOM      5  C   UNL     1       1.321   9.021  19.758  0.00  0.00    +0.000 A 
ATOM      6  C   UNL     1       1.537  10.142  18.967  0.00  0.00    +0.000 A 
ATOM      7  C   UNL     1       0.923  11.363  19.324  0.00  0.00    +0.000 A 
ATOM      8  C   UNL     1       1.873   7.697  19.587  0.00  0.00    +0.000 C 
ATOM      9  O   UNL     1       2.762   7.408  18.806  0.00  0.00    +0.000 OA
ATOM     10  C   UNL     1       1.149   6.738  20.490  0.00  0.00    +0.000 C 
ATOM     11  C   UNL     1       0.546   7.691  21.573  0.00  0.00    +0.000 C 
BRANCH   2  13
ATOM     12  C   UNL     1      -0.231  13.350  21.978  0.00  0.00    +0.000 C 
ATOM     13  O   UNL     1      -0.430  12.621  20.812  0.00  0.00    +0.000 OA
ENDBRANCH   2  13
BRANCH   7  14
ATOM     14  O   UNL     1       1.091  12.494  18.589  0.00  0.00    +0.000 OA
ATOM     15  C   UNL     1       2.298  12.965  18.105  0.00  0.00    +0.000 C 
ENDBRANCH   7  14
ENDBRANCH   1  10
BRANCH   1  16
ATOM     16  C   UNL     1       1.617   4.095  20.290  0.00  0.00    +0.000 C 
ATOM     17  C   UNL     1       2.756   3.057  20.487  0.00  0.00    +0.000 C 
ATOM     18  C   UNL     1       3.967   3.311  19.550  0.00  0.00    +0.000 C 
ATOM     19  N   UNL     1       3.551   3.353  18.131  0.00  0.00    +0.000 NA
ATOM     20  C   UNL     1       2.437   4.300  17.881  0.00  0.00    +0.000 C 
ATOM     21  C   UNL     1       1.233   4.039  18.798  0.00  0.00    +0.000 C 
BRANCH  19  22
ATOM     22  C   UNL     1       4.701   3.472  17.180  0.00  0.00    +0.000 C 
BRANCH  22  23
ATOM     23  C   UNL     1       5.565   4.732  17.315  0.00  0.00    +0.000 A 
ATOM     24  C   UNL     1       5.130   5.967  16.781  0.00  0.00    +0.000 A 
ATOM     25  C   UNL     1       5.918   7.126  16.911  0.00  0.00    +0.000 A 
ATOM     26  C   UNL     1       7.157   7.067  17.566  0.00  0.00    +0.000 A 
ATOM     27  C   UNL     1       8.043   8.273  17.707  0.00  0.00    +0.000 C 
ATOM     28  C   UNL     1       7.580   5.855  18.116  0.00  0.00    +0.000 A 
ATOM     29  C   UNL     1       6.789   4.710  18.008  0.00  0.00    +0.000 A 
ENDBRANCH  22  23
ENDBRANCH  19  22
ENDBRANCH   1  16
TORSDOF 6
ENDMDL
MODEL 2
REMARK VINA RESULT:      -7.3      1.001      1.125
REMARK  Name = 
REMARK  9 active torsions:
REMARK  status: ('A' for Active; 'I' for Inactive)
REMARK    1  A    between atoms: C_1  and  O_2
REMARK    2  A    between atoms: O_2  and  C_3
REMARK    3  A    between atoms: C_8  and  O_9
REMARK    4  A    between atoms: O_9  and  C_10
REMARK    5  A    between atoms: C_13  and  C_14
REMARK    6  A    between atoms: C_14  and  C_15
REMARK    7  A    between atoms: N_18  and  C_19
REMARK    8  A    between atoms: C_19  and  C_20
REMARK    9  A    between atoms: C_23  and  C_24
REMARK                            x       y       z     vdW  Elec       q    Type
REMARK                         _______ _______ _______ _____ _____    ______ ____
ROOT
ATOM      1  C   UNL     1       2.280   6.086  20.430  0.00  0.00    +0.000 C 
ENDROOT
BRANCH   1  10
ATOM      2  C   UNL     1      -0.503  11.604  21.264  0.00  0.00    +0.000 A 
ATOM      3  C   UNL     1      -0.390  10.322  21.878  0.00  0.00    +0.000 A 
ATOM      4  C   UNL     1       0.315   9.300  21.214  0.00  0.00    +0.000 A 
ATOM      5  C   UNL     1       0.898   9.556  20.000  0.00  0.00    +0.000 A 
ATOM      6  C   UNL     1       0.811  10.791  19.370  0.00  0.00    +0.000 A 
ATOM      7  C   UNL     1       0.091  11.833  19.996  0.00  0.00    +0.000 A 
ATOM      8  C   UNL     1       1.605   8.380  19.548  0.00  0.00    +0.000 C 
ATOM      9  O   UNL     1       2.384   8.352  18.613  0.00  0.00    +0.000 OA
ATOM     10  C   UNL     1       1.190   7.202  20.385  0.00  0.00    +0.000 C 
ATOM     11  C   UNL     1       0.641   7.890  21.678  0.00  0.00    +0.000 C 
BRANCH   2  13
ATOM     12  C   UNL     1      -0.720  13.440  22.882  0.00  0.00    +0.000 C 
ATOM     13  O   UNL     1      -1.167  12.637  21.840  0.00  0.00    +0.000 OA
ENDBRANCH   2  13
BRANCH   7  14
ATOM     14  O   UNL     1      -0.035  13.062  19.430  0.00  0.00    +0.000 OA
ATOM     15  C   UNL     1      -0.466  13.311  18.139  0.00  0.00    +0.000 C 
ENDBRANCH   7  14
ENDBRANCH   1  10
BRANCH   1  16
ATOM     16  C   UNL     1       1.995   4.719  19.732  0.00  0.00    +0.000 C 
ATOM     17  C   UNL     1       3.052   3.649  20.127  0.00  0.00    +0.000 C 
ATOM     18  C   UNL     1       4.439   3.911  19.484  0.00  0.00    +0.000 C 
ATOM     19  N   UNL     1       4.340   4.013  18.012  0.00  0.00    +0.000 NA
ATOM     20  C   UNL     1       3.318   4.993  17.566  0.00  0.00    +0.000 C 
ATOM     21  C   UNL     1       1.942   4.725  18.192  0.00  0.00    +0.000 C 
BRANCH  19  22
ATOM     22  C   UNL     1       5.669   4.142  17.335  0.00  0.00    +0.000 C 
BRANCH  22  23
ATOM     23  C   UNL     1       6.427   5.454  17.574  0.00  0.00    +0.000 A 
ATOM     24  C   UNL     1       6.092   6.623  16.855  0.00  0.00    +0.000 A 
ATOM     25  C   UNL     1       6.782   7.830  17.078  0.00  0.00    +0.000 A 
ATOM     26  C   UNL     1       7.823   7.883  18.016  0.00  0.00    +0.000 A 
ATOM     27  C   UNL     1       8.603   9.143  18.270  0.00  0.00    +0.000 C 
ATOM     28  C   UNL     1       8.142   6.737  18.746  0.00  0.00    +0.000 A 
ATOM     29  C   UNL     1       7.444   5.546  18.542  0.00  0.00    +0.000 A 
ENDBRANCH  22  23
ENDBRANCH  19  22
ENDBRANCH   1  16
TORSDOF 6
ENDMDL
MODEL 3
REMARK VINA RESULT:      -7.3      1.175      1.666
REMARK  Name = 
REMARK  9 active torsions:
REMARK  status: ('A' for Active; 'I' for Inactive)
REMARK    1  A    between atoms: C_1  and  O_2
REMARK    2  A    between atoms: O_2  and  C_3
REMARK    3  A    between atoms: C_8  and  O_9
REMARK    4  A    between atoms: O_9  and  C_10
REMARK    5  A    between atoms: C_13  and  C_14
REMARK    6  A    between atoms: C_14  and  C_15
REMARK    7  A    between atoms: N_18  and  C_19
REMARK    8  A    between atoms: C_19  and  C_20
REMARK    9  A    between atoms: C_23  and  C_24
REMARK                            x       y       z     vdW  Elec       q    Type
REMARK                         _______ _______ _______ _____ _____    ______ ____
ROOT
ATOM      1  C   UNL     1       2.370   6.340  20.339  0.00  0.00    +0.000 C 
ENDROOT
BRANCH   1  10
ATOM      2  C   UNL     1      -0.466  11.743  21.622  0.00  0.00    +0.000 A 
ATOM      3  C   UNL     1      -0.186  10.477  22.215  0.00  0.00    +0.000 A 
ATOM      4  C   UNL     1       0.434   9.477  21.442  0.00  0.00    +0.000 A 
ATOM      5  C   UNL     1       0.777   9.740  20.141  0.00  0.00    +0.000 A 
ATOM      6  C   UNL     1       0.522  10.960  19.528  0.00  0.00    +0.000 A 
ATOM      7  C   UNL     1      -0.120  11.979  20.267  0.00  0.00    +0.000 A 
ATOM      8  C   UNL     1       1.443   8.588  19.578  0.00  0.00    +0.000 C 
ATOM      9  O   UNL     1       2.043   8.579  18.518  0.00  0.00    +0.000 OA
ATOM     10  C   UNL     1       1.240   7.406  20.484  0.00  0.00    +0.000 C 
ATOM     11  C   UNL     1       0.901   8.089  21.849  0.00  0.00    +0.000 C 
BRANCH   2  13
ATOM     12  C   UNL     1      -2.387  12.817  22.713  0.00  0.00    +0.000 C 
ATOM     13  O   UNL     1      -1.062  12.755  22.301  0.00  0.00    +0.000 OA
ENDBRANCH   2  13
BRANCH   7  14
ATOM     14  O   UNL     1      -0.401  13.192  19.723  0.00  0.00    +0.000 OA
ATOM     15  C   UNL     1       0.148  13.697  18.558  0.00  0.00    +0.000 C 
ENDBRANCH   7  14
ENDBRANCH   1  10
BRANCH   1  16
ATOM     16  C   UNL     1       2.067   5.012  19.576  0.00  0.00    +0.000 C 
ATOM     17  C   UNL     1       3.051   3.882  19.989  0.00  0.00    +0.000 C 
ATOM     18  C   UNL     1       4.484   4.103  19.434  0.00  0.00    +0.000 C 
ATOM     19  N   UNL     1       4.473   4.261  17.964  0.00  0.00    +0.000 NA
ATOM     20  C   UNL     1       3.522   5.301  17.499  0.00  0.00    +0.000 C 
ATOM     21  C   UNL     1       2.102   5.074  18.036  0.00  0.00    +0.000 C 
BRANCH  19  22
ATOM     22  C   UNL     1       5.843   4.353  17.367  0.00  0.00    +0.000 C 
BRANCH  22  23
ATOM     23  C   UNL     1       6.625   5.640  17.660  0.00  0.00    +0.000 A 
ATOM     24  C   UNL     1       7.592   5.678  18.690  0.00  0.00    +0.000 A 
ATOM     25  C   UNL     1       8.317   6.856  18.955  0.00  0.00    +0.000 A 
ATOM     26  C   UNL     1       8.078   8.015  18.203  0.00  0.00    +0.000 A 
ATOM     27  C   UNL     1       8.809   9.302  18.466  0.00  0.00    +0.000 C 
ATOM     28  C   UNL     1       7.140   7.975  17.169  0.00  0.00    +0.000 A 
ATOM     29  C   UNL     1       6.438   6.802  16.890  0.00  0.00    +0.000 A 
ENDBRANCH  22  23
ENDBRANCH  19  22
ENDBRANCH   1  16
TORSDOF 6
ENDMDL
MODEL 4
REMARK VINA RESULT:      -7.3      3.248      9.771
REMARK  Name = 
REMARK  9 active torsions:
REMARK  status: ('A' for Active; 'I' for Inactive)
REMARK    1  A    between atoms: C_1  and  O_2
REMARK    2  A    between atoms: O_2  and  C_3
REMARK    3  A    between atoms: C_8  and  O_9
REMARK    4  A    between atoms: O_9  and  C_10
REMARK    5  A    between atoms: C_13  and  C_14
REMARK    6  A    between atoms: C_14  and  C_15
REMARK    7  A    between atoms: N_18  and  C_19
REMARK    8  A    between atoms: C_19  and  C_20
REMARK    9  A    between atoms: C_23  and  C_24
REMARK                            x       y       z     vdW  Elec       q    Type
REMARK                         _______ _______ _______ _____ _____    ______ ____
ROOT
ATOM      1  C   UNL     1       1.092   9.528  19.448  0.00  0.00    +0.000 C 
ENDROOT
BRANCH   1  10
ATOM      2  C   UNL     1       5.020   4.982  17.780  0.00  0.00    +0.000 A 
ATOM      3  C   UNL     1       4.487   6.211  17.293  0.00  0.00    +0.000 A 
ATOM      4  C   UNL     1       3.484   6.867  18.034  0.00  0.00    +0.000 A 
ATOM      5  C   UNL     1       3.053   6.328  19.217  0.00  0.00    +0.000 A 
ATOM      6  C   UNL     1       3.549   5.134  19.725  0.00  0.00    +0.000 A 
ATOM      7  C   UNL     1       4.538   4.436  18.997  0.00  0.00    +0.000 A 
ATOM      8  C   UNL     1       2.070   7.203  19.814  0.00  0.00    +0.000 C 
ATOM      9  O   UNL     1       1.651   7.106  20.953  0.00  0.00    +0.000 OA
ATOM     10  C   UNL     1       1.625   8.214  18.795  0.00  0.00    +0.000 C 
ATOM     11  C   UNL     1       2.812   8.206  17.777  0.00  0.00    +0.000 C 
BRANCH   2  13
ATOM     12  C   UNL     1       7.135   4.810  16.541  0.00  0.00    +0.000 C 
ATOM     13  O   UNL     1       5.985   4.290  17.123  0.00  0.00    +0.000 OA
ENDBRANCH   2  13
BRANCH   7  14
ATOM     14  O   UNL     1       5.060   3.262  19.437  0.00  0.00    +0.000 OA
ATOM     15  C   UNL     1       4.330   2.176  19.887  0.00  0.00    +0.000 C 
ENDBRANCH   7  14
ENDBRANCH   1  10
BRANCH   1  16
ATOM     16  C   UNL     1       0.599  10.688  18.527  0.00  0.00    +0.000 C 
ATOM     17  C   UNL     1       1.441  11.977  18.738  0.00  0.00    +0.000 C 
ATOM     18  C   UNL     1       1.147  12.669  20.096  0.00  0.00    +0.000 C 
ATOM     19  N   UNL     1      -0.293  12.967  20.248  0.00  0.00    +0.000 NA
ATOM     20  C   UNL     1      -1.158  11.783  20.021  0.00  0.00    +0.000 C 
ATOM     21  C   UNL     1      -0.877  11.107  18.671  0.00  0.00    +0.000 C 
BRANCH  19  22
ATOM     22  C   UNL     1      -0.609  13.745  21.487  0.00  0.00    +0.000 C 
BRANCH  22  23
ATOM     23  C   UNL     1      -1.994  13.507  22.103  0.00  0.00    +0.000 A 
ATOM     24  C   UNL     1      -2.160  12.608  23.181  0.00  0.00    +0.000 A 
ATOM     25  C   UNL     1      -3.429  12.393  23.752  0.00  0.00    +0.000 A 
ATOM     26  C   UNL     1      -4.551  13.066  23.249  0.00  0.00    +0.000 A 
ATOM     27  C   UNL     1      -5.929  12.851  23.811  0.00  0.00    +0.000 C 
ATOM     28  C   UNL     1      -4.389  13.973  22.200  0.00  0.00    +0.000 A 
ATOM     29  C   UNL     1      -3.127  14.204  21.647  0.00  0.00    +0.000 A 
ENDBRANCH  22  23
ENDBRANCH  19  22
ENDBRANCH   1  16
TORSDOF 6
ENDMDL
MODEL 5
REMARK VINA RESULT:      -7.3      3.390      9.864
REMARK  Name = 
REMARK  9 active torsions:
REMARK  status: ('A' for Active; 'I' for Inactive)
REMARK    1  A    between atoms: C_1  and  O_2
REMARK    2  A    between atoms: O_2  and  C_3
REMARK    3  A    between atoms: C_8  and  O_9
REMARK    4  A    between atoms: O_9  and  C_10
REMARK    5  A    between atoms: C_13  and  C_14
REMARK    6  A    between atoms: C_14  and  C_15
REMARK    7  A    between atoms: N_18  and  C_19
REMARK    8  A    between atoms: C_19  and  C_20
REMARK    9  A    between atoms: C_23  and  C_24
REMARK                            x       y       z     vdW  Elec       q    Type
REMARK                         _______ _______ _______ _____ _____    ______ ____
ROOT
ATOM      1  C   UNL     1       1.324   9.623  19.333  0.00  0.00    +0.000 C 
ENDROOT
BRANCH   1  10
ATOM      2  C   UNL     1       5.038   4.908  17.643  0.00  0.00    +0.000 A 
ATOM      3  C   UNL     1       4.585   6.175  17.176  0.00  0.00    +0.000 A 
ATOM      4  C   UNL     1       3.602   6.868  17.908  0.00  0.00    +0.000 A 
ATOM      5  C   UNL     1       3.112   6.326  19.068  0.00  0.00    +0.000 A 
ATOM      6  C   UNL     1       3.529   5.095  19.557  0.00  0.00    +0.000 A 
ATOM      7  C   UNL     1       4.496   4.360  18.834  0.00  0.00    +0.000 A 
ATOM      8  C   UNL     1       2.165   7.240  19.663  0.00  0.00    +0.000 C 
ATOM      9  O   UNL     1       1.712   7.139  20.789  0.00  0.00    +0.000 OA
ATOM     10  C   UNL     1       1.800   8.298  18.660  0.00  0.00    +0.000 C 
ATOM     11  C   UNL     1       3.010   8.249  17.670  0.00  0.00    +0.000 C 
BRANCH   2  13
ATOM     12  C   UNL     1       6.131   4.049  15.617  0.00  0.00    +0.000 C 
ATOM     13  O   UNL     1       5.980   4.179  16.992  0.00  0.00    +0.000 OA
ENDBRANCH   2  13
BRANCH   7  14
ATOM     14  O   UNL     1       4.942   3.149  19.258  0.00  0.00    +0.000 OA
ATOM     15  C   UNL     1       4.347   2.370  20.234  0.00  0.00    +0.000 C 
ENDBRANCH   7  14
ENDBRANCH   1  10
BRANCH   1  16
ATOM     16  C   UNL     1       0.348  10.561  18.555  0.00  0.00    +0.000 C 
ATOM     17  C   UNL     1       0.827  12.039  18.597  0.00  0.00    +0.000 C 
ATOM     18  C   UNL     1       0.649  12.688  19.995  0.00  0.00    +0.000 C 
ATOM     19  N   UNL     1      -0.752  12.591  20.459  0.00  0.00    +0.000 NA
ATOM     20  C   UNL     1      -1.285  11.207  20.408  0.00  0.00    +0.000 C 
ATOM     21  C   UNL     1      -1.121  10.570  19.020  0.00  0.00    +0.000 C 
BRANCH  19  22
ATOM     22  C   UNL     1      -1.001  13.311  21.748  0.00  0.00    +0.000 C 
BRANCH  22  23
ATOM     23  C   UNL     1      -2.420  13.203  22.321  0.00  0.00    +0.000 A 
ATOM     24  C   UNL     1      -3.522  13.752  21.628  0.00  0.00    +0.000 A 
ATOM     25  C   UNL     1      -4.827  13.648  22.149  0.00  0.00    +0.000 A 
ATOM     26  C   UNL     1      -5.046  13.003  23.375  0.00  0.00    +0.000 A 
ATOM     27  C   UNL     1      -6.417  12.889  23.982  0.00  0.00    +0.000 C 
ATOM     28  C   UNL     1      -3.963  12.439  24.052  0.00  0.00    +0.000 A 
ATOM     29  C   UNL     1      -2.673  12.522  23.525  0.00  0.00    +0.000 A 
ENDBRANCH  22  23
ENDBRANCH  19  22
ENDBRANCH   1  16
TORSDOF 6
ENDMDL
MODEL 6
REMARK VINA RESULT:      -7.2      3.069      8.781
REMARK  Name = 
REMARK  9 active torsions:
REMARK  status: ('A' for Active; 'I' for Inactive)
REMARK    1  A    between atoms: C_1  and  O_2
REMARK    2  A    between atoms: O_2  and  C_3
REMARK    3  A    between atoms: C_8  and  O_9
REMARK    4  A    between atoms: O_9  and  C_10
REMARK    5  A    between atoms: C_13  and  C_14
REMARK    6  A    between atoms: C_14  and  C_15
REMARK    7  A    between atoms: N_18  and  C_19
REMARK    8  A    between atoms: C_19  and  C_20
REMARK    9  A    between atoms: C_23  and  C_24
REMARK                            x       y       z     vdW  Elec       q    Type
REMARK                         _______ _______ _______ _____ _____    ______ ____
ROOT
ATOM      1  C   UNL     1       1.159   9.722  19.115  0.00  0.00    +0.000 C 
ENDROOT
BRANCH   1  10
ATOM      2  C   UNL     1       5.046   5.038  17.761  0.00  0.00    +0.000 A 
ATOM      3  C   UNL     1       4.521   6.234  17.191  0.00  0.00    +0.000 A 
ATOM      4  C   UNL     1       3.526   6.949  17.885  0.00  0.00    +0.000 A 
ATOM      5  C   UNL     1       3.093   6.498  19.105  0.00  0.00    +0.000 A 
ATOM      6  C   UNL     1       3.581   5.338  19.694  0.00  0.00    +0.000 A 
ATOM      7  C   UNL     1       4.562   4.582  19.014  0.00  0.00    +0.000 A 
ATOM      8  C   UNL     1       2.119   7.421  19.641  0.00  0.00    +0.000 C 
ATOM      9  O   UNL     1       1.702   7.407  20.784  0.00  0.00    +0.000 OA
ATOM     10  C   UNL     1       1.679   8.362  18.554  0.00  0.00    +0.000 C 
ATOM     11  C   UNL     1       2.864   8.272  17.537  0.00  0.00    +0.000 C 
BRANCH   2  13
ATOM     12  C   UNL     1       6.262   4.219  15.790  0.00  0.00    +0.000 C 
ATOM     13  O   UNL     1       6.004   4.294  17.153  0.00  0.00    +0.000 OA
ENDBRANCH   2  13
BRANCH   7  14
ATOM     14  O   UNL     1       5.076   3.437  19.535  0.00  0.00    +0.000 OA
ATOM     15  C   UNL     1       4.352   2.299  19.842  0.00  0.00    +0.000 C 
ENDBRANCH   7  14
ENDBRANCH   1  10
BRANCH   1  16
ATOM     16  C   UNL     1      -0.282   9.796  19.711  0.00  0.00    +0.000 C 
ATOM     17  C   UNL     1      -1.161  10.825  18.946  0.00  0.00    +0.000 C 
ATOM     18  C   UNL     1      -0.754  12.294  19.237  0.00  0.00    +0.000 C 
ATOM     19  N   UNL     1      -0.774  12.581  20.687  0.00  0.00    +0.000 NA
ATOM     20  C   UNL     1       0.017  11.609  21.483  0.00  0.00    +0.000 C 
ATOM     21  C   UNL     1      -0.396  10.157  21.205  0.00  0.00    +0.000 C 
BRANCH  19  22
ATOM     22  C   UNL     1      -0.509  14.018  21.011  0.00  0.00    +0.000 C 
BRANCH  22  23
ATOM     23  C   UNL     1       0.407  14.774  20.041  0.00  0.00    +0.000 A 
ATOM     24  C   UNL     1      -0.080  15.871  19.294  0.00  0.00    +0.000 A 
ATOM     25  C   UNL     1       0.762  16.571  18.409  0.00  0.00    +0.000 A 
ATOM     26  C   UNL     1       2.098  16.179  18.249  0.00  0.00    +0.000 A 
ATOM     27  C   UNL     1       3.027  16.881  17.297  0.00  0.00    +0.000 C 
ATOM     28  C   UNL     1       2.591  15.111  19.002  0.00  0.00    +0.000 A 
ATOM     29  C   UNL     1       1.763  14.431  19.897  0.00  0.00    +0.000 A 
ENDBRANCH  22  23
ENDBRANCH  19  22
ENDBRANCH   1  16
TORSDOF 6
ENDMDL
MODEL 7
REMARK VINA RESULT:      -7.2      3.627     10.058
REMARK  Name = 
REMARK  9 active torsions:
REMARK  status: ('A' for Active; 'I' for Inactive)
REMARK    1  A    between atoms: C_1  and  O_2
REMARK    2  A    between atoms: O_2  and  C_3
REMARK    3  A    between atoms: C_8  and  O_9
REMARK    4  A    between atoms: O_9  and  C_10
REMARK    5  A    between atoms: C_13  and  C_14
REMARK    6  A    between atoms: C_14  and  C_15
REMARK    7  A    between atoms: N_18  and  C_19
REMARK    8  A    between atoms: C_19  and  C_20
REMARK    9  A    between atoms: C_23  and  C_24
REMARK                            x       y       z     vdW  Elec       q    Type
REMARK                         _______ _______ _______ _____ _____    ______ ____
ROOT
ATOM      1  C   UNL     1       1.295  10.885  19.205  0.00  0.00    +0.000 C 
ENDROOT
BRANCH   1  10
ATOM      2  C   UNL     1       3.325   5.020  18.606  0.00  0.00    +0.000 A 
ATOM      3  C   UNL     1       3.240   6.237  17.870  0.00  0.00    +0.000 A 
ATOM      4  C   UNL     1       2.556   7.334  18.429  0.00  0.00    +0.000 A 
ATOM      5  C   UNL     1       2.002   7.223  19.677  0.00  0.00    +0.000 A 
ATOM      6  C   UNL     1       2.064   6.055  20.426  0.00  0.00    +0.000 A 
ATOM      7  C   UNL     1       2.722   4.927  19.886  0.00  0.00    +0.000 A 
ATOM      8  C   UNL     1       1.408   8.485  20.054  0.00  0.00    +0.000 C 
ATOM      9  O   UNL     1       1.019   8.766  21.172  0.00  0.00    +0.000 OA
ATOM     10  C   UNL     1       1.312   9.368  18.841  0.00  0.00    +0.000 C 
ATOM     11  C   UNL     1       2.388   8.746  17.891  0.00  0.00    +0.000 C 
BRANCH   2  13
ATOM     12  C   UNL     1       3.395   2.851  17.455  0.00  0.00    +0.000 C 
ATOM     13  O   UNL     1       3.964   3.920  18.134  0.00  0.00    +0.000 OA
ENDBRANCH   2  13
BRANCH   7  14
ATOM     14  O   UNL     1       2.813   3.754  20.567  0.00  0.00    +0.000 OA
ATOM     15  C   UNL     1       2.116   3.438  21.720  0.00  0.00    +0.000 C 
ENDBRANCH   7  14
ENDBRANCH   1  10
BRANCH   1  16
ATOM     16  C   UNL     1       0.108  11.771  18.710  0.00  0.00    +0.000 C 
ATOM     17  C   UNL     1       0.290  13.255  19.137  0.00  0.00    +0.000 C 
ATOM     18  C   UNL     1       0.075  13.471  20.658  0.00  0.00    +0.000 C 
ATOM     19  N   UNL     1      -1.248  12.973  21.091  0.00  0.00    +0.000 NA
ATOM     20  C   UNL     1      -1.502  11.570  20.681  0.00  0.00    +0.000 C 
ATOM     21  C   UNL     1      -1.303  11.359  19.173  0.00  0.00    +0.000 C 
BRANCH  19  22
ATOM     22  C   UNL     1      -1.553  13.271  22.526  0.00  0.00    +0.000 C 
BRANCH  22  23
ATOM     23  C   UNL     1      -3.033  13.233  22.927  0.00  0.00    +0.000 A 
ATOM     24  C   UNL     1      -4.009  13.895  22.149  0.00  0.00    +0.000 A 
ATOM     25  C   UNL     1      -5.370  13.855  22.511  0.00  0.00    +0.000 A 
ATOM     26  C   UNL     1      -5.772  13.161  23.661  0.00  0.00    +0.000 A 
ATOM     27  C   UNL     1      -7.210  13.110  24.100  0.00  0.00    +0.000 C 
ATOM     28  C   UNL     1      -4.815  12.485  24.420  0.00  0.00    +0.000 A 
ATOM     29  C   UNL     1      -3.469  12.505  24.049  0.00  0.00    +0.000 A 
ENDBRANCH  22  23
ENDBRANCH  19  22
ENDBRANCH   1  16
TORSDOF 6
ENDMDL
MODEL 8
REMARK VINA RESULT:      -7.2      3.306      9.869
REMARK  Name = 
REMARK  9 active torsions:
REMARK  status: ('A' for Active; 'I' for Inactive)
REMARK    1  A    between atoms: C_1  and  O_2
REMARK    2  A    between atoms: O_2  and  C_3
REMARK    3  A    between atoms: C_8  and  O_9
REMARK    4  A    between atoms: O_9  and  C_10
REMARK    5  A    between atoms: C_13  and  C_14
REMARK    6  A    between atoms: C_14  and  C_15
REMARK    7  A    between atoms: N_18  and  C_19
REMARK    8  A    between atoms: C_19  and  C_20
REMARK    9  A    between atoms: C_23  and  C_24
REMARK                            x       y       z     vdW  Elec       q    Type
REMARK                         _______ _______ _______ _____ _____    ______ ____
ROOT
ATOM      1  C   UNL     1       1.795  10.360  18.904  0.00  0.00    +0.000 C 
ENDROOT
BRANCH   1  10
ATOM      2  C   UNL     1       3.225   4.291  18.886  0.00  0.00    +0.000 A 
ATOM      3  C   UNL     1       3.217   5.423  18.021  0.00  0.00    +0.000 A 
ATOM      4  C   UNL     1       2.671   6.637  18.481  0.00  0.00    +0.000 A 
ATOM      5  C   UNL     1       2.176   6.718  19.756  0.00  0.00    +0.000 A 
ATOM      6  C   UNL     1       2.168   5.638  20.630  0.00  0.00    +0.000 A 
ATOM      7  C   UNL     1       2.686   4.397  20.193  0.00  0.00    +0.000 A 
ATOM      8  C   UNL     1       1.726   8.067  20.013  0.00  0.00    +0.000 C 
ATOM      9  O   UNL     1       1.426   8.504  21.109  0.00  0.00    +0.000 OA
ATOM     10  C   UNL     1       1.649   8.818  18.714  0.00  0.00    +0.000 C 
ATOM     11  C   UNL     1       2.608   7.992  17.795  0.00  0.00    +0.000 C 
BRANCH   2  13
ATOM     12  C   UNL     1       3.059   2.067  17.854  0.00  0.00    +0.000 C 
ATOM     13  O   UNL     1       3.732   3.088  18.514  0.00  0.00    +0.000 OA
ENDBRANCH   2  13
BRANCH   7  14
ATOM     14  O   UNL     1       2.703   3.303  20.998  0.00  0.00    +0.000 OA
ATOM     15  C   UNL     1       1.588   2.686  21.539  0.00  0.00    +0.000 C 
ENDBRANCH   7  14
ENDBRANCH   1  10
BRANCH   1  16
ATOM     16  C   UNL     1       0.595  11.288  18.532  0.00  0.00    +0.000 C 
ATOM     17  C   UNL     1       0.778  12.715  19.119  0.00  0.00    +0.000 C 
ATOM     18  C   UNL     1       0.588  12.759  20.659  0.00  0.00    +0.000 C 
ATOM     19  N   UNL     1      -0.725  12.206  21.055  0.00  0.00    +0.000 NA
ATOM     20  C   UNL     1      -0.980  10.856  20.494  0.00  0.00    +0.000 C 
ATOM     21  C   UNL     1      -0.806  10.817  18.969  0.00  0.00    +0.000 C 
BRANCH  19  22
ATOM     22  C   UNL     1      -1.008  12.340  22.519  0.00  0.00    +0.000 C 
BRANCH  22  23
ATOM     23  C   UNL     1      -2.324  13.032  22.895  0.00  0.00    +0.000 A 
ATOM     24  C   UNL     1      -2.342  14.083  23.839  0.00  0.00    +0.000 A 
ATOM     25  C   UNL     1      -3.548  14.725  24.181  0.00  0.00    +0.000 A 
ATOM     26  C   UNL     1      -4.754  14.318  23.592  0.00  0.00    +0.000 A 
ATOM     27  C   UNL     1      -6.069  14.957  23.944  0.00  0.00    +0.000 C 
ATOM     28  C   UNL     1      -4.738  13.295  22.641  0.00  0.00    +0.000 A 
ATOM     29  C   UNL     1      -3.539  12.674  22.285  0.00  0.00    +0.000 A 
ENDBRANCH  22  23
ENDBRANCH  19  22
ENDBRANCH   1  16
TORSDOF 6
ENDMDL
MODEL 9
REMARK VINA RESULT:      -7.0      3.072      8.671
REMARK  Name = 
REMARK  9 active torsions:
REMARK  status: ('A' for Active; 'I' for Inactive)
REMARK    1  A    between atoms: C_1  and  O_2
REMARK    2  A    between atoms: O_2  and  C_3
REMARK    3  A    between atoms: C_8  and  O_9
REMARK    4  A    between atoms: O_9  and  C_10
REMARK    5  A    between atoms: C_13  and  C_14
REMARK    6  A    between atoms: C_14  and  C_15
REMARK    7  A    between atoms: N_18  and  C_19
REMARK    8  A    between atoms: C_19  and  C_20
REMARK    9  A    between atoms: C_23  and  C_24
REMARK                            x       y       z     vdW  Elec       q    Type
REMARK                         _______ _______ _______ _____ _____    ______ ____
ROOT
ATOM      1  C   UNL     1       1.168   9.787  19.034  0.00  0.00    +0.000 C 
ENDROOT
BRANCH   1  10
ATOM      2  C   UNL     1       5.023   5.047  17.791  0.00  0.00    +0.000 A 
ATOM      3  C   UNL     1       4.513   6.238  17.196  0.00  0.00    +0.000 A 
ATOM      4  C   UNL     1       3.520   6.973  17.871  0.00  0.00    +0.000 A 
ATOM      5  C   UNL     1       3.073   6.546  19.094  0.00  0.00    +0.000 A 
ATOM      6  C   UNL     1       3.546   5.393  19.707  0.00  0.00    +0.000 A 
ATOM      7  C   UNL     1       4.526   4.617  19.048  0.00  0.00    +0.000 A 
ATOM      8  C   UNL     1       2.103   7.487  19.607  0.00  0.00    +0.000 C 
ATOM      9  O   UNL     1       1.677   7.497  20.747  0.00  0.00    +0.000 OA
ATOM     10  C   UNL     1       1.680   8.413  18.501  0.00  0.00    +0.000 C 
ATOM     11  C   UNL     1       2.872   8.296  17.495  0.00  0.00    +0.000 C 
BRANCH   2  13
ATOM     12  C   UNL     1       7.312   4.622  17.006  0.00  0.00    +0.000 C 
ATOM     13  O   UNL     1       5.979   4.284  17.203  0.00  0.00    +0.000 OA
ENDBRANCH   2  13
BRANCH   7  14
ATOM     14  O   UNL     1       5.025   3.477  19.592  0.00  0.00    +0.000 OA
ATOM     15  C   UNL     1       4.290   2.346  19.903  0.00  0.00    +0.000 C 
ENDBRANCH   7  14
ENDBRANCH   1  10
BRANCH   1  16
ATOM     16  C   UNL     1      -0.293   9.894  19.577  0.00  0.00    +0.000 C 
ATOM     17  C   UNL     1      -1.228  10.598  18.555  0.00  0.00    +0.000 C 
ATOM     18  C   UNL     1      -0.951  12.121  18.439  0.00  0.00    +0.000 C 
ATOM     19  N   UNL     1      -1.039  12.786  19.757  0.00  0.00    +0.000 NA
ATOM     20  C   UNL     1      -0.197  12.137  20.792  0.00  0.00    +0.000 C 
ATOM     21  C   UNL     1      -0.481  10.633  20.916  0.00  0.00    +0.000 C 
BRANCH  19  22
ATOM     22  C   UNL     1      -0.902  14.275  19.681  0.00  0.00    +0.000 C 
BRANCH  22  23
ATOM     23  C   UNL     1       0.473  14.808  19.261  0.00  0.00    +0.000 A 
ATOM     24  C   UNL     1       1.475  13.930  18.790  0.00  0.00    +0.000 A 
ATOM     25  C   UNL     1       2.736  14.419  18.397  0.00  0.00    +0.000 A 
ATOM     26  C   UNL     1       3.016  15.791  18.478  0.00  0.00    +0.000 A 
ATOM     27  C   UNL     1       4.356  16.355  18.093  0.00  0.00    +0.000 C 
ATOM     28  C   UNL     1       2.021  16.665  18.920  0.00  0.00    +0.000 A 
ATOM     29  C   UNL     1       0.764  16.184  19.289  0.00  0.00    +0.000 A 
ENDBRANCH  22  23
ENDBRANCH  19  22
ENDBRANCH   1  16
TORSDOF 6
ENDMDL
