MODEL 1
REMARK VINA RESULT:      -8.7      0.000      0.000
REMARK  Name = 
REMARK  5 active torsions:
REMARK  status: ('A' for Active; 'I' for Inactive)
REMARK    1  A    between atoms: C_1  and  C_2
REMARK    2  A    between atoms: C_5  and  N_6
REMARK    3  A    between atoms: N_8  and  C_9
REMARK    4  A    between atoms: C_9  and  C_10
REMARK    5  A    between atoms: C_17  and  C_18
REMARK                            x       y       z     vdW  Elec       q    Type
REMARK                         _______ _______ _______ _____ _____    ______ ____
ROOT
ATOM      1  N   UNL     1       3.932   6.122  17.785  0.00  0.00    +0.000 N 
ATOM      2  N   UNL     1       4.919   6.543  17.008  0.00  0.00    +0.000 NA
ATOM      3  N   UNL     1       5.697   5.474  16.938  0.00  0.00    +0.000 N 
ATOM      4  C   UNL     1       5.215   4.378  17.640  0.00  0.00    +0.000 A 
ATOM      5  C   UNL     1       3.983   4.759  18.127  0.00  0.00    +0.000 A 
ENDROOT
BRANCH   1  10
ATOM      6  C   UNL     1       0.208  10.111  19.584  0.00  0.00    +0.000 C 
ATOM      7  C   UNL     1       1.282   9.161  19.137  0.00  0.00    +0.000 A 
ATOM      8  C   UNL     1       1.877   9.268  17.874  0.00  0.00    +0.000 A 
ATOM      9  C   UNL     1       2.779   8.294  17.434  0.00  0.00    +0.000 A 
ATOM     10  C   UNL     1       3.068   7.207  18.262  0.00  0.00    +0.000 A 
ATOM     11  C   UNL     1       2.537   7.126  19.546  0.00  0.00    +0.000 A 
ATOM     12  C   UNL     1       1.636   8.097  19.975  0.00  0.00    +0.000 A 
ENDBRANCH   1  10
BRANCH   5  13
ATOM     13  C   UNL     1       2.972   3.871  18.770  0.00  0.00    +0.000 A 
ATOM     14  C   UNL     1       3.149   3.431  20.087  0.00  0.00    +0.000 A 
ATOM     15  C   UNL     1       2.167   2.642  20.693  0.00  0.00    +0.000 A 
ATOM     16  C   UNL     1       1.032   2.268  19.978  0.00  0.00    +0.000 A 
ATOM     17  C   UNL     1       0.882   2.666  18.654  0.00  0.00    +0.000 A 
ATOM     18  C   UNL     1       1.848   3.465  18.045  0.00  0.00    +0.000 A 
ENDBRANCH   5  13
BRANCH   3  19
ATOM     19  C   UNL     1       6.896   5.518  16.097  0.00  0.00    +0.000 C 
BRANCH  19  20
ATOM     20  C   UNL     1       6.612   4.911  14.748  0.00  0.00    +0.000 A 
ATOM     21  C   UNL     1       7.535   5.034  13.696  0.00  0.00    +0.000 A 
ATOM     22  C   UNL     1       7.290   4.427  12.462  0.00  0.00    +0.000 A 
ATOM     23  C   UNL     1       6.122   3.693  12.263  0.00  0.00    +0.000 A 
ATOM     24  C   UNL     1       5.196   3.566  13.294  0.00  0.00    +0.000 A 
ATOM     25  C   UNL     1       5.441   4.167  14.531  0.00  0.00    +0.000 A 
ENDBRANCH  19  20
ENDBRANCH   3  19
TORSDOF 4
ENDMDL
MODEL 2
REMARK VINA RESULT:      -8.6      0.393      1.045
REMARK  Name = 
REMARK  5 active torsions:
REMARK  status: ('A' for Active; 'I' for Inactive)
REMARK    1  A    between atoms: C_1  and  C_2
REMARK    2  A    between atoms: C_5  and  N_6
REMARK    3  A    between atoms: N_8  and  C_9
REMARK    4  A    between atoms: C_9  and  C_10
REMARK    5  A    between atoms: C_17  and  C_18
REMARK                            x       y       z     vdW  Elec       q    Type
REMARK                         _______ _______ _______ _____ _____    ______ ____
ROOT
ATOM      1  N   UNL     1       3.696   6.330  17.977  0.00  0.00    +0.000 N 
ATOM      2  N   UNL     1       4.685   6.775  17.216  0.00  0.00    +0.000 NA
ATOM      3  N   UNL     1       5.507   5.737  17.189  0.00  0.00    +0.000 N 
ATOM      4  C   UNL     1       5.051   4.637  17.901  0.00  0.00    +0.000 A 
ATOM      5  C   UNL     1       3.793   4.977  18.349  0.00  0.00    +0.000 A 
ENDROOT
BRANCH   1  10
ATOM      6  C   UNL     1       0.445  10.734  19.726  0.00  0.00    +0.000 C 
ATOM      7  C   UNL     1       1.178   9.509  19.258  0.00  0.00    +0.000 A 
ATOM      8  C   UNL     1       1.433   8.433  20.118  0.00  0.00    +0.000 A 
ATOM      9  C   UNL     1       2.229   7.365  19.694  0.00  0.00    +0.000 A 
ATOM     10  C   UNL     1       2.777   7.389  18.410  0.00  0.00    +0.000 A 
ATOM     11  C   UNL     1       2.474   8.417  17.522  0.00  0.00    +0.000 A 
ATOM     12  C   UNL     1       1.686   9.481  17.954  0.00  0.00    +0.000 A 
ENDBRANCH   1  10
BRANCH   5  13
ATOM     13  C   UNL     1       2.802   4.062  18.985  0.00  0.00    +0.000 A 
ATOM     14  C   UNL     1       2.861   3.795  20.358  0.00  0.00    +0.000 A 
ATOM     15  C   UNL     1       1.895   2.976  20.948  0.00  0.00    +0.000 A 
ATOM     16  C   UNL     1       0.893   2.402  20.167  0.00  0.00    +0.000 A 
ATOM     17  C   UNL     1       0.865   2.631  18.796  0.00  0.00    +0.000 A 
ATOM     18  C   UNL     1       1.816   3.458  18.200  0.00  0.00    +0.000 A 
ENDBRANCH   5  13
BRANCH   3  19
ATOM     19  C   UNL     1       6.725   5.813  16.378  0.00  0.00    +0.000 C 
BRANCH  19  20
ATOM     20  C   UNL     1       6.518   5.121  15.056  0.00  0.00    +0.000 A 
ATOM     21  C   UNL     1       7.506   5.166  14.058  0.00  0.00    +0.000 A 
ATOM     22  C   UNL     1       7.330   4.481  12.854  0.00  0.00    +0.000 A 
ATOM     23  C   UNL     1       6.167   3.746  12.630  0.00  0.00    +0.000 A 
ATOM     24  C   UNL     1       5.178   3.695  13.607  0.00  0.00    +0.000 A 
ATOM     25  C   UNL     1       5.352   4.374  14.814  0.00  0.00    +0.000 A 
ENDBRANCH  19  20
ENDBRANCH   3  19
TORSDOF 4
ENDMDL
MODEL 3
REMARK VINA RESULT:      -8.6      0.310      1.014
REMARK  Name = 
REMARK  5 active torsions:
REMARK  status: ('A' for Active; 'I' for Inactive)
REMARK    1  A    between atoms: C_1  and  C_2
REMARK    2  A    between atoms: C_5  and  N_6
REMARK    3  A    between atoms: N_8  and  C_9
REMARK    4  A    between atoms: C_9  and  C_10
REMARK    5  A    between atoms: C_17  and  C_18
REMARK                            x       y       z     vdW  Elec       q    Type
REMARK                         _______ _______ _______ _____ _____    ______ ____
ROOT
ATOM      1  N   UNL     1       3.768   6.314  17.937  0.00  0.00    +0.000 N 
ATOM      2  N   UNL     1       4.761   6.743  17.172  0.00  0.00    +0.000 NA
ATOM      3  N   UNL     1       5.552   5.683  17.116  0.00  0.00    +0.000 N 
ATOM      4  C   UNL     1       5.072   4.584  17.814  0.00  0.00    +0.000 A 
ATOM      5  C   UNL     1       3.830   4.952  18.283  0.00  0.00    +0.000 A 
ENDROOT
BRANCH   1  10
ATOM      6  C   UNL     1      -0.020  10.261  19.693  0.00  0.00    +0.000 C 
ATOM      7  C   UNL     1       1.069   9.325  19.253  0.00  0.00    +0.000 A 
ATOM      8  C   UNL     1       1.642   9.413  17.978  0.00  0.00    +0.000 A 
ATOM      9  C   UNL     1       2.559   8.449  17.549  0.00  0.00    +0.000 A 
ATOM     10  C   UNL     1       2.887   7.391  18.400  0.00  0.00    +0.000 A 
ATOM     11  C   UNL     1       2.378   7.331  19.694  0.00  0.00    +0.000 A 
ATOM     12  C   UNL     1       1.461   8.291  20.112  0.00  0.00    +0.000 A 
ENDBRANCH   1  10
BRANCH   5  13
ATOM     13  C   UNL     1       2.819   4.055  18.915  0.00  0.00    +0.000 A 
ATOM     14  C   UNL     1       2.822   3.847  20.299  0.00  0.00    +0.000 A 
ATOM     15  C   UNL     1       1.837   3.045  20.882  0.00  0.00    +0.000 A 
ATOM     16  C   UNL     1       0.875   2.428  20.084  0.00  0.00    +0.000 A 
ATOM     17  C   UNL     1       0.904   2.598  18.704  0.00  0.00    +0.000 A 
ATOM     18  C   UNL     1       1.874   3.408  18.115  0.00  0.00    +0.000 A 
ENDBRANCH   5  13
BRANCH   3  19
ATOM     19  C   UNL     1       6.762   5.738  16.291  0.00  0.00    +0.000 C 
BRANCH  19  20
ATOM     20  C   UNL     1       6.544   5.005  14.993  0.00  0.00    +0.000 A 
ATOM     21  C   UNL     1       5.359   4.285  14.764  0.00  0.00    +0.000 A 
ATOM     22  C   UNL     1       5.141   3.649  13.540  0.00  0.00    +0.000 A 
ATOM     23  C   UNL     1       6.101   3.721  12.532  0.00  0.00    +0.000 A 
ATOM     24  C   UNL     1       7.281   4.426  12.746  0.00  0.00    +0.000 A 
ATOM     25  C   UNL     1       7.501   5.068  13.967  0.00  0.00    +0.000 A 
ENDBRANCH  19  20
ENDBRANCH   3  19
TORSDOF 4
ENDMDL
MODEL 4
REMARK VINA RESULT:      -8.6      0.310      1.008
REMARK  Name = 
REMARK  5 active torsions:
REMARK  status: ('A' for Active; 'I' for Inactive)
REMARK    1  A    between atoms: C_1  and  C_2
REMARK    2  A    between atoms: C_5  and  N_6
REMARK    3  A    between atoms: N_8  and  C_9
REMARK    4  A    between atoms: C_9  and  C_10
REMARK    5  A    between atoms: C_17  and  C_18
REMARK                            x       y       z     vdW  Elec       q    Type
REMARK                         _______ _______ _______ _____ _____    ______ ____
ROOT
ATOM      1  N   UNL     1       3.837   6.263  17.971  0.00  0.00    +0.000 N 
ATOM      2  N   UNL     1       4.863   6.663  17.234  0.00  0.00    +0.000 NA
ATOM      3  N   UNL     1       5.640   5.591  17.228  0.00  0.00    +0.000 N 
ATOM      4  C   UNL     1       5.119   4.513  17.931  0.00  0.00    +0.000 A 
ATOM      5  C   UNL     1       3.867   4.909  18.347  0.00  0.00    +0.000 A 
ENDROOT
BRANCH   1  10
ATOM      6  C   UNL     1       0.045  10.299  19.505  0.00  0.00    +0.000 C 
ATOM      7  C   UNL     1       1.136   9.338  19.125  0.00  0.00    +0.000 A 
ATOM      8  C   UNL     1       1.761   9.395  17.873  0.00  0.00    +0.000 A 
ATOM      9  C   UNL     1       2.679   8.410  17.498  0.00  0.00    +0.000 A 
ATOM     10  C   UNL     1       2.955   7.362  18.380  0.00  0.00    +0.000 A 
ATOM     11  C   UNL     1       2.394   7.333  19.653  0.00  0.00    +0.000 A 
ATOM     12  C   UNL     1       1.476   8.314  20.017  0.00  0.00    +0.000 A 
ENDBRANCH   1  10
BRANCH   5  13
ATOM     13  C   UNL     1       2.821   4.039  18.959  0.00  0.00    +0.000 A 
ATOM     14  C   UNL     1       1.798   3.498  18.172  0.00  0.00    +0.000 A 
ATOM     15  C   UNL     1       0.856   2.643  18.750  0.00  0.00    +0.000 A 
ATOM     16  C   UNL     1       0.915   2.357  20.113  0.00  0.00    +0.000 A 
ATOM     17  C   UNL     1       1.904   2.934  20.902  0.00  0.00    +0.000 A 
ATOM     18  C   UNL     1       2.857   3.776  20.332  0.00  0.00    +0.000 A 
ENDBRANCH   5  13
BRANCH   3  19
ATOM     19  C   UNL     1       6.879   5.612  16.447  0.00  0.00    +0.000 C 
BRANCH  19  20
ATOM     20  C   UNL     1       6.649   5.016  15.083  0.00  0.00    +0.000 A 
ATOM     21  C   UNL     1       7.535   5.279  14.024  0.00  0.00    +0.000 A 
ATOM     22  C   UNL     1       7.344   4.685  12.775  0.00  0.00    +0.000 A 
ATOM     23  C   UNL     1       6.268   3.824  12.567  0.00  0.00    +0.000 A 
ATOM     24  C   UNL     1       5.380   3.557  13.604  0.00  0.00    +0.000 A 
ATOM     25  C   UNL     1       5.570   4.146  14.856  0.00  0.00    +0.000 A 
ENDBRANCH  19  20
ENDBRANCH   3  19
TORSDOF 4
ENDMDL
MODEL 5
REMARK VINA RESULT:      -8.5      0.861      1.621
REMARK  Name = 
REMARK  5 active torsions:
REMARK  status: ('A' for Active; 'I' for Inactive)
REMARK    1  A    between atoms: C_1  and  C_2
REMARK    2  A    between atoms: C_5  and  N_6
REMARK    3  A    between atoms: N_8  and  C_9
REMARK    4  A    between atoms: C_9  and  C_10
REMARK    5  A    between atoms: C_17  and  C_18
REMARK                            x       y       z     vdW  Elec       q    Type
REMARK                         _______ _______ _______ _____ _____    ______ ____
ROOT
ATOM      1  N   UNL     1       3.532   6.566  18.335  0.00  0.00    +0.000 N 
ATOM      2  N   UNL     1       4.500   6.987  17.534  0.00  0.00    +0.000 NA
ATOM      3  N   UNL     1       5.377   5.997  17.610  0.00  0.00    +0.000 N 
ATOM      4  C   UNL     1       4.977   4.950  18.428  0.00  0.00    +0.000 A 
ATOM      5  C   UNL     1       3.700   5.264  18.840  0.00  0.00    +0.000 A 
ENDROOT
BRANCH   1  10
ATOM      6  C   UNL     1       0.039  10.939  19.636  0.00  0.00    +0.000 C 
ATOM      7  C   UNL     1       0.840   9.715  19.293  0.00  0.00    +0.000 A 
ATOM      8  C   UNL     1       1.148   8.747  20.256  0.00  0.00    +0.000 A 
ATOM      9  C   UNL     1       2.003   7.686  19.940  0.00  0.00    +0.000 A 
ATOM     10  C   UNL     1       2.555   7.611  18.660  0.00  0.00    +0.000 A 
ATOM     11  C   UNL     1       2.201   8.528  17.675  0.00  0.00    +0.000 A 
ATOM     12  C   UNL     1       1.354   9.585  17.998  0.00  0.00    +0.000 A 
ENDBRANCH   1  10
BRANCH   5  13
ATOM     13  C   UNL     1       2.756   4.364  19.563  0.00  0.00    +0.000 A 
ATOM     14  C   UNL     1       1.792   3.634  18.858  0.00  0.00    +0.000 A 
ATOM     15  C   UNL     1       0.948   2.756  19.544  0.00  0.00    +0.000 A 
ATOM     16  C   UNL     1       1.044   2.632  20.928  0.00  0.00    +0.000 A 
ATOM     17  C   UNL     1       1.970   3.395  21.631  0.00  0.00    +0.000 A 
ATOM     18  C   UNL     1       2.826   4.263  20.955  0.00  0.00    +0.000 A 
ENDBRANCH   5  13
BRANCH   3  19
ATOM     19  C   UNL     1       6.594   6.058  16.796  0.00  0.00    +0.000 C 
BRANCH  19  20
ATOM     20  C   UNL     1       6.403   5.294  15.512  0.00  0.00    +0.000 A 
ATOM     21  C   UNL     1       7.407   5.279  14.529  0.00  0.00    +0.000 A 
ATOM     22  C   UNL     1       7.246   4.528  13.362  0.00  0.00    +0.000 A 
ATOM     23  C   UNL     1       6.084   3.786  13.162  0.00  0.00    +0.000 A 
ATOM     24  C   UNL     1       5.079   3.794  14.125  0.00  0.00    +0.000 A 
ATOM     25  C   UNL     1       5.238   4.540  15.295  0.00  0.00    +0.000 A 
ENDBRANCH  19  20
ENDBRANCH   3  19
TORSDOF 4
ENDMDL
MODEL 6
REMARK VINA RESULT:      -8.5      0.658      1.796
REMARK  Name = 
REMARK  5 active torsions:
REMARK  status: ('A' for Active; 'I' for Inactive)
REMARK    1  A    between atoms: C_1  and  C_2
REMARK    2  A    between atoms: C_5  and  N_6
REMARK    3  A    between atoms: N_8  and  C_9
REMARK    4  A    between atoms: C_9  and  C_10
REMARK    5  A    between atoms: C_17  and  C_18
REMARK                            x       y       z     vdW  Elec       q    Type
REMARK                         _______ _______ _______ _____ _____    ______ ____
ROOT
ATOM      1  N   UNL     1       3.745   6.365  18.216  0.00  0.00    +0.000 N 
ATOM      2  N   UNL     1       4.734   6.759  17.426  0.00  0.00    +0.000 NA
ATOM      3  N   UNL     1       5.584   5.748  17.517  0.00  0.00    +0.000 N 
ATOM      4  C   UNL     1       5.147   4.714  18.333  0.00  0.00    +0.000 A 
ATOM      5  C   UNL     1       3.873   5.061  18.727  0.00  0.00    +0.000 A 
ENDROOT
BRANCH   1  10
ATOM      6  C   UNL     1       0.348  10.823  19.482  0.00  0.00    +0.000 C 
ATOM      7  C   UNL     1       1.121   9.582  19.139  0.00  0.00    +0.000 A 
ATOM      8  C   UNL     1       1.339   8.569  20.082  0.00  0.00    +0.000 A 
ATOM      9  C   UNL     1       2.170   7.488  19.775  0.00  0.00    +0.000 A 
ATOM     10  C   UNL     1       2.790   7.436  18.525  0.00  0.00    +0.000 A 
ATOM     11  C   UNL     1       2.526   8.399  17.555  0.00  0.00    +0.000 A 
ATOM     12  C   UNL     1       1.702   9.476  17.870  0.00  0.00    +0.000 A 
ENDBRANCH   1  10
BRANCH   5  13
ATOM     13  C   UNL     1       2.897   4.188  19.440  0.00  0.00    +0.000 A 
ATOM     14  C   UNL     1       1.756   3.714  18.782  0.00  0.00    +0.000 A 
ATOM     15  C   UNL     1       0.878   2.855  19.448  0.00  0.00    +0.000 A 
ATOM     16  C   UNL     1       1.119   2.497  20.773  0.00  0.00    +0.000 A 
ATOM     17  C   UNL     1       2.228   3.008  21.439  0.00  0.00    +0.000 A 
ATOM     18  C   UNL     1       3.118   3.854  20.779  0.00  0.00    +0.000 A 
ENDBRANCH   5  13
BRANCH   3  19
ATOM     19  C   UNL     1       6.812   5.775  16.718  0.00  0.00    +0.000 C 
BRANCH  19  20
ATOM     20  C   UNL     1       6.601   5.065  15.407  0.00  0.00    +0.000 A 
ATOM     21  C   UNL     1       5.456   4.277  15.193  0.00  0.00    +0.000 A 
ATOM     22  C   UNL     1       5.241   3.661  13.959  0.00  0.00    +0.000 A 
ATOM     23  C   UNL     1       6.162   3.821  12.925  0.00  0.00    +0.000 A 
ATOM     24  C   UNL     1       7.302   4.594  13.124  0.00  0.00    +0.000 A 
ATOM     25  C   UNL     1       7.519   5.216  14.355  0.00  0.00    +0.000 A 
ENDBRANCH  19  20
ENDBRANCH   3  19
TORSDOF 4
ENDMDL
MODEL 7
REMARK VINA RESULT:      -8.3      0.301      1.391
REMARK  Name = 
REMARK  5 active torsions:
REMARK  status: ('A' for Active; 'I' for Inactive)
REMARK    1  A    between atoms: C_1  and  C_2
REMARK    2  A    between atoms: C_5  and  N_6
REMARK    3  A    between atoms: N_8  and  C_9
REMARK    4  A    between atoms: C_9  and  C_10
REMARK    5  A    between atoms: C_17  and  C_18
REMARK                            x       y       z     vdW  Elec       q    Type
REMARK                         _______ _______ _______ _____ _____    ______ ____
ROOT
ATOM      1  N   UNL     1       3.863   6.260  17.628  0.00  0.00    +0.000 N 
ATOM      2  N   UNL     1       4.809   6.755  16.844  0.00  0.00    +0.000 NA
ATOM      3  N   UNL     1       5.642   5.733  16.728  0.00  0.00    +0.000 N 
ATOM      4  C   UNL     1       5.234   4.593  17.407  0.00  0.00    +0.000 A 
ATOM      5  C   UNL     1       3.995   4.893  17.930  0.00  0.00    +0.000 A 
ENDROOT
BRANCH   1  10
ATOM      6  C   UNL     1       0.647  10.521  19.754  0.00  0.00    +0.000 C 
ATOM      7  C   UNL     1       1.371   9.334  19.185  0.00  0.00    +0.000 A 
ATOM      8  C   UNL     1       1.644   8.200  19.961  0.00  0.00    +0.000 A 
ATOM      9  C   UNL     1       2.431   7.166  19.445  0.00  0.00    +0.000 A 
ATOM     10  C   UNL     1       2.953   7.283  18.155  0.00  0.00    +0.000 A 
ATOM     11  C   UNL     1       2.630   8.372  17.350  0.00  0.00    +0.000 A 
ATOM     12  C   UNL     1       1.851   9.400  17.872  0.00  0.00    +0.000 A 
ENDBRANCH   1  10
BRANCH   5  13
ATOM     13  C   UNL     1       3.047   3.934  18.567  0.00  0.00    +0.000 A 
ATOM     14  C   UNL     1       1.786   3.704  18.005  0.00  0.00    +0.000 A 
ATOM     15  C   UNL     1       0.929   2.764  18.584  0.00  0.00    +0.000 A 
ATOM     16  C   UNL     1       1.315   2.082  19.736  0.00  0.00    +0.000 A 
ATOM     17  C   UNL     1       2.549   2.348  20.320  0.00  0.00    +0.000 A 
ATOM     18  C   UNL     1       3.417   3.273  19.741  0.00  0.00    +0.000 A 
ENDBRANCH   5  13
BRANCH   3  19
ATOM     19  C   UNL     1       6.818   5.865  15.864  0.00  0.00    +0.000 C 
BRANCH  19  20
ATOM     20  C   UNL     1       6.621   5.088  14.588  0.00  0.00    +0.000 A 
ATOM     21  C   UNL     1       7.542   5.195  13.533  0.00  0.00    +0.000 A 
ATOM     22  C   UNL     1       7.382   4.436  12.372  0.00  0.00    +0.000 A 
ATOM     23  C   UNL     1       6.303   3.563  12.250  0.00  0.00    +0.000 A 
ATOM     24  C   UNL     1       5.380   3.449  13.285  0.00  0.00    +0.000 A 
ATOM     25  C   UNL     1       5.539   4.204  14.449  0.00  0.00    +0.000 A 
ENDBRANCH  19  20
ENDBRANCH   3  19
TORSDOF 4
ENDMDL
MODEL 8
REMARK VINA RESULT:      -8.2      2.670      6.518
REMARK  Name = 
REMARK  5 active torsions:
REMARK  status: ('A' for Active; 'I' for Inactive)
REMARK    1  A    between atoms: C_1  and  C_2
REMARK    2  A    between atoms: C_5  and  N_6
REMARK    3  A    between atoms: N_8  and  C_9
REMARK    4  A    between atoms: C_9  and  C_10
REMARK    5  A    between atoms: C_17  and  C_18
REMARK                            x       y       z     vdW  Elec       q    Type
REMARK                         _______ _______ _______ _____ _____    ______ ____
ROOT
ATOM      1  N   UNL     1       6.240   4.885  17.755  0.00  0.00    +0.000 N 
ATOM      2  N   UNL     1       5.858   4.395  18.924  0.00  0.00    +0.000 NA
ATOM      3  N   UNL     1       5.028   3.427  18.566  0.00  0.00    +0.000 N 
ATOM      4  C   UNL     1       4.890   3.283  17.193  0.00  0.00    +0.000 A 
ATOM      5  C   UNL     1       5.772   4.180  16.632  0.00  0.00    +0.000 A 
ENDROOT
BRANCH   1  10
ATOM      6  C   UNL     1       8.784   9.974  18.563  0.00  0.00    +0.000 C 
ATOM      7  C   UNL     1       8.193   8.632  18.235  0.00  0.00    +0.000 A 
ATOM      8  C   UNL     1       7.189   8.490  17.268  0.00  0.00    +0.000 A 
ATOM      9  C   UNL     1       6.567   7.252  17.076  0.00  0.00    +0.000 A 
ATOM     10  C   UNL     1       6.947   6.166  17.867  0.00  0.00    +0.000 A 
ATOM     11  C   UNL     1       7.990   6.278  18.781  0.00  0.00    +0.000 A 
ATOM     12  C   UNL     1       8.601   7.515  18.971  0.00  0.00    +0.000 A 
ENDBRANCH   1  10
BRANCH   5  13
ATOM     13  C   UNL     1       6.153   4.266  15.192  0.00  0.00    +0.000 A 
ATOM     14  C   UNL     1       7.271   5.010  14.797  0.00  0.00    +0.000 A 
ATOM     15  C   UNL     1       7.645   5.039  13.451  0.00  0.00    +0.000 A 
ATOM     16  C   UNL     1       6.889   4.356  12.501  0.00  0.00    +0.000 A 
ATOM     17  C   UNL     1       5.752   3.656  12.890  0.00  0.00    +0.000 A 
ATOM     18  C   UNL     1       5.379   3.609  14.232  0.00  0.00    +0.000 A 
ENDBRANCH   5  13
BRANCH   3  19
ATOM     19  C   UNL     1       4.426   2.584  19.602  0.00  0.00    +0.000 C 
BRANCH  19  20
ATOM     20  C   UNL     1       2.944   2.843  19.692  0.00  0.00    +0.000 A 
ATOM     21  C   UNL     1       2.445   3.895  20.479  0.00  0.00    +0.000 A 
ATOM     22  C   UNL     1       1.075   4.162  20.519  0.00  0.00    +0.000 A 
ATOM     23  C   UNL     1       0.188   3.384  19.778  0.00  0.00    +0.000 A 
ATOM     24  C   UNL     1       0.666   2.336  18.997  0.00  0.00    +0.000 A 
ATOM     25  C   UNL     1       2.036   2.069  18.950  0.00  0.00    +0.000 A 
ENDBRANCH  19  20
ENDBRANCH   3  19
TORSDOF 4
ENDMDL
MODEL 9
REMARK VINA RESULT:      -8.2      2.644      6.769
REMARK  Name = 
REMARK  5 active torsions:
REMARK  status: ('A' for Active; 'I' for Inactive)
REMARK    1  A    between atoms: C_1  and  C_2
REMARK    2  A    between atoms: C_5  and  N_6
REMARK    3  A    between atoms: N_8  and  C_9
REMARK    4  A    between atoms: C_9  and  C_10
REMARK    5  A    between atoms: C_17  and  C_18
REMARK                            x       y       z     vdW  Elec       q    Type
REMARK                         _______ _______ _______ _____ _____    ______ ____
ROOT
ATOM      1  N   UNL     1       5.775   4.442  17.075  0.00  0.00    +0.000 N 
ATOM      2  N   UNL     1       5.186   3.813  18.081  0.00  0.00    +0.000 NA
ATOM      3  N   UNL     1       4.442   2.915  17.455  0.00  0.00    +0.000 N 
ATOM      4  C   UNL     1       4.560   2.950  16.073  0.00  0.00    +0.000 A 
ATOM      5  C   UNL     1       5.526   3.894  15.803  0.00  0.00    +0.000 A 
ENDROOT
BRANCH   1  10
ATOM      6  C   UNL     1       8.583   9.310  18.270  0.00  0.00    +0.000 C 
ATOM      7  C   UNL     1       7.796   8.045  18.085  0.00  0.00    +0.000 A 
ATOM      8  C   UNL     1       8.214   6.831  18.646  0.00  0.00    +0.000 A 
ATOM      9  C   UNL     1       7.534   5.646  18.350  0.00  0.00    +0.000 A 
ATOM     10  C   UNL     1       6.443   5.684  17.479  0.00  0.00    +0.000 A 
ATOM     11  C   UNL     1       5.975   6.892  16.971  0.00  0.00    +0.000 A 
ATOM     12  C   UNL     1       6.661   8.067  17.265  0.00  0.00    +0.000 A 
ENDBRANCH   1  10
BRANCH   5  13
ATOM     13  C   UNL     1       6.166   4.156  14.482  0.00  0.00    +0.000 A 
ATOM     14  C   UNL     1       7.249   5.036  14.380  0.00  0.00    +0.000 A 
ATOM     15  C   UNL     1       7.870   5.231  13.143  0.00  0.00    +0.000 A 
ATOM     16  C   UNL     1       7.393   4.578  12.009  0.00  0.00    +0.000 A 
ATOM     17  C   UNL     1       6.286   3.741  12.105  0.00  0.00    +0.000 A 
ATOM     18  C   UNL     1       5.668   3.528  13.336  0.00  0.00    +0.000 A 
ENDBRANCH   5  13
BRANCH   3  19
ATOM     19  C   UNL     1       3.663   1.958  18.245  0.00  0.00    +0.000 C 
BRANCH  19  20
ATOM     20  C   UNL     1       2.823   2.682  19.265  0.00  0.00    +0.000 A 
ATOM     21  C   UNL     1       1.701   3.431  18.872  0.00  0.00    +0.000 A 
ATOM     22  C   UNL     1       0.898   4.059  19.826  0.00  0.00    +0.000 A 
ATOM     23  C   UNL     1       1.204   3.949  21.181  0.00  0.00    +0.000 A 
ATOM     24  C   UNL     1       2.315   3.214  21.586  0.00  0.00    +0.000 A 
ATOM     25  C   UNL     1       3.117   2.581  20.635  0.00  0.00    +0.000 A 
ENDBRANCH  19  20
ENDBRANCH   3  19
TORSDOF 4
ENDMDL
