MODEL 1
REMARK VINA RESULT:      -6.8      0.000      0.000
REMARK  Name = 
REMARK  4 active torsions:
REMARK  status: ('A' for Active; 'I' for Inactive)
REMARK    1  A    between atoms: C_1  and  C_2
REMARK    2  A    between atoms: C_6  and  C_7
REMARK    3  A    between atoms: C_8  and  C_9
REMARK    4  A    between atoms: C_13  and  C_14
REMARK                            x       y       z     vdW  Elec       q    Type
REMARK                         _______ _______ _______ _____ _____    ______ ____
ROOT
ATOM      1  C   UNL     1       1.782   2.803  21.434  0.00  0.00    +0.000 C 
ATOM      2  C   UNL     1       2.451   3.123  20.124  0.00  0.00    +0.000 A 
ATOM      3  C   UNL     1       3.759   3.632  20.126  0.00  0.00    +0.000 A 
ATOM      4  C   UNL     1       4.452   3.889  18.950  0.00  0.00    +0.000 A 
ATOM      5  N   UNL     1       5.725   4.324  19.009  0.00  0.00    +0.000 NA
ATOM      6  C   UNL     1       6.378   4.508  17.833  0.00  0.00    +0.000 A 
ATOM      7  C   UNL     1       7.808   4.937  17.940  0.00  0.00    +0.000 C 
ATOM      8  C   UNL     1       5.748   4.278  16.610  0.00  0.00    +0.000 A 
ATOM      9  C   UNL     1       6.431   4.433  15.286  0.00  0.00    +0.000 C 
ATOM     10  N   UNL     1       4.458   3.861  16.549  0.00  0.00    +0.000 NA
ATOM     11  C   UNL     1       3.818   3.652  17.715  0.00  0.00    +0.000 A 
ATOM     12  C   UNL     1       2.512   3.174  17.709  0.00  0.00    +0.000 A 
ATOM     13  C   UNL     1       1.816   2.890  18.896  0.00  0.00    +0.000 A 
ATOM     14  C   UNL     1       0.433   2.305  18.817  0.00  0.00    +0.000 C 
ENDROOT
TORSDOF 0
ENDMDL
MODEL 2
REMARK VINA RESULT:      -6.8      0.214      2.377
REMARK  Name = 
REMARK  4 active torsions:
REMARK  status: ('A' for Active; 'I' for Inactive)
REMARK    1  A    between atoms: C_1  and  C_2
REMARK    2  A    between atoms: C_6  and  C_7
REMARK    3  A    between atoms: C_8  and  C_9
REMARK    4  A    between atoms: C_13  and  C_14
REMARK                            x       y       z     vdW  Elec       q    Type
REMARK                         _______ _______ _______ _____ _____    ______ ____
ROOT
ATOM      1  C   UNL     1       0.335   2.481  18.911  0.00  0.00    +0.000 C 
ATOM      2  C   UNL     1       1.788   2.864  18.983  0.00  0.00    +0.000 A 
ATOM      3  C   UNL     1       2.474   3.186  17.801  0.00  0.00    +0.000 A 
ATOM      4  C   UNL     1       3.798   3.607  17.809  0.00  0.00    +0.000 A 
ATOM      5  N   UNL     1       4.392   3.956  16.652  0.00  0.00    +0.000 NA
ATOM      6  C   UNL     1       5.669   4.413  16.718  0.00  0.00    +0.000 A 
ATOM      7  C   UNL     1       6.275   4.846  15.419  0.00  0.00    +0.000 C 
ATOM      8  C   UNL     1       6.348   4.495  17.933  0.00  0.00    +0.000 A 
ATOM      9  C   UNL     1       7.744   5.022  18.067  0.00  0.00    +0.000 C 
ATOM     10  N   UNL     1       5.758   4.121  19.097  0.00  0.00    +0.000 NA
ATOM     11  C   UNL     1       4.483   3.694  19.036  0.00  0.00    +0.000 A 
ATOM     12  C   UNL     1       3.815   3.349  20.206  0.00  0.00    +0.000 A 
ATOM     13  C   UNL     1       2.469   2.947  20.206  0.00  0.00    +0.000 A 
ATOM     14  C   UNL     1       1.786   2.660  21.514  0.00  0.00    +0.000 C 
ENDROOT
TORSDOF 0
ENDMDL
MODEL 3
REMARK VINA RESULT:      -6.8      1.211      2.440
REMARK  Name = 
REMARK  4 active torsions:
REMARK  status: ('A' for Active; 'I' for Inactive)
REMARK    1  A    between atoms: C_1  and  C_2
REMARK    2  A    between atoms: C_6  and  C_7
REMARK    3  A    between atoms: C_8  and  C_9
REMARK    4  A    between atoms: C_13  and  C_14
REMARK                            x       y       z     vdW  Elec       q    Type
REMARK                         _______ _______ _______ _____ _____    ______ ____
ROOT
ATOM      1  C   UNL     1       0.878   2.450  18.605  0.00  0.00    +0.000 C 
ATOM      2  C   UNL     1       2.096   3.334  18.597  0.00  0.00    +0.000 A 
ATOM      3  C   UNL     1       3.036   3.200  17.563  0.00  0.00    +0.000 A 
ATOM      4  C   UNL     1       4.147   4.028  17.465  0.00  0.00    +0.000 A 
ATOM      5  N   UNL     1       4.988   3.892  16.422  0.00  0.00    +0.000 NA
ATOM      6  C   UNL     1       6.029   4.760  16.342  0.00  0.00    +0.000 A 
ATOM      7  C   UNL     1       6.909   4.616  15.139  0.00  0.00    +0.000 C 
ATOM      8  C   UNL     1       6.234   5.739  17.313  0.00  0.00    +0.000 A 
ATOM      9  C   UNL     1       7.345   6.742  17.257  0.00  0.00    +0.000 C 
ATOM     10  N   UNL     1       5.400   5.862  18.378  0.00  0.00    +0.000 NA
ATOM     11  C   UNL     1       4.352   5.019  18.444  0.00  0.00    +0.000 A 
ATOM     12  C   UNL     1       3.438   5.136  19.485  0.00  0.00    +0.000 A 
ATOM     13  C   UNL     1       2.300   4.318  19.575  0.00  0.00    +0.000 A 
ATOM     14  C   UNL     1       1.313   4.547  20.686  0.00  0.00    +0.000 C 
ENDROOT
TORSDOF 0
ENDMDL
MODEL 4
REMARK VINA RESULT:      -6.8      1.193      1.193
REMARK  Name = 
REMARK  4 active torsions:
REMARK  status: ('A' for Active; 'I' for Inactive)
REMARK    1  A    between atoms: C_1  and  C_2
REMARK    2  A    between atoms: C_6  and  C_7
REMARK    3  A    between atoms: C_8  and  C_9
REMARK    4  A    between atoms: C_13  and  C_14
REMARK                            x       y       z     vdW  Elec       q    Type
REMARK                         _______ _______ _______ _____ _____    ______ ____
ROOT
ATOM      1  C   UNL     1       1.454   4.299  20.845  0.00  0.00    +0.000 C 
ATOM      2  C   UNL     1       2.282   4.258  19.589  0.00  0.00    +0.000 A 
ATOM      3  C   UNL     1       3.387   5.115  19.466  0.00  0.00    +0.000 A 
ATOM      4  C   UNL     1       4.226   5.082  18.360  0.00  0.00    +0.000 A 
ATOM      5  N   UNL     1       5.304   5.888  18.317  0.00  0.00    +0.000 NA
ATOM      6  C   UNL     1       6.124   5.779  17.240  0.00  0.00    +0.000 A 
ATOM      7  C   UNL     1       7.342   6.650  17.256  0.00  0.00    +0.000 C 
ATOM      8  C   UNL     1       5.849   4.885  16.206  0.00  0.00    +0.000 A 
ATOM      9  C   UNL     1       6.735   4.701  15.013  0.00  0.00    +0.000 C 
ATOM     10  N   UNL     1       4.750   4.088  16.237  0.00  0.00    +0.000 NA
ATOM     11  C   UNL     1       3.951   4.176  17.317  0.00  0.00    +0.000 A 
ATOM     12  C   UNL     1       2.841   3.345  17.423  0.00  0.00    +0.000 A 
ATOM     13  C   UNL     1       2.004   3.357  18.551  0.00  0.00    +0.000 A 
ATOM     14  C   UNL     1       0.864   2.380  18.634  0.00  0.00    +0.000 C 
ENDROOT
TORSDOF 0
ENDMDL
MODEL 5
REMARK VINA RESULT:      -6.6      1.181      5.381
REMARK  Name = 
REMARK  4 active torsions:
REMARK  status: ('A' for Active; 'I' for Inactive)
REMARK    1  A    between atoms: C_1  and  C_2
REMARK    2  A    between atoms: C_6  and  C_7
REMARK    3  A    between atoms: C_8  and  C_9
REMARK    4  A    between atoms: C_13  and  C_14
REMARK                            x       y       z     vdW  Elec       q    Type
REMARK                         _______ _______ _______ _____ _____    ______ ____
ROOT
ATOM      1  C   UNL     1       6.730   4.843  15.493  0.00  0.00    +0.000 C 
ATOM      2  C   UNL     1       5.859   4.786  16.719  0.00  0.00    +0.000 A 
ATOM      3  C   UNL     1       4.637   4.097  16.663  0.00  0.00    +0.000 A 
ATOM      4  C   UNL     1       3.818   3.956  17.776  0.00  0.00    +0.000 A 
ATOM      5  N   UNL     1       2.683   3.238  17.682  0.00  0.00    +0.000 NA
ATOM      6  C   UNL     1       1.945   3.083  18.810  0.00  0.00    +0.000 A 
ATOM      7  C   UNL     1       0.721   2.232  18.679  0.00  0.00    +0.000 C 
ATOM      8  C   UNL     1       2.334   3.664  20.017  0.00  0.00    +0.000 A 
ATOM      9  C   UNL     1       1.576   3.499  21.298  0.00  0.00    +0.000 C 
ATOM     10  N   UNL     1       3.467   4.407  20.109  0.00  0.00    +0.000 NA
ATOM     11  C   UNL     1       4.213   4.539  18.996  0.00  0.00    +0.000 A 
ATOM     12  C   UNL     1       5.409   5.246  19.048  0.00  0.00    +0.000 A 
ATOM     13  C   UNL     1       6.252   5.370  17.931  0.00  0.00    +0.000 A 
ATOM     14  C   UNL     1       7.568   6.085  18.076  0.00  0.00    +0.000 C 
ENDROOT
TORSDOF 0
ENDMDL
MODEL 6
REMARK VINA RESULT:      -6.6      1.343      4.940
REMARK  Name = 
REMARK  4 active torsions:
REMARK  status: ('A' for Active; 'I' for Inactive)
REMARK    1  A    between atoms: C_1  and  C_2
REMARK    2  A    between atoms: C_6  and  C_7
REMARK    3  A    between atoms: C_8  and  C_9
REMARK    4  A    between atoms: C_13  and  C_14
REMARK                            x       y       z     vdW  Elec       q    Type
REMARK                         _______ _______ _______ _____ _____    ______ ____
ROOT
ATOM      1  C   UNL     1       7.379   6.707  17.189  0.00  0.00    +0.000 C 
ATOM      2  C   UNL     1       6.249   5.718  17.289  0.00  0.00    +0.000 A 
ATOM      3  C   UNL     1       5.429   5.724  18.427  0.00  0.00    +0.000 A 
ATOM      4  C   UNL     1       4.333   4.879  18.551  0.00  0.00    +0.000 A 
ATOM      5  N   UNL     1       3.546   4.963  19.640  0.00  0.00    +0.000 NA
ATOM      6  C   UNL     1       2.457   4.155  19.689  0.00  0.00    +0.000 A 
ATOM      7  C   UNL     1       1.575   4.319  20.888  0.00  0.00    +0.000 C 
ATOM      8  C   UNL     1       2.176   3.254  18.663  0.00  0.00    +0.000 A 
ATOM      9  C   UNL     1       0.972   2.363  18.650  0.00  0.00    +0.000 C 
ATOM     10  N   UNL     1       2.981   3.151  17.575  0.00  0.00    +0.000 NA
ATOM     11  C   UNL     1       4.046   3.971  17.513  0.00  0.00    +0.000 A 
ATOM     12  C   UNL     1       4.874   3.944  16.396  0.00  0.00    +0.000 A 
ATOM     13  C   UNL     1       5.968   4.813  16.255  0.00  0.00    +0.000 A 
ATOM     14  C   UNL     1       6.777   4.781  14.988  0.00  0.00    +0.000 C 
ENDROOT
TORSDOF 0
ENDMDL
MODEL 7
REMARK VINA RESULT:      -6.2      2.545      4.266
REMARK  Name = 
REMARK  4 active torsions:
REMARK  status: ('A' for Active; 'I' for Inactive)
REMARK    1  A    between atoms: C_1  and  C_2
REMARK    2  A    between atoms: C_6  and  C_7
REMARK    3  A    between atoms: C_8  and  C_9
REMARK    4  A    between atoms: C_13  and  C_14
REMARK                            x       y       z     vdW  Elec       q    Type
REMARK                         _______ _______ _______ _____ _____    ______ ____
ROOT
ATOM      1  C   UNL     1       7.032   5.604  19.621  0.00  0.00    +0.000 C 
ATOM      2  C   UNL     1       6.549   5.115  18.283  0.00  0.00    +0.000 A 
ATOM      3  C   UNL     1       7.221   5.521  17.119  0.00  0.00    +0.000 A 
ATOM      4  C   UNL     1       6.862   5.055  15.860  0.00  0.00    +0.000 A 
ATOM      5  N   UNL     1       7.575   5.433  14.782  0.00  0.00    +0.000 NA
ATOM      6  C   UNL     1       7.219   4.908  13.582  0.00  0.00    +0.000 A 
ATOM      7  C   UNL     1       8.070   5.306  12.417  0.00  0.00    +0.000 C 
ATOM      8  C   UNL     1       6.142   4.030  13.465  0.00  0.00    +0.000 A 
ATOM      9  C   UNL     1       5.727   3.396  12.172  0.00  0.00    +0.000 C 
ATOM     10  N   UNL     1       5.408   3.666  14.547  0.00  0.00    +0.000 NA
ATOM     11  C   UNL     1       5.777   4.165  15.742  0.00  0.00    +0.000 A 
ATOM     12  C   UNL     1       5.092   3.783  16.890  0.00  0.00    +0.000 A 
ATOM     13  C   UNL     1       5.466   4.232  18.167  0.00  0.00    +0.000 A 
ATOM     14  C   UNL     1       4.728   3.721  19.374  0.00  0.00    +0.000 C 
ENDROOT
TORSDOF 0
ENDMDL
MODEL 8
REMARK VINA RESULT:      -6.0      3.913      4.996
REMARK  Name = 
REMARK  4 active torsions:
REMARK  status: ('A' for Active; 'I' for Inactive)
REMARK    1  A    between atoms: C_1  and  C_2
REMARK    2  A    between atoms: C_6  and  C_7
REMARK    3  A    between atoms: C_8  and  C_9
REMARK    4  A    between atoms: C_13  and  C_14
REMARK                            x       y       z     vdW  Elec       q    Type
REMARK                         _______ _______ _______ _____ _____    ______ ____
ROOT
ATOM      1  C   UNL     1       0.826   9.621  20.543  0.00  0.00    +0.000 C 
ATOM      2  C   UNL     1       1.483   8.383  19.996  0.00  0.00    +0.000 A 
ATOM      3  C   UNL     1       1.536   7.226  20.789  0.00  0.00    +0.000 A 
ATOM      4  C   UNL     1       2.073   6.034  20.318  0.00  0.00    +0.000 A 
ATOM      5  N   UNL     1       2.050   4.938  21.101  0.00  0.00    +0.000 NA
ATOM      6  C   UNL     1       2.537   3.785  20.576  0.00  0.00    +0.000 A 
ATOM      7  C   UNL     1       2.441   2.576  21.454  0.00  0.00    +0.000 C 
ATOM      8  C   UNL     1       3.063   3.740  19.285  0.00  0.00    +0.000 A 
ATOM      9  C   UNL     1       3.582   2.489  18.645  0.00  0.00    +0.000 C 
ATOM     10  N   UNL     1       3.108   4.849  18.504  0.00  0.00    +0.000 NA
ATOM     11  C   UNL     1       2.601   5.987  19.013  0.00  0.00    +0.000 A 
ATOM     12  C   UNL     1       2.574   7.139  18.235  0.00  0.00    +0.000 A 
ATOM     13  C   UNL     1       2.010   8.340  18.697  0.00  0.00    +0.000 A 
ATOM     14  C   UNL     1       1.948   9.528  17.777  0.00  0.00    +0.000 C 
ENDROOT
TORSDOF 0
ENDMDL
MODEL 9
REMARK VINA RESULT:      -6.0      2.520      5.583
REMARK  Name = 
REMARK  4 active torsions:
REMARK  status: ('A' for Active; 'I' for Inactive)
REMARK    1  A    between atoms: C_1  and  C_2
REMARK    2  A    between atoms: C_6  and  C_7
REMARK    3  A    between atoms: C_8  and  C_9
REMARK    4  A    between atoms: C_13  and  C_14
REMARK                            x       y       z     vdW  Elec       q    Type
REMARK                         _______ _______ _______ _____ _____    ______ ____
ROOT
ATOM      1  C   UNL     1       7.497   4.745  11.832  0.00  0.00    +0.000 C 
ATOM      2  C   UNL     1       6.864   4.480  13.171  0.00  0.00    +0.000 A 
ATOM      3  C   UNL     1       7.503   4.935  14.335  0.00  0.00    +0.000 A 
ATOM      4  C   UNL     1       6.939   4.776  15.595  0.00  0.00    +0.000 A 
ATOM      5  N   UNL     1       7.567   5.280  16.674  0.00  0.00    +0.000 NA
ATOM      6  C   UNL     1       6.950   5.147  17.876  0.00  0.00    +0.000 A 
ATOM      7  C   UNL     1       7.651   5.771  19.042  0.00  0.00    +0.000 C 
ATOM      8  C   UNL     1       5.724   4.494  17.993  0.00  0.00    +0.000 A 
ATOM      9  C   UNL     1       4.984   4.348  19.287  0.00  0.00    +0.000 C 
ATOM     10  N   UNL     1       5.101   3.964  16.909  0.00  0.00    +0.000 NA
ATOM     11  C   UNL     1       5.699   4.119  15.713  0.00  0.00    +0.000 A 
ATOM     12  C   UNL     1       5.077   3.643  14.564  0.00  0.00    +0.000 A 
ATOM     13  C   UNL     1       5.631   3.823  13.286  0.00  0.00    +0.000 A 
ATOM     14  C   UNL     1       4.870   3.348  12.079  0.00  0.00    +0.000 C 
ENDROOT
TORSDOF 0
ENDMDL
