MODEL 1
REMARK VINA RESULT:      -6.7      0.000      0.000
REMARK  Name = 
REMARK  12 active torsions:
REMARK  status: ('A' for Active; 'I' for Inactive)
REMARK    1  A    between atoms: C_1  and  O_2
REMARK    2  A    between atoms: O_2  and  C_3
REMARK    3  A    between atoms: C_6  and  N_7
REMARK    4  A    between atoms: N_7  and  C_8
REMARK    5  A    between atoms: N_7  and  C_17
REMARK    6  A    between atoms: C_8  and  C_9
REMARK    7  A    between atoms: C_9  and  C_10
REMARK    8  A    between atoms: N_15  and  C_16
REMARK    9  A    between atoms: C_17  and  C_18
REMARK   10  A    between atoms: C_17  and  C_19
REMARK   11  A    between atoms: C_21  and  O_22
REMARK   12  A    between atoms: O_22  and  C_23
REMARK                            x       y       z     vdW  Elec       q    Type
REMARK                         _______ _______ _______ _____ _____    ______ ____
ROOT
ATOM      1  N   UNL     1       2.626   4.773  19.162  0.00  0.00    +0.000 N 
ENDROOT
BRANCH   1   5
ATOM      2  C   UNL     1       1.531   8.903  19.307  0.00  0.00    +0.000 A 
ATOM      3  C   UNL     1       2.082   8.339  18.155  0.00  0.00    +0.000 A 
ATOM      4  C   UNL     1       2.482   6.995  18.120  0.00  0.00    +0.000 A 
ATOM      5  C   UNL     1       2.363   6.149  19.229  0.00  0.00    +0.000 A 
ATOM      6  C   UNL     1       1.943   6.785  20.414  0.00  0.00    +0.000 A 
ATOM      7  C   UNL     1       1.533   8.134  20.477  0.00  0.00    +0.000 A 
BRANCH   2   9
ATOM      8  C   UNL     1      -0.068  10.407  18.442  0.00  0.00    +0.000 C 
ATOM      9  O   UNL     1       1.053  10.178  19.302  0.00  0.00    +0.000 OA
ENDBRANCH   2   9
BRANCH   7  10
ATOM     10  O   UNL     1       1.151   8.506  21.740  0.00  0.00    +0.000 OA
ATOM     11  C   UNL     1      -0.229   8.695  22.013  0.00  0.00    +0.000 C 
ENDBRANCH   7  10
ENDBRANCH   1   5
BRANCH   1  12
ATOM     12  C   UNL     1       1.557   3.820  18.768  0.00  0.00    +0.000 C 
ATOM     13  C   UNL     1       2.073   2.668  17.896  0.00  0.00    +0.000 C 
ATOM     14  C   UNL     1       0.817   3.239  19.975  0.00  0.00    +0.000 C 
ENDBRANCH   1  12
BRANCH   1  15
ATOM     15  C   UNL     1       3.932   4.258  19.640  0.00  0.00    +0.000 C 
BRANCH  15  16
ATOM     16  C   UNL     1       5.084   5.215  19.311  0.00  0.00    +0.000 C 
BRANCH  16  17
ATOM     17  C   UNL     1       6.109   4.662  18.285  0.00  0.00    +0.000 C 
ATOM     18  C   UNL     1       5.467   3.940  17.080  0.00  0.00    +0.000 C 
ATOM     19  C   UNL     1       4.685   4.900  16.189  0.00  0.00    +0.000 C 
ATOM     20  C   UNL     1       5.557   6.078  15.769  0.00  0.00    +0.000 C 
ATOM     21  C   UNL     1       6.308   6.709  16.942  0.00  0.00    +0.000 C 
ATOM     22  N   UNL     1       7.018   5.699  17.742  0.00  0.00    +0.000 NA
ATOM     23  C   UNL     1       7.840   6.333  18.770  0.00  0.00    +0.000 C 
ENDBRANCH  16  17
ENDBRANCH  15  16
ENDBRANCH   1  15
TORSDOF 7
ENDMDL
MODEL 2
REMARK VINA RESULT:      -6.6      1.120      1.173
REMARK  Name = 
REMARK  12 active torsions:
REMARK  status: ('A' for Active; 'I' for Inactive)
REMARK    1  A    between atoms: C_1  and  O_2
REMARK    2  A    between atoms: O_2  and  C_3
REMARK    3  A    between atoms: C_6  and  N_7
REMARK    4  A    between atoms: N_7  and  C_8
REMARK    5  A    between atoms: N_7  and  C_17
REMARK    6  A    between atoms: C_8  and  C_9
REMARK    7  A    between atoms: C_9  and  C_10
REMARK    8  A    between atoms: N_15  and  C_16
REMARK    9  A    between atoms: C_17  and  C_18
REMARK   10  A    between atoms: C_17  and  C_19
REMARK   11  A    between atoms: C_21  and  O_22
REMARK   12  A    between atoms: O_22  and  C_23
REMARK                            x       y       z     vdW  Elec       q    Type
REMARK                         _______ _______ _______ _____ _____    ______ ____
ROOT
ATOM      1  N   UNL     1       2.651   5.896  19.311  0.00  0.00    +0.000 N 
ENDROOT
BRANCH   1   5
ATOM      2  C   UNL     1       0.905   9.798  19.376  0.00  0.00    +0.000 A 
ATOM      3  C   UNL     1       1.444   9.264  18.204  0.00  0.00    +0.000 A 
ATOM      4  C   UNL     1       2.055   8.002  18.191  0.00  0.00    +0.000 A 
ATOM      5  C   UNL     1       2.171   7.214  19.341  0.00  0.00    +0.000 A 
ATOM      6  C   UNL     1       1.752   7.842  20.532  0.00  0.00    +0.000 A 
ATOM      7  C   UNL     1       1.131   9.109  20.573  0.00  0.00    +0.000 A 
BRANCH   2   9
ATOM      8  C   UNL     1      -1.059  10.934  18.725  0.00  0.00    +0.000 C 
ATOM      9  O   UNL     1       0.224  10.978  19.359  0.00  0.00    +0.000 OA
ENDBRANCH   2   9
BRANCH   7  10
ATOM     10  O   UNL     1       0.800   9.487  21.848  0.00  0.00    +0.000 OA
ATOM     11  C   UNL     1      -0.474   9.127  22.362  0.00  0.00    +0.000 C 
ENDBRANCH   7  10
ENDBRANCH   1   5
BRANCH   1  12
ATOM     12  C   UNL     1       1.706   4.752  19.248  0.00  0.00    +0.000 C 
ATOM     13  C   UNL     1       1.538   4.191  17.830  0.00  0.00    +0.000 C 
ATOM     14  C   UNL     1       2.103   3.614  20.191  0.00  0.00    +0.000 C 
ENDBRANCH   1  12
BRANCH   1  15
ATOM     15  C   UNL     1       4.100   5.646  19.501  0.00  0.00    +0.000 C 
BRANCH  15  16
ATOM     16  C   UNL     1       4.879   5.738  18.184  0.00  0.00    +0.000 C 
BRANCH  16  17
ATOM     17  C   UNL     1       5.688   4.463  17.822  0.00  0.00    +0.000 C 
ATOM     18  C   UNL     1       5.115   3.671  16.627  0.00  0.00    +0.000 C 
ATOM     19  C   UNL     1       5.234   4.446  15.319  0.00  0.00    +0.000 C 
ATOM     20  C   UNL     1       6.673   4.895  15.087  0.00  0.00    +0.000 C 
ATOM     21  C   UNL     1       7.294   5.555  16.318  0.00  0.00    +0.000 C 
ATOM     22  N   UNL     1       7.115   4.734  17.526  0.00  0.00    +0.000 NA
ATOM     23  C   UNL     1       7.834   5.311  18.659  0.00  0.00    +0.000 C 
ENDBRANCH  16  17
ENDBRANCH  15  16
ENDBRANCH   1  15
TORSDOF 7
ENDMDL
MODEL 3
REMARK VINA RESULT:      -6.4      2.895      5.958
REMARK  Name = 
REMARK  12 active torsions:
REMARK  status: ('A' for Active; 'I' for Inactive)
REMARK    1  A    between atoms: C_1  and  O_2
REMARK    2  A    between atoms: O_2  and  C_3
REMARK    3  A    between atoms: C_6  and  N_7
REMARK    4  A    between atoms: N_7  and  C_8
REMARK    5  A    between atoms: N_7  and  C_17
REMARK    6  A    between atoms: C_8  and  C_9
REMARK    7  A    between atoms: C_9  and  C_10
REMARK    8  A    between atoms: N_15  and  C_16
REMARK    9  A    between atoms: C_17  and  C_18
REMARK   10  A    between atoms: C_17  and  C_19
REMARK   11  A    between atoms: C_21  and  O_22
REMARK   12  A    between atoms: O_22  and  C_23
REMARK                            x       y       z     vdW  Elec       q    Type
REMARK                         _______ _______ _______ _____ _____    ______ ____
ROOT
ATOM      1  N   UNL     1       3.395   5.903  18.831  0.00  0.00    +0.000 N 
ENDROOT
BRANCH   1   5
ATOM      2  C   UNL     1       6.508   5.465  15.935  0.00  0.00    +0.000 A 
ATOM      3  C   UNL     1       5.299   4.778  15.810  0.00  0.00    +0.000 A 
ATOM      4  C   UNL     1       4.294   4.887  16.781  0.00  0.00    +0.000 A 
ATOM      5  C   UNL     1       4.443   5.675  17.929  0.00  0.00    +0.000 A 
ATOM      6  C   UNL     1       5.726   6.234  18.098  0.00  0.00    +0.000 A 
ATOM      7  C   UNL     1       6.755   6.142  17.135  0.00  0.00    +0.000 A 
BRANCH   2   9
ATOM      8  C   UNL     1       7.027   4.767  13.741  0.00  0.00    +0.000 C 
ATOM      9  O   UNL     1       7.438   5.433  14.940  0.00  0.00    +0.000 OA
ENDBRANCH   2   9
BRANCH   7  10
ATOM     10  O   UNL     1       7.898   6.787  17.528  0.00  0.00    +0.000 OA
ATOM     11  C   UNL     1       7.887   8.203  17.633  0.00  0.00    +0.000 C 
ENDBRANCH   7  10
ENDBRANCH   1   5
BRANCH   1  12
ATOM     12  C   UNL     1       2.435   7.015  18.606  0.00  0.00    +0.000 C 
ATOM     13  C   UNL     1       1.929   7.643  19.912  0.00  0.00    +0.000 C 
ATOM     14  C   UNL     1       3.014   8.115  17.714  0.00  0.00    +0.000 C 
ENDBRANCH   1  12
BRANCH   1  15
ATOM     15  C   UNL     1       3.342   5.130  20.095  0.00  0.00    +0.000 C 
BRANCH  15  16
ATOM     16  C   UNL     1       4.014   3.758  19.960  0.00  0.00    +0.000 C 
BRANCH  16  17
ATOM     17  C   UNL     1       3.107   2.556  20.334  0.00  0.00    +0.000 C 
ATOM     18  C   UNL     1       1.817   2.949  21.085  0.00  0.00    +0.000 C 
ATOM     19  C   UNL     1       0.861   3.744  20.202  0.00  0.00    +0.000 C 
ATOM     20  C   UNL     1       0.576   2.995  18.905  0.00  0.00    +0.000 C 
ATOM     21  C   UNL     1       1.845   2.479  18.227  0.00  0.00    +0.000 C 
ATOM     22  N   UNL     1       2.702   1.737  19.166  0.00  0.00    +0.000 NA
ATOM     23  C   UNL     1       3.836   1.133  18.471  0.00  0.00    +0.000 C 
ENDBRANCH  16  17
ENDBRANCH  15  16
ENDBRANCH   1  15
TORSDOF 7
ENDMDL
MODEL 4
REMARK VINA RESULT:      -6.4      1.515      3.825
REMARK  Name = 
REMARK  12 active torsions:
REMARK  status: ('A' for Active; 'I' for Inactive)
REMARK    1  A    between atoms: C_1  and  O_2
REMARK    2  A    between atoms: O_2  and  C_3
REMARK    3  A    between atoms: C_6  and  N_7
REMARK    4  A    between atoms: N_7  and  C_8
REMARK    5  A    between atoms: N_7  and  C_17
REMARK    6  A    between atoms: C_8  and  C_9
REMARK    7  A    between atoms: C_9  and  C_10
REMARK    8  A    between atoms: N_15  and  C_16
REMARK    9  A    between atoms: C_17  and  C_18
REMARK   10  A    between atoms: C_17  and  C_19
REMARK   11  A    between atoms: C_21  and  O_22
REMARK   12  A    between atoms: O_22  and  C_23
REMARK                            x       y       z     vdW  Elec       q    Type
REMARK                         _______ _______ _______ _____ _____    ______ ____
ROOT
ATOM      1  N   UNL     1       3.035   6.224  18.225  0.00  0.00    +0.000 N 
ENDROOT
BRANCH   1   5
ATOM      2  C   UNL     1       0.983   9.805  19.341  0.00  0.00    +0.000 A 
ATOM      3  C   UNL     1       1.522   9.646  18.063  0.00  0.00    +0.000 A 
ATOM      4  C   UNL     1       2.233   8.490  17.709  0.00  0.00    +0.000 A 
ATOM      5  C   UNL     1       2.452   7.441  18.609  0.00  0.00    +0.000 A 
ATOM      6  C   UNL     1       2.025   7.695  19.928  0.00  0.00    +0.000 A 
ATOM      7  C   UNL     1       1.305   8.848  20.311  0.00  0.00    +0.000 A 
BRANCH   2   9
ATOM      8  C   UNL     1       0.923  12.047  20.074  0.00  0.00    +0.000 C 
ATOM      9  O   UNL     1       0.208  10.883  19.645  0.00  0.00    +0.000 OA
ENDBRANCH   2   9
BRANCH   7  10
ATOM     10  O   UNL     1       0.990   8.849  21.644  0.00  0.00    +0.000 OA
ATOM     11  C   UNL     1      -0.370   8.706  22.028  0.00  0.00    +0.000 C 
ENDBRANCH   7  10
ENDBRANCH   1   5
BRANCH   1  12
ATOM     12  C   UNL     1       4.490   6.144  17.937  0.00  0.00    +0.000 C 
ATOM     13  C   UNL     1       5.279   5.419  19.035  0.00  0.00    +0.000 C 
ATOM     14  C   UNL     1       4.784   5.481  16.590  0.00  0.00    +0.000 C 
ENDBRANCH   1  12
BRANCH   1  15
ATOM     15  C   UNL     1       2.165   5.054  17.955  0.00  0.00    +0.000 C 
BRANCH  15  16
ATOM     16  C   UNL     1       1.563   4.473  19.240  0.00  0.00    +0.000 C 
BRANCH  16  17
ATOM     17  C   UNL     1       1.429   2.927  19.248  0.00  0.00    +0.000 C 
ATOM     18  C   UNL     1       2.051   2.234  18.016  0.00  0.00    +0.000 C 
ATOM     19  C   UNL     1       3.570   2.372  17.989  0.00  0.00    +0.000 C 
ATOM     20  C   UNL     1       4.178   1.890  19.301  0.00  0.00    +0.000 C 
ATOM     21  C   UNL     1       3.473   2.464  20.530  0.00  0.00    +0.000 C 
ATOM     22  N   UNL     1       2.014   2.290  20.452  0.00  0.00    +0.000 NA
ATOM     23  C   UNL     1       1.372   2.716  21.693  0.00  0.00    +0.000 C 
ENDBRANCH  16  17
ENDBRANCH  15  16
ENDBRANCH   1  15
TORSDOF 7
ENDMDL
MODEL 5
REMARK VINA RESULT:      -6.3      2.409      4.912
REMARK  Name = 
REMARK  12 active torsions:
REMARK  status: ('A' for Active; 'I' for Inactive)
REMARK    1  A    between atoms: C_1  and  O_2
REMARK    2  A    between atoms: O_2  and  C_3
REMARK    3  A    between atoms: C_6  and  N_7
REMARK    4  A    between atoms: N_7  and  C_8
REMARK    5  A    between atoms: N_7  and  C_17
REMARK    6  A    between atoms: C_8  and  C_9
REMARK    7  A    between atoms: C_9  and  C_10
REMARK    8  A    between atoms: N_15  and  C_16
REMARK    9  A    between atoms: C_17  and  C_18
REMARK   10  A    between atoms: C_17  and  C_19
REMARK   11  A    between atoms: C_21  and  O_22
REMARK   12  A    between atoms: O_22  and  C_23
REMARK                            x       y       z     vdW  Elec       q    Type
REMARK                         _______ _______ _______ _____ _____    ______ ____
ROOT
ATOM      1  N   UNL     1       2.621   7.746  18.193  0.00  0.00    +0.000 N 
ENDROOT
BRANCH   1   5
ATOM      2  C   UNL     1       1.410   4.106  20.080  0.00  0.00    +0.000 A 
ATOM      3  C   UNL     1       1.782   5.223  20.831  0.00  0.00    +0.000 A 
ATOM      4  C   UNL     1       2.221   6.403  20.214  0.00  0.00    +0.000 A 
ATOM      5  C   UNL     1       2.321   6.529  18.823  0.00  0.00    +0.000 A 
ATOM      6  C   UNL     1       2.081   5.341  18.104  0.00  0.00    +0.000 A 
ATOM      7  C   UNL     1       1.636   4.141  18.699  0.00  0.00    +0.000 A 
BRANCH   2   9
ATOM      8  C   UNL     1       1.697   2.430  21.717  0.00  0.00    +0.000 C 
ATOM      9  O   UNL     1       0.890   3.000  20.682  0.00  0.00    +0.000 OA
ENDBRANCH   2   9
BRANCH   7  10
ATOM     10  O   UNL     1       1.457   3.138  17.783  0.00  0.00    +0.000 OA
ATOM     11  C   UNL     1       2.487   2.178  17.605  0.00  0.00    +0.000 C 
ENDBRANCH   7  10
ENDBRANCH   1   5
BRANCH   1  12
ATOM     12  C   UNL     1       1.660   8.877  18.245  0.00  0.00    +0.000 C 
ATOM     13  C   UNL     1       1.084   9.111  19.647  0.00  0.00    +0.000 C 
ATOM     14  C   UNL     1       2.268  10.184  17.730  0.00  0.00    +0.000 C 
ENDBRANCH   1  12
BRANCH   1  15
ATOM     15  C   UNL     1       3.831   7.845  17.342  0.00  0.00    +0.000 C 
BRANCH  15  16
ATOM     16  C   UNL     1       4.837   6.726  17.637  0.00  0.00    +0.000 C 
BRANCH  16  17
ATOM     17  C   UNL     1       6.188   6.858  16.884  0.00  0.00    +0.000 C 
ATOM     18  C   UNL     1       7.399   7.120  17.804  0.00  0.00    +0.000 C 
ATOM     19  C   UNL     1       7.706   5.924  18.700  0.00  0.00    +0.000 C 
ATOM     20  C   UNL     1       7.866   4.655  17.869  0.00  0.00    +0.000 C 
ATOM     21  C   UNL     1       6.739   4.464  16.855  0.00  0.00    +0.000 C 
ATOM     22  N   UNL     1       6.517   5.677  16.051  0.00  0.00    +0.000 NA
ATOM     23  C   UNL     1       5.536   5.430  14.997  0.00  0.00    +0.000 C 
ENDBRANCH  16  17
ENDBRANCH  15  16
ENDBRANCH   1  15
TORSDOF 7
ENDMDL
MODEL 6
REMARK VINA RESULT:      -6.2      2.756      5.730
REMARK  Name = 
REMARK  12 active torsions:
REMARK  status: ('A' for Active; 'I' for Inactive)
REMARK    1  A    between atoms: C_1  and  O_2
REMARK    2  A    between atoms: O_2  and  C_3
REMARK    3  A    between atoms: C_6  and  N_7
REMARK    4  A    between atoms: N_7  and  C_8
REMARK    5  A    between atoms: N_7  and  C_17
REMARK    6  A    between atoms: C_8  and  C_9
REMARK    7  A    between atoms: C_9  and  C_10
REMARK    8  A    between atoms: N_15  and  C_16
REMARK    9  A    between atoms: C_17  and  C_18
REMARK   10  A    between atoms: C_17  and  C_19
REMARK   11  A    between atoms: C_21  and  O_22
REMARK   12  A    between atoms: O_22  and  C_23
REMARK                            x       y       z     vdW  Elec       q    Type
REMARK                         _______ _______ _______ _____ _____    ______ ____
ROOT
ATOM      1  N   UNL     1       2.858   6.472  18.631  0.00  0.00    +0.000 N 
ENDROOT
BRANCH   1   5
ATOM      2  C   UNL     1       5.970   5.527  15.857  0.00  0.00    +0.000 A 
ATOM      3  C   UNL     1       4.905   4.653  16.077  0.00  0.00    +0.000 A 
ATOM      4  C   UNL     1       3.906   4.941  17.018  0.00  0.00    +0.000 A 
ATOM      5  C   UNL     1       3.922   6.107  17.793  0.00  0.00    +0.000 A 
ATOM      6  C   UNL     1       5.083   6.893  17.653  0.00  0.00    +0.000 A 
ATOM      7  C   UNL     1       6.101   6.627  16.713  0.00  0.00    +0.000 A 
BRANCH   2   9
ATOM      8  C   UNL     1       6.526   4.251  13.951  0.00  0.00    +0.000 C 
ATOM      9  O   UNL     1       6.880   5.289  14.871  0.00  0.00    +0.000 OA
ENDBRANCH   2   9
BRANCH   7  10
ATOM     10  O   UNL     1       7.113   7.551  16.762  0.00  0.00    +0.000 OA
ATOM     11  C   UNL     1       7.870   7.677  17.956  0.00  0.00    +0.000 C 
ENDBRANCH   7  10
ENDBRANCH   1   5
BRANCH   1  12
ATOM     12  C   UNL     1       2.554   7.904  18.882  0.00  0.00    +0.000 C 
ATOM     13  C   UNL     1       1.844   8.581  17.703  0.00  0.00    +0.000 C 
ATOM     14  C   UNL     1       1.725   8.113  20.151  0.00  0.00    +0.000 C 
ENDBRANCH   1  12
BRANCH   1  15
ATOM     15  C   UNL     1       2.138   5.422  19.391  0.00  0.00    +0.000 C 
BRANCH  15  16
ATOM     16  C   UNL     1       3.087   4.574  20.245  0.00  0.00    +0.000 C 
BRANCH  16  17
ATOM     17  C   UNL     1       2.544   3.166  20.609  0.00  0.00    +0.000 C 
ATOM     18  C   UNL     1       1.101   2.903  20.126  0.00  0.00    +0.000 C 
ATOM     19  C   UNL     1       1.010   2.842  18.604  0.00  0.00    +0.000 C 
ATOM     20  C   UNL     1       2.007   1.834  18.044  0.00  0.00    +0.000 C 
ATOM     21  C   UNL     1       3.411   2.000  18.628  0.00  0.00    +0.000 C 
ATOM     22  N   UNL     1       3.387   2.058  20.098  0.00  0.00    +0.000 NA
ATOM     23  C   UNL     1       4.743   2.075  20.640  0.00  0.00    +0.000 C 
ENDBRANCH  16  17
ENDBRANCH  15  16
ENDBRANCH   1  15
TORSDOF 7
ENDMDL
MODEL 7
REMARK VINA RESULT:      -6.1      2.757      5.611
REMARK  Name = 
REMARK  12 active torsions:
REMARK  status: ('A' for Active; 'I' for Inactive)
REMARK    1  A    between atoms: C_1  and  O_2
REMARK    2  A    between atoms: O_2  and  C_3
REMARK    3  A    between atoms: C_6  and  N_7
REMARK    4  A    between atoms: N_7  and  C_8
REMARK    5  A    between atoms: N_7  and  C_17
REMARK    6  A    between atoms: C_8  and  C_9
REMARK    7  A    between atoms: C_9  and  C_10
REMARK    8  A    between atoms: N_15  and  C_16
REMARK    9  A    between atoms: C_17  and  C_18
REMARK   10  A    between atoms: C_17  and  C_19
REMARK   11  A    between atoms: C_21  and  O_22
REMARK   12  A    between atoms: O_22  and  C_23
REMARK                            x       y       z     vdW  Elec       q    Type
REMARK                         _______ _______ _______ _____ _____    ______ ____
ROOT
ATOM      1  N   UNL     1       2.541   4.156  20.001  0.00  0.00    +0.000 N 
ENDROOT
BRANCH   1   5
ATOM      2  C   UNL     1       5.532   5.043  17.078  0.00  0.00    +0.000 A 
ATOM      3  C   UNL     1       4.196   4.858  16.716  0.00  0.00    +0.000 A 
ATOM      4  C   UNL     1       3.222   4.525  17.668  0.00  0.00    +0.000 A 
ATOM      5  C   UNL     1       3.527   4.348  19.023  0.00  0.00    +0.000 A 
ATOM      6  C   UNL     1       4.902   4.396  19.329  0.00  0.00    +0.000 A 
ATOM      7  C   UNL     1       5.903   4.732  18.392  0.00  0.00    +0.000 A 
BRANCH   2   9
ATOM      8  C   UNL     1       6.864   4.482  15.212  0.00  0.00    +0.000 C 
ATOM      9  O   UNL     1       6.452   5.466  16.167  0.00  0.00    +0.000 OA
ENDBRANCH   2   9
BRANCH   7  10
ATOM     10  O   UNL     1       7.158   4.728  18.943  0.00  0.00    +0.000 OA
ATOM     11  C   UNL     1       7.834   5.964  19.119  0.00  0.00    +0.000 C 
ENDBRANCH   7  10
ENDBRANCH   1   5
BRANCH   1  12
ATOM     12  C   UNL     1       1.856   2.845  20.132  0.00  0.00    +0.000 C 
ATOM     13  C   UNL     1       1.456   2.519  21.578  0.00  0.00    +0.000 C 
ATOM     14  C   UNL     1       0.619   2.740  19.237  0.00  0.00    +0.000 C 
ENDBRANCH   1  12
BRANCH   1  15
ATOM     15  C   UNL     1       2.075   5.314  20.801  0.00  0.00    +0.000 C 
BRANCH  15  16
ATOM     16  C   UNL     1       1.463   6.412  19.923  0.00  0.00    +0.000 C 
BRANCH  16  17
ATOM     17  C   UNL     1       2.291   7.723  19.858  0.00  0.00    +0.000 C 
ATOM     18  C   UNL     1       2.732   8.120  18.433  0.00  0.00    +0.000 C 
ATOM     19  C   UNL     1       1.547   8.507  17.554  0.00  0.00    +0.000 C 
ATOM     20  C   UNL     1       0.706   9.586  18.229  0.00  0.00    +0.000 C 
ATOM     21  C   UNL     1       0.385   9.263  19.688  0.00  0.00    +0.000 C 
ATOM     22  N   UNL     1       1.592   8.892  20.443  0.00  0.00    +0.000 NA
ATOM     23  C   UNL     1       1.288   8.725  21.862  0.00  0.00    +0.000 C 
ENDBRANCH  16  17
ENDBRANCH  15  16
ENDBRANCH   1  15
TORSDOF 7
ENDMDL
MODEL 8
REMARK VINA RESULT:      -6.1      2.952      6.003
REMARK  Name = 
REMARK  12 active torsions:
REMARK  status: ('A' for Active; 'I' for Inactive)
REMARK    1  A    between atoms: C_1  and  O_2
REMARK    2  A    between atoms: O_2  and  C_3
REMARK    3  A    between atoms: C_6  and  N_7
REMARK    4  A    between atoms: N_7  and  C_8
REMARK    5  A    between atoms: N_7  and  C_17
REMARK    6  A    between atoms: C_8  and  C_9
REMARK    7  A    between atoms: C_9  and  C_10
REMARK    8  A    between atoms: N_15  and  C_16
REMARK    9  A    between atoms: C_17  and  C_18
REMARK   10  A    between atoms: C_17  and  C_19
REMARK   11  A    between atoms: C_21  and  O_22
REMARK   12  A    between atoms: O_22  and  C_23
REMARK                            x       y       z     vdW  Elec       q    Type
REMARK                         _______ _______ _______ _____ _____    ______ ____
ROOT
ATOM      1  N   UNL     1       3.007   6.367  17.958  0.00  0.00    +0.000 N 
ENDROOT
BRANCH   1   5
ATOM      2  C   UNL     1       6.556   5.232  15.861  0.00  0.00    +0.000 A 
ATOM      3  C   UNL     1       5.430   4.406  15.883  0.00  0.00    +0.000 A 
ATOM      4  C   UNL     1       4.281   4.757  16.606  0.00  0.00    +0.000 A 
ATOM      5  C   UNL     1       4.196   5.940  17.350  0.00  0.00    +0.000 A 
ATOM      6  C   UNL     1       5.396   6.676  17.427  0.00  0.00    +0.000 A 
ATOM      7  C   UNL     1       6.565   6.347  16.708  0.00  0.00    +0.000 A 
BRANCH   2   9
ATOM      8  C   UNL     1       7.349   4.824  13.676  0.00  0.00    +0.000 C 
ATOM      9  O   UNL     1       7.628   4.934  15.076  0.00  0.00    +0.000 OA
ENDBRANCH   2   9
BRANCH   7  10
ATOM     10  O   UNL     1       7.587   7.230  16.939  0.00  0.00    +0.000 OA
ATOM     11  C   UNL     1       7.312   8.426  17.653  0.00  0.00    +0.000 C 
ENDBRANCH   7  10
ENDBRANCH   1   5
BRANCH   1  12
ATOM     12  C   UNL     1       2.893   7.743  18.505  0.00  0.00    +0.000 C 
ATOM     13  C   UNL     1       2.268   8.733  17.514  0.00  0.00    +0.000 C 
ATOM     14  C   UNL     1       2.108   7.787  19.818  0.00  0.00    +0.000 C 
ENDBRANCH   1  12
BRANCH   1  15
ATOM     15  C   UNL     1       1.918   5.389  18.193  0.00  0.00    +0.000 C 
BRANCH  15  16
ATOM     16  C   UNL     1       2.015   4.740  19.579  0.00  0.00    +0.000 C 
BRANCH  16  17
ATOM     17  C   UNL     1       1.399   3.318  19.670  0.00  0.00    +0.000 C 
ATOM     18  C   UNL     1       1.219   2.621  18.305  0.00  0.00    +0.000 C 
ATOM     19  C   UNL     1       2.557   2.294  17.648  0.00  0.00    +0.000 C 
ATOM     20  C   UNL     1       3.443   1.497  18.599  0.00  0.00    +0.000 C 
ATOM     21  C   UNL     1       3.512   2.109  19.999  0.00  0.00    +0.000 C 
ATOM     22  N   UNL     1       2.172   2.395  20.535  0.00  0.00    +0.000 NA
ATOM     23  C   UNL     1       2.253   2.846  21.923  0.00  0.00    +0.000 C 
ENDBRANCH  16  17
ENDBRANCH  15  16
ENDBRANCH   1  15
TORSDOF 7
ENDMDL
MODEL 9
REMARK VINA RESULT:      -6.1      1.285      2.233
REMARK  Name = 
REMARK  12 active torsions:
REMARK  status: ('A' for Active; 'I' for Inactive)
REMARK    1  A    between atoms: C_1  and  O_2
REMARK    2  A    between atoms: O_2  and  C_3
REMARK    3  A    between atoms: C_6  and  N_7
REMARK    4  A    between atoms: N_7  and  C_8
REMARK    5  A    between atoms: N_7  and  C_17
REMARK    6  A    between atoms: C_8  and  C_9
REMARK    7  A    between atoms: C_9  and  C_10
REMARK    8  A    between atoms: N_15  and  C_16
REMARK    9  A    between atoms: C_17  and  C_18
REMARK   10  A    between atoms: C_17  and  C_19
REMARK   11  A    between atoms: C_21  and  O_22
REMARK   12  A    between atoms: O_22  and  C_23
REMARK                            x       y       z     vdW  Elec       q    Type
REMARK                         _______ _______ _______ _____ _____    ______ ____
ROOT
ATOM      1  N   UNL     1       2.868   6.137  18.829  0.00  0.00    +0.000 N 
ENDROOT
BRANCH   1   5
ATOM      2  C   UNL     1       0.838   9.882  19.187  0.00  0.00    +0.000 A 
ATOM      3  C   UNL     1       1.410   9.481  17.979  0.00  0.00    +0.000 A 
ATOM      4  C   UNL     1       2.114   8.272  17.871  0.00  0.00    +0.000 A 
ATOM      5  C   UNL     1       2.292   7.409  18.959  0.00  0.00    +0.000 A 
ATOM      6  C   UNL     1       1.831   7.912  20.192  0.00  0.00    +0.000 A 
ATOM      7  C   UNL     1       1.118   9.122  20.329  0.00  0.00    +0.000 A 
BRANCH   2   9
ATOM      8  C   UNL     1       0.796  12.240  19.290  0.00  0.00    +0.000 C 
ATOM      9  O   UNL     1       0.071  11.006  19.259  0.00  0.00    +0.000 OA
ENDBRANCH   2   9
BRANCH   7  10
ATOM     10  O   UNL     1       0.765   9.377  21.628  0.00  0.00    +0.000 OA
ATOM     11  C   UNL     1      -0.451   8.839  22.128  0.00  0.00    +0.000 C 
ENDBRANCH   7  10
ENDBRANCH   1   5
BRANCH   1  12
ATOM     12  C   UNL     1       2.089   4.919  19.171  0.00  0.00    +0.000 C 
ATOM     13  C   UNL     1       1.547   4.188  17.935  0.00  0.00    +0.000 C 
ATOM     14  C   UNL     1       2.891   3.933  20.023  0.00  0.00    +0.000 C 
ENDBRANCH   1  12
BRANCH   1  15
ATOM     15  C   UNL     1       4.309   6.022  18.499  0.00  0.00    +0.000 C 
BRANCH  15  16
ATOM     16  C   UNL     1       4.551   5.940  16.987  0.00  0.00    +0.000 C 
BRANCH  16  17
ATOM     17  C   UNL     1       5.943   6.449  16.528  0.00  0.00    +0.000 C 
ATOM     18  C   UNL     1       6.856   6.915  17.682  0.00  0.00    +0.000 C 
ATOM     19  C   UNL     1       7.276   5.757  18.582  0.00  0.00    +0.000 C 
ATOM     20  C   UNL     1       7.900   4.634  17.760  0.00  0.00    +0.000 C 
ATOM     21  C   UNL     1       7.067   4.264  16.533  0.00  0.00    +0.000 C 
ATOM     22  N   UNL     1       6.706   5.451  15.741  0.00  0.00    +0.000 NA
ATOM     23  C   UNL     1       6.034   5.065  14.502  0.00  0.00    +0.000 C 
ENDBRANCH  16  17
ENDBRANCH  15  16
ENDBRANCH   1  15
TORSDOF 7
ENDMDL
