MODEL 1
REMARK VINA RESULT:      -7.0      0.000      0.000
REMARK  Name = 
REMARK  8 active torsions:
REMARK  status: ('A' for Active; 'I' for Inactive)
REMARK    1  A    between atoms: C_1  and  N_2
REMARK    2  A    between atoms: C_3  and  N_4
REMARK    3  A    between atoms: C_5  and  C_6
REMARK    4  A    between atoms: C_6  and  C_8
REMARK    5  A    between atoms: C_8  and  O_9
REMARK    6  A    between atoms: O_9  and  C_10
REMARK    7  A    between atoms: C_10  and  C_12
REMARK    8  A    between atoms: N_19  and  C_20
REMARK                            x       y       z     vdW  Elec       q    Type
REMARK                         _______ _______ _______ _____ _____    ______ ____
ROOT
ATOM      1  C   UNL     1       2.338   7.195  18.892  0.00  0.00    +0.000 C 
ATOM      2  N   UNL     1       3.207   6.044  19.093  0.00  0.00    +0.000 N 
ATOM      3  C   UNL     1       4.531   5.989  18.636  0.00  0.00    +0.000 A 
ATOM      4  C   UNL     1       5.277   4.873  18.885  0.00  0.00    +0.000 A 
ATOM      5  C   UNL     1       4.631   3.733  19.594  0.00  0.00    +0.000 A 
ATOM      6  O   UNL     1       5.252   2.699  19.815  0.00  0.00    +0.000 OA
ATOM      7  N   UNL     1       3.324   3.867  19.975  0.00  0.00    +0.000 N 
ATOM      8  C   UNL     1       2.665   2.759  20.642  0.00  0.00    +0.000 C 
ATOM      9  C   UNL     1       2.574   4.997  19.766  0.00  0.00    +0.000 A 
ATOM     10  O   UNL     1       1.408   5.075  20.145  0.00  0.00    +0.000 OA
ENDROOT
BRANCH   3  11
ATOM     11  N   UNL     1       5.042   7.066  17.926  0.00  0.00    +0.000 N 
ATOM     12  H   UNL     1       5.966   7.382  18.177  0.00  0.00    +0.000 HD
ATOM     13  H   UNL     1       4.909   7.007  16.912  0.00  0.00    +0.000 HD
ENDBRANCH   3  11
BRANCH   4  14
ATOM     14  C   UNL     1       6.732   4.750  18.444  0.00  0.00    +0.000 C 
ATOM     15  O   UNL     1       7.656   4.973  19.236  0.00  0.00    +0.000 OA
BRANCH  14  16
ATOM     16  C   UNL     1       7.032   4.343  16.987  0.00  0.00    +0.000 C 
BRANCH  16  17
ATOM     17  O   UNL     1       7.147   5.436  16.078  0.00  0.00    +0.000 OA
BRANCH  17  18
ATOM     18  C   UNL     1       6.192   5.471  15.107  0.00  0.00    +0.000 C 
ATOM     19  O   UNL     1       5.294   6.296  15.034  0.00  0.00    +0.000 OA
BRANCH  18  20
ATOM     20  C   UNL     1       6.472   4.389  14.093  0.00  0.00    +0.000 C 
ATOM     21  C   UNL     1       5.204   3.927  13.387  0.00  0.00    +0.000 C 
ATOM     22  C   UNL     1       5.737   3.140  12.200  0.00  0.00    +0.000 C 
ATOM     23  C   UNL     1       7.072   3.795  11.840  0.00  0.00    +0.000 C 
ATOM     24  C   UNL     1       7.335   4.842  12.920  0.00  0.00    +0.000 C 
ENDBRANCH  18  20
ENDBRANCH  17  18
ENDBRANCH  16  17
ENDBRANCH  14  16
ENDBRANCH   4  14
TORSDOF 6
ENDMDL
MODEL 2
REMARK VINA RESULT:      -6.9      1.470      2.698
REMARK  Name = 
REMARK  8 active torsions:
REMARK  status: ('A' for Active; 'I' for Inactive)
REMARK    1  A    between atoms: C_1  and  N_2
REMARK    2  A    between atoms: C_3  and  N_4
REMARK    3  A    between atoms: C_5  and  C_6
REMARK    4  A    between atoms: C_6  and  C_8
REMARK    5  A    between atoms: C_8  and  O_9
REMARK    6  A    between atoms: O_9  and  C_10
REMARK    7  A    between atoms: C_10  and  C_12
REMARK    8  A    between atoms: N_19  and  C_20
REMARK                            x       y       z     vdW  Elec       q    Type
REMARK                         _______ _______ _______ _____ _____    ______ ____
ROOT
ATOM      1  C   UNL     1       2.347   1.958  19.224  0.00  0.00    +0.000 C 
ATOM      2  N   UNL     1       3.071   3.183  18.919  0.00  0.00    +0.000 N 
ATOM      3  C   UNL     1       4.447   3.338  19.134  0.00  0.00    +0.000 A 
ATOM      4  C   UNL     1       5.046   4.520  18.802  0.00  0.00    +0.000 A 
ATOM      5  C   UNL     1       4.195   5.619  18.268  0.00  0.00    +0.000 A 
ATOM      6  O   UNL     1       4.682   6.707  17.982  0.00  0.00    +0.000 OA
ATOM      7  N   UNL     1       2.855   5.385  18.122  0.00  0.00    +0.000 N 
ATOM      8  C   UNL     1       2.001   6.451  17.630  0.00  0.00    +0.000 C 
ATOM      9  C   UNL     1       2.246   4.190  18.414  0.00  0.00    +0.000 A 
ATOM     10  O   UNL     1       1.041   4.024  18.248  0.00  0.00    +0.000 OA
ENDROOT
BRANCH   3  11
ATOM     11  N   UNL     1       5.162   2.290  19.696  0.00  0.00    +0.000 N 
ATOM     12  H   UNL     1       6.128   2.467  19.928  0.00  0.00    +0.000 HD
ATOM     13  H   UNL     1       4.667   1.788  20.439  0.00  0.00    +0.000 HD
ENDBRANCH   3  11
BRANCH   4  14
ATOM     14  C   UNL     1       6.543   4.753  18.979  0.00  0.00    +0.000 C 
ATOM     15  O   UNL     1       7.004   5.124  20.065  0.00  0.00    +0.000 OA
BRANCH  14  16
ATOM     16  C   UNL     1       7.476   4.518  17.774  0.00  0.00    +0.000 C 
BRANCH  16  17
ATOM     17  O   UNL     1       6.808   4.425  16.517  0.00  0.00    +0.000 OA
BRANCH  17  18
ATOM     18  C   UNL     1       7.084   5.439  15.650  0.00  0.00    +0.000 C 
ATOM     19  O   UNL     1       7.707   6.453  15.929  0.00  0.00    +0.000 OA
BRANCH  18  20
ATOM     20  C   UNL     1       6.579   5.073  14.276  0.00  0.00    +0.000 C 
ATOM     21  C   UNL     1       7.688   5.103  13.233  0.00  0.00    +0.000 C 
ATOM     22  C   UNL     1       7.070   4.374  12.050  0.00  0.00    +0.000 C 
ATOM     23  C   UNL     1       6.099   3.359  12.656  0.00  0.00    +0.000 C 
ATOM     24  C   UNL     1       6.079   3.636  14.158  0.00  0.00    +0.000 C 
ENDBRANCH  18  20
ENDBRANCH  17  18
ENDBRANCH  16  17
ENDBRANCH  14  16
ENDBRANCH   4  14
TORSDOF 6
ENDMDL
MODEL 3
REMARK VINA RESULT:      -6.7      0.905      1.124
REMARK  Name = 
REMARK  8 active torsions:
REMARK  status: ('A' for Active; 'I' for Inactive)
REMARK    1  A    between atoms: C_1  and  N_2
REMARK    2  A    between atoms: C_3  and  N_4
REMARK    3  A    between atoms: C_5  and  C_6
REMARK    4  A    between atoms: C_6  and  C_8
REMARK    5  A    between atoms: C_8  and  O_9
REMARK    6  A    between atoms: O_9  and  C_10
REMARK    7  A    between atoms: C_10  and  C_12
REMARK    8  A    between atoms: N_19  and  C_20
REMARK                            x       y       z     vdW  Elec       q    Type
REMARK                         _______ _______ _______ _____ _____    ______ ____
ROOT
ATOM      1  C   UNL     1       2.433   7.458  18.417  0.00  0.00    +0.000 C 
ATOM      2  N   UNL     1       3.268   6.291  18.664  0.00  0.00    +0.000 N 
ATOM      3  C   UNL     1       4.499   6.077  18.028  0.00  0.00    +0.000 A 
ATOM      4  C   UNL     1       5.222   4.960  18.334  0.00  0.00    +0.000 A 
ATOM      5  C   UNL     1       4.646   3.986  19.301  0.00  0.00    +0.000 A 
ATOM      6  O   UNL     1       5.245   2.955  19.586  0.00  0.00    +0.000 OA
ATOM      7  N   UNL     1       3.423   4.266  19.848  0.00  0.00    +0.000 N 
ATOM      8  C   UNL     1       2.827   3.317  20.771  0.00  0.00    +0.000 C 
ATOM      9  C   UNL     1       2.702   5.402  19.579  0.00  0.00    +0.000 A 
ATOM     10  O   UNL     1       1.616   5.616  20.111  0.00  0.00    +0.000 OA
ENDROOT
BRANCH   3  11
ATOM     11  N   UNL     1       4.940   6.999  17.089  0.00  0.00    +0.000 N 
ATOM     12  H   UNL     1       4.441   7.874  17.038  0.00  0.00    +0.000 HD
ATOM     13  H   UNL     1       5.956   7.124  17.062  0.00  0.00    +0.000 HD
ENDBRANCH   3  11
BRANCH   4  14
ATOM     14  C   UNL     1       6.583   4.672  17.706  0.00  0.00    +0.000 C 
ATOM     15  O   UNL     1       7.621   4.766  18.370  0.00  0.00    +0.000 OA
BRANCH  14  16
ATOM     16  C   UNL     1       6.639   4.262  16.220  0.00  0.00    +0.000 C 
BRANCH  16  17
ATOM     17  O   UNL     1       6.682   5.355  15.304  0.00  0.00    +0.000 OA
BRANCH  17  18
ATOM     18  C   UNL     1       7.182   5.048  14.075  0.00  0.00    +0.000 C 
ATOM     19  O   UNL     1       8.160   5.572  13.562  0.00  0.00    +0.000 OA
BRANCH  18  20
ATOM     20  C   UNL     1       6.394   3.903  13.488  0.00  0.00    +0.000 C 
ATOM     21  C   UNL     1       5.013   4.341  13.018  0.00  0.00    +0.000 C 
ATOM     22  C   UNL     1       4.553   3.173  12.160  0.00  0.00    +0.000 C 
ATOM     23  C   UNL     1       5.828   2.578  11.561  0.00  0.00    +0.000 C 
ATOM     24  C   UNL     1       6.991   3.328  12.207  0.00  0.00    +0.000 C 
ENDBRANCH  18  20
ENDBRANCH  17  18
ENDBRANCH  16  17
ENDBRANCH  14  16
ENDBRANCH   4  14
TORSDOF 6
ENDMDL
MODEL 4
REMARK VINA RESULT:      -6.6      1.113      2.390
REMARK  Name = 
REMARK  8 active torsions:
REMARK  status: ('A' for Active; 'I' for Inactive)
REMARK    1  A    between atoms: C_1  and  N_2
REMARK    2  A    between atoms: C_3  and  N_4
REMARK    3  A    between atoms: C_5  and  C_6
REMARK    4  A    between atoms: C_6  and  C_8
REMARK    5  A    between atoms: C_8  and  O_9
REMARK    6  A    between atoms: O_9  and  C_10
REMARK    7  A    between atoms: C_10  and  C_12
REMARK    8  A    between atoms: N_19  and  C_20
REMARK                            x       y       z     vdW  Elec       q    Type
REMARK                         _______ _______ _______ _____ _____    ______ ____
ROOT
ATOM      1  C   UNL     1       2.454   3.327  20.205  0.00  0.00    +0.000 C 
ATOM      2  N   UNL     1       3.301   4.283  19.507  0.00  0.00    +0.000 N 
ATOM      3  C   UNL     1       4.660   4.061  19.246  0.00  0.00    +0.000 A 
ATOM      4  C   UNL     1       5.374   5.009  18.569  0.00  0.00    +0.000 A 
ATOM      5  C   UNL     1       4.683   6.268  18.177  0.00  0.00    +0.000 A 
ATOM      6  O   UNL     1       5.289   7.160  17.593  0.00  0.00    +0.000 OA
ATOM      7  N   UNL     1       3.362   6.408  18.502  0.00  0.00    +0.000 N 
ATOM      8  C   UNL     1       2.675   7.640  18.156  0.00  0.00    +0.000 C 
ATOM      9  C   UNL     1       2.623   5.449  19.148  0.00  0.00    +0.000 A 
ATOM     10  O   UNL     1       1.432   5.615  19.400  0.00  0.00    +0.000 OA
ENDROOT
BRANCH   3  11
ATOM     11  N   UNL     1       5.249   2.889  19.700  0.00  0.00    +0.000 N 
ATOM     12  H   UNL     1       6.020   2.985  20.344  0.00  0.00    +0.000 HD
ATOM     13  H   UNL     1       4.586   2.164  19.987  0.00  0.00    +0.000 HD
ENDBRANCH   3  11
BRANCH   4  14
ATOM     14  C   UNL     1       6.848   4.826  18.223  0.00  0.00    +0.000 C 
ATOM     15  O   UNL     1       7.723   4.952  19.087  0.00  0.00    +0.000 OA
BRANCH  14  16
ATOM     16  C   UNL     1       7.229   4.481  16.769  0.00  0.00    +0.000 C 
BRANCH  16  17
ATOM     17  O   UNL     1       6.157   3.965  15.982  0.00  0.00    +0.000 OA
BRANCH  17  18
ATOM     18  C   UNL     1       5.937   4.630  14.814  0.00  0.00    +0.000 C 
ATOM     19  O   UNL     1       5.661   5.818  14.722  0.00  0.00    +0.000 OA
BRANCH  18  20
ATOM     20  C   UNL     1       6.174   3.695  13.654  0.00  0.00    +0.000 C 
ATOM     21  C   UNL     1       4.931   3.529  12.791  0.00  0.00    +0.000 C 
ATOM     22  C   UNL     1       5.471   2.875  11.529  0.00  0.00    +0.000 C 
ATOM     23  C   UNL     1       6.904   3.389  11.381  0.00  0.00    +0.000 C 
ATOM     24  C   UNL     1       7.192   4.205  12.640  0.00  0.00    +0.000 C 
ENDBRANCH  18  20
ENDBRANCH  17  18
ENDBRANCH  16  17
ENDBRANCH  14  16
ENDBRANCH   4  14
TORSDOF 6
ENDMDL
MODEL 5
REMARK VINA RESULT:      -6.6      1.667      2.878
REMARK  Name = 
REMARK  8 active torsions:
REMARK  status: ('A' for Active; 'I' for Inactive)
REMARK    1  A    between atoms: C_1  and  N_2
REMARK    2  A    between atoms: C_3  and  N_4
REMARK    3  A    between atoms: C_5  and  C_6
REMARK    4  A    between atoms: C_6  and  C_8
REMARK    5  A    between atoms: C_8  and  O_9
REMARK    6  A    between atoms: O_9  and  C_10
REMARK    7  A    between atoms: C_10  and  C_12
REMARK    8  A    between atoms: N_19  and  C_20
REMARK                            x       y       z     vdW  Elec       q    Type
REMARK                         _______ _______ _______ _____ _____    ______ ____
ROOT
ATOM      1  C   UNL     1       4.041   2.383  20.367  0.00  0.00    +0.000 C 
ATOM      2  N   UNL     1       3.784   3.731  19.880  0.00  0.00    +0.000 N 
ATOM      3  C   UNL     1       4.546   4.346  18.878  0.00  0.00    +0.000 A 
ATOM      4  C   UNL     1       4.222   5.609  18.473  0.00  0.00    +0.000 A 
ATOM      5  C   UNL     1       3.093   6.303  19.153  0.00  0.00    +0.000 A 
ATOM      6  O   UNL     1       2.783   7.448  18.844  0.00  0.00    +0.000 OA
ATOM      7  N   UNL     1       2.426   5.633  20.143  0.00  0.00    +0.000 N 
ATOM      8  C   UNL     1       1.341   6.299  20.840  0.00  0.00    +0.000 C 
ATOM      9  C   UNL     1       2.717   4.350  20.533  0.00  0.00    +0.000 A 
ATOM     10  O   UNL     1       2.075   3.785  21.415  0.00  0.00    +0.000 OA
ENDROOT
BRANCH   3  11
ATOM     11  N   UNL     1       5.625   3.660  18.337  0.00  0.00    +0.000 N 
ATOM     12  H   UNL     1       5.566   2.653  18.324  0.00  0.00    +0.000 HD
ATOM     13  H   UNL     1       5.972   4.044  17.454  0.00  0.00    +0.000 HD
ENDBRANCH   3  11
BRANCH   4  14
ATOM     14  C   UNL     1       4.987   6.333  17.369  0.00  0.00    +0.000 C 
ATOM     15  O   UNL     1       4.397   6.790  16.383  0.00  0.00    +0.000 OA
BRANCH  14  16
ATOM     16  C   UNL     1       6.515   6.484  17.505  0.00  0.00    +0.000 C 
BRANCH  16  17
ATOM     17  O   UNL     1       7.232   6.394  16.274  0.00  0.00    +0.000 OA
BRANCH  17  18
ATOM     18  C   UNL     1       7.421   5.125  15.818  0.00  0.00    +0.000 C 
ATOM     19  O   UNL     1       7.947   4.221  16.451  0.00  0.00    +0.000 OA
BRANCH  18  20
ATOM     20  C   UNL     1       6.803   4.990  14.448  0.00  0.00    +0.000 C 
ATOM     21  C   UNL     1       7.850   5.015  13.343  0.00  0.00    +0.000 C 
ATOM     22  C   UNL     1       7.085   4.512  12.130  0.00  0.00    +0.000 C 
ATOM     23  C   UNL     1       6.028   3.553  12.680  0.00  0.00    +0.000 C 
ATOM     24  C   UNL     1       6.122   3.648  14.202  0.00  0.00    +0.000 C 
ENDBRANCH  18  20
ENDBRANCH  17  18
ENDBRANCH  16  17
ENDBRANCH  14  16
ENDBRANCH   4  14
TORSDOF 6
ENDMDL
MODEL 6
REMARK VINA RESULT:      -6.6      1.419      2.686
REMARK  Name = 
REMARK  8 active torsions:
REMARK  status: ('A' for Active; 'I' for Inactive)
REMARK    1  A    between atoms: C_1  and  N_2
REMARK    2  A    between atoms: C_3  and  N_4
REMARK    3  A    between atoms: C_5  and  C_6
REMARK    4  A    between atoms: C_6  and  C_8
REMARK    5  A    between atoms: C_8  and  O_9
REMARK    6  A    between atoms: O_9  and  C_10
REMARK    7  A    between atoms: C_10  and  C_12
REMARK    8  A    between atoms: N_19  and  C_20
REMARK                            x       y       z     vdW  Elec       q    Type
REMARK                         _______ _______ _______ _____ _____    ______ ____
ROOT
ATOM      1  C   UNL     1       2.948   3.469  20.644  0.00  0.00    +0.000 C 
ATOM      2  N   UNL     1       3.449   4.409  19.652  0.00  0.00    +0.000 N 
ATOM      3  C   UNL     1       4.638   4.213  18.936  0.00  0.00    +0.000 A 
ATOM      4  C   UNL     1       5.022   5.143  18.013  0.00  0.00    +0.000 A 
ATOM      5  C   UNL     1       4.179   6.358  17.839  0.00  0.00    +0.000 A 
ATOM      6  O   UNL     1       4.498   7.234  17.042  0.00  0.00    +0.000 OA
ATOM      7  N   UNL     1       3.052   6.477  18.605  0.00  0.00    +0.000 N 
ATOM      8  C   UNL     1       2.230   7.667  18.474  0.00  0.00    +0.000 C 
ATOM      9  C   UNL     1       2.633   5.534  19.509  0.00  0.00    +0.000 A 
ATOM     10  O   UNL     1       1.602   5.679  20.160  0.00  0.00    +0.000 OA
ENDROOT
BRANCH   3  11
ATOM     11  N   UNL     1       5.403   3.086  19.201  0.00  0.00    +0.000 N 
ATOM     12  H   UNL     1       5.600   2.474  18.423  0.00  0.00    +0.000 HD
ATOM     13  H   UNL     1       6.228   3.260  19.781  0.00  0.00    +0.000 HD
ENDBRANCH   3  11
BRANCH   4  14
ATOM     14  C   UNL     1       6.287   4.984  17.175  0.00  0.00    +0.000 C 
ATOM     15  O   UNL     1       7.403   5.191  17.665  0.00  0.00    +0.000 OA
BRANCH  14  16
ATOM     16  C   UNL     1       6.148   4.561  15.698  0.00  0.00    +0.000 C 
BRANCH  16  17
ATOM     17  O   UNL     1       7.370   4.563  14.963  0.00  0.00    +0.000 OA
BRANCH  17  18
ATOM     18  C   UNL     1       7.224   4.703  13.616  0.00  0.00    +0.000 C 
ATOM     19  O   UNL     1       7.819   5.518  12.925  0.00  0.00    +0.000 OA
BRANCH  18  20
ATOM     20  C   UNL     1       6.284   3.640  13.103  0.00  0.00    +0.000 C 
ATOM     21  C   UNL     1       5.045   4.239  12.452  0.00  0.00    +0.000 C 
ATOM     22  C   UNL     1       4.442   3.060  11.706  0.00  0.00    +0.000 C 
ATOM     23  C   UNL     1       5.626   2.176  11.310  0.00  0.00    +0.000 C 
ATOM     24  C   UNL     1       6.856   2.798  11.968  0.00  0.00    +0.000 C 
ENDBRANCH  18  20
ENDBRANCH  17  18
ENDBRANCH  16  17
ENDBRANCH  14  16
ENDBRANCH   4  14
TORSDOF 6
ENDMDL
MODEL 7
REMARK VINA RESULT:      -6.6      1.675      2.363
REMARK  Name = 
REMARK  8 active torsions:
REMARK  status: ('A' for Active; 'I' for Inactive)
REMARK    1  A    between atoms: C_1  and  N_2
REMARK    2  A    between atoms: C_3  and  N_4
REMARK    3  A    between atoms: C_5  and  C_6
REMARK    4  A    between atoms: C_6  and  C_8
REMARK    5  A    between atoms: C_8  and  O_9
REMARK    6  A    between atoms: O_9  and  C_10
REMARK    7  A    between atoms: C_10  and  C_12
REMARK    8  A    between atoms: N_19  and  C_20
REMARK                            x       y       z     vdW  Elec       q    Type
REMARK                         _______ _______ _______ _____ _____    ______ ____
ROOT
ATOM      1  C   UNL     1       1.230   5.506  20.774  0.00  0.00    +0.000 C 
ATOM      2  N   UNL     1       2.184   5.077  19.761  0.00  0.00    +0.000 N 
ATOM      3  C   UNL     1       2.911   5.970  18.962  0.00  0.00    +0.000 A 
ATOM      4  C   UNL     1       3.797   5.477  18.047  0.00  0.00    +0.000 A 
ATOM      5  C   UNL     1       3.918   3.999  17.903  0.00  0.00    +0.000 A 
ATOM      6  O   UNL     1       4.678   3.510  17.076  0.00  0.00    +0.000 OA
ATOM      7  N   UNL     1       3.144   3.207  18.706  0.00  0.00    +0.000 N 
ATOM      8  C   UNL     1       3.223   1.765  18.564  0.00  0.00    +0.000 C 
ATOM      9  C   UNL     1       2.278   3.688  19.656  0.00  0.00    +0.000 A 
ATOM     10  O   UNL     1       1.618   2.934  20.367  0.00  0.00    +0.000 OA
ENDROOT
BRANCH   3  11
ATOM     11  N   UNL     1       2.697   7.333  19.109  0.00  0.00    +0.000 N 
ATOM     12  H   UNL     1       1.947   7.739  18.569  0.00  0.00    +0.000 HD
ATOM     13  H   UNL     1       2.703   7.661  20.079  0.00  0.00    +0.000 HD
ENDBRANCH   3  11
BRANCH   4  14
ATOM     14  C   UNL     1       4.645   6.385  17.161  0.00  0.00    +0.000 C 
ATOM     15  O   UNL     1       4.129   7.053  16.258  0.00  0.00    +0.000 OA
BRANCH  14  16
ATOM     16  C   UNL     1       6.165   6.455  17.414  0.00  0.00    +0.000 C 
BRANCH  16  17
ATOM     17  O   UNL     1       6.963   6.455  16.232  0.00  0.00    +0.000 OA
BRANCH  17  18
ATOM     18  C   UNL     1       7.302   5.217  15.775  0.00  0.00    +0.000 C 
ATOM     19  O   UNL     1       7.896   4.367  16.422  0.00  0.00    +0.000 OA
BRANCH  18  20
ATOM     20  C   UNL     1       6.753   5.032  14.382  0.00  0.00    +0.000 C 
ATOM     21  C   UNL     1       7.845   5.107  13.323  0.00  0.00    +0.000 C 
ATOM     22  C   UNL     1       7.164   4.548  12.084  0.00  0.00    +0.000 C 
ATOM     23  C   UNL     1       6.140   3.535  12.600  0.00  0.00    +0.000 C 
ATOM     24  C   UNL     1       6.162   3.651  14.123  0.00  0.00    +0.000 C 
ENDBRANCH  18  20
ENDBRANCH  17  18
ENDBRANCH  16  17
ENDBRANCH  14  16
ENDBRANCH   4  14
TORSDOF 6
ENDMDL
MODEL 8
REMARK VINA RESULT:      -6.4      1.614      2.646
REMARK  Name = 
REMARK  8 active torsions:
REMARK  status: ('A' for Active; 'I' for Inactive)
REMARK    1  A    between atoms: C_1  and  N_2
REMARK    2  A    between atoms: C_3  and  N_4
REMARK    3  A    between atoms: C_5  and  C_6
REMARK    4  A    between atoms: C_6  and  C_8
REMARK    5  A    between atoms: C_8  and  O_9
REMARK    6  A    between atoms: O_9  and  C_10
REMARK    7  A    between atoms: C_10  and  C_12
REMARK    8  A    between atoms: N_19  and  C_20
REMARK                            x       y       z     vdW  Elec       q    Type
REMARK                         _______ _______ _______ _____ _____    ______ ____
ROOT
ATOM      1  C   UNL     1       2.447   1.478  19.317  0.00  0.00    +0.000 C 
ATOM      2  N   UNL     1       3.000   2.782  18.981  0.00  0.00    +0.000 N 
ATOM      3  C   UNL     1       4.346   3.120  19.174  0.00  0.00    +0.000 A 
ATOM      4  C   UNL     1       4.781   4.364  18.814  0.00  0.00    +0.000 A 
ATOM      5  C   UNL     1       3.787   5.331  18.273  0.00  0.00    +0.000 A 
ATOM      6  O   UNL     1       4.123   6.469  17.963  0.00  0.00    +0.000 OA
ATOM      7  N   UNL     1       2.487   4.921  18.150  0.00  0.00    +0.000 N 
ATOM      8  C   UNL     1       1.495   5.856  17.652  0.00  0.00    +0.000 C 
ATOM      9  C   UNL     1       2.044   3.663  18.471  0.00  0.00    +0.000 A 
ATOM     10  O   UNL     1       0.870   3.337  18.323  0.00  0.00    +0.000 OA
ENDROOT
BRANCH   3  11
ATOM     11  N   UNL     1       5.199   2.185  19.744  0.00  0.00    +0.000 N 
ATOM     12  H   UNL     1       5.602   1.496  19.126  0.00  0.00    +0.000 HD
ATOM     13  H   UNL     1       5.885   2.577  20.395  0.00  0.00    +0.000 HD
ENDBRANCH   3  11
BRANCH   4  14
ATOM     14  C   UNL     1       6.236   4.795  18.967  0.00  0.00    +0.000 C 
ATOM     15  O   UNL     1       6.697   5.094  20.075  0.00  0.00    +0.000 OA
BRANCH  14  16
ATOM     16  C   UNL     1       7.126   4.851  17.709  0.00  0.00    +0.000 C 
BRANCH  16  17
ATOM     17  O   UNL     1       6.589   4.177  16.572  0.00  0.00    +0.000 OA
BRANCH  17  18
ATOM     18  C   UNL     1       6.914   4.738  15.373  0.00  0.00    +0.000 C 
ATOM     19  O   UNL     1       7.567   5.761  15.229  0.00  0.00    +0.000 OA
BRANCH  18  20
ATOM     20  C   UNL     1       6.418   3.851  14.258  0.00  0.00    +0.000 C 
ATOM     21  C   UNL     1       5.000   4.207  13.832  0.00  0.00    +0.000 C 
ATOM     22  C   UNL     1       4.842   3.476  12.509  0.00  0.00    +0.000 C 
ATOM     23  C   UNL     1       6.242   3.433  11.895  0.00  0.00    +0.000 C 
ATOM     24  C   UNL     1       7.185   4.009  12.949  0.00  0.00    +0.000 C 
ENDBRANCH  18  20
ENDBRANCH  17  18
ENDBRANCH  16  17
ENDBRANCH  14  16
ENDBRANCH   4  14
TORSDOF 6
ENDMDL
MODEL 9
REMARK VINA RESULT:      -6.4      1.704      2.859
REMARK  Name = 
REMARK  8 active torsions:
REMARK  status: ('A' for Active; 'I' for Inactive)
REMARK    1  A    between atoms: C_1  and  N_2
REMARK    2  A    between atoms: C_3  and  N_4
REMARK    3  A    between atoms: C_5  and  C_6
REMARK    4  A    between atoms: C_6  and  C_8
REMARK    5  A    between atoms: C_8  and  O_9
REMARK    6  A    between atoms: O_9  and  C_10
REMARK    7  A    between atoms: C_10  and  C_12
REMARK    8  A    between atoms: N_19  and  C_20
REMARK                            x       y       z     vdW  Elec       q    Type
REMARK                         _______ _______ _______ _____ _____    ______ ____
ROOT
ATOM      1  C   UNL     1       3.307   2.689  19.215  0.00  0.00    +0.000 C 
ATOM      2  N   UNL     1       3.496   4.058  18.756  0.00  0.00    +0.000 N 
ATOM      3  C   UNL     1       4.382   4.410  17.728  0.00  0.00    +0.000 A 
ATOM      4  C   UNL     1       4.482   5.719  17.353  0.00  0.00    +0.000 A 
ATOM      5  C   UNL     1       3.675   6.731  18.090  0.00  0.00    +0.000 A 
ATOM      6  O   UNL     1       3.752   7.921  17.807  0.00  0.00    +0.000 OA
ATOM      7  N   UNL     1       2.861   6.296  19.099  0.00  0.00    +0.000 N 
ATOM      8  C   UNL     1       2.086   7.267  19.851  0.00  0.00    +0.000 C 
ATOM      9  C   UNL     1       2.721   4.980  19.462  0.00  0.00    +0.000 A 
ATOM     10  O   UNL     1       1.962   4.638  20.365  0.00  0.00    +0.000 OA
ENDROOT
BRANCH   3  11
ATOM     11  N   UNL     1       5.149   3.419  17.132  0.00  0.00    +0.000 N 
ATOM     12  H   UNL     1       5.389   2.622  17.703  0.00  0.00    +0.000 HD
ATOM     13  H   UNL     1       4.840   3.150  16.194  0.00  0.00    +0.000 HD
ENDBRANCH   3  11
BRANCH   4  14
ATOM     14  C   UNL     1       5.401   6.176  16.224  0.00  0.00    +0.000 C 
ATOM     15  O   UNL     1       4.964   6.840  15.278  0.00  0.00    +0.000 OA
BRANCH  14  16
ATOM     16  C   UNL     1       6.894   5.791  16.286  0.00  0.00    +0.000 C 
BRANCH  16  17
ATOM     17  O   UNL     1       7.237   4.627  15.536  0.00  0.00    +0.000 OA
BRANCH  17  18
ATOM     18  C   UNL     1       7.301   4.817  14.188  0.00  0.00    +0.000 C 
ATOM     19  O   UNL     1       7.971   5.673  13.630  0.00  0.00    +0.000 OA
BRANCH  18  20
ATOM     20  C   UNL     1       6.488   3.752  13.495  0.00  0.00    +0.000 C 
ATOM     21  C   UNL     1       5.105   4.253  13.104  0.00  0.00    +0.000 C 
ATOM     22  C   UNL     1       4.614   3.191  12.133  0.00  0.00    +0.000 C 
ATOM     23  C   UNL     1       5.870   2.652  11.446  0.00  0.00    +0.000 C 
ATOM     24  C   UNL     1       7.054   3.314  12.148  0.00  0.00    +0.000 C 
ENDBRANCH  18  20
ENDBRANCH  17  18
ENDBRANCH  16  17
ENDBRANCH  14  16
ENDBRANCH   4  14
TORSDOF 6
ENDMDL
