MODEL 1
REMARK VINA RESULT:      -7.1      0.000      0.000
REMARK  Name = 
REMARK  11 active torsions:
REMARK  status: ('A' for Active; 'I' for Inactive)
REMARK    1  A    between atoms: C_1  and  C_2
REMARK    2  A    between atoms: N_4  and  C_5
REMARK    3  A    between atoms: C_5  and  C_6
REMARK    4  A    between atoms: N_8  and  C_9
REMARK    5  A    between atoms: C_9  and  C_10
REMARK    6  A    between atoms: C_9  and  C_11
REMARK    7  A    between atoms: C_11  and  C_12
REMARK    8  A    between atoms: C_11  and  C_13
REMARK    9  A    between atoms: C_14  and  C_15
REMARK   10  A    between atoms: C_16  and  S_17
REMARK   11  A    between atoms: S_17  and  N_20
REMARK                            x       y       z     vdW  Elec       q    Type
REMARK                         _______ _______ _______ _____ _____    ______ ____
ROOT
ATOM      1  C   UNL     1       1.735   3.719  21.340  0.00  0.00    +0.000 C 
ATOM      2  C   UNL     1       1.927   5.003  20.624  0.00  0.00    +0.000 A 
ATOM      3  N   UNL     1       1.484   6.136  21.195  0.00  0.00    +0.000 NA
ATOM      4  N   UNL     1       1.886   7.120  20.363  0.00  0.00    +0.000 N 
ATOM      5  C   UNL     1       2.425   6.648  19.198  0.00  0.00    +0.000 A 
ATOM      6  C   UNL     1       2.856   7.491  18.052  0.00  0.00    +0.000 C 
ATOM      7  C   UNL     1       2.527   5.276  19.378  0.00  0.00    +0.000 A 
ENDROOT
BRANCH   7   8
ATOM      8  S   UNL     1       3.318   4.216  18.279  0.00  0.00    +0.000 S 
ATOM      9  O   UNL     1       3.605   3.046  19.090  0.00  0.00    +0.000 OA
ATOM     10  O   UNL     1       2.376   4.156  17.184  0.00  0.00    +0.000 OA
BRANCH   8  11
ATOM     11  N   UNL     1       4.809   4.854  17.689  0.00  0.00    +0.000 NA
ATOM     12  C   UNL     1       5.790   5.109  18.791  0.00  0.00    +0.000 C 
ATOM     13  C   UNL     1       7.150   5.551  18.267  0.00  0.00    +0.000 C 
ATOM     14  C   UNL     1       7.690   4.560  17.247  0.00  0.00    +0.000 C 
ATOM     15  C   UNL     1       6.710   4.457  16.092  0.00  0.00    +0.000 C 
ATOM     16  C   UNL     1       5.340   4.005  16.577  0.00  0.00    +0.000 C 
ENDBRANCH   8  11
ENDBRANCH   7   8
BRANCH   4  17
ATOM     17  C   UNL     1       1.739   8.502  20.785  0.00  0.00    +0.000 C 
BRANCH  17  18
ATOM     18  C   UNL     1       0.324   9.015  20.669  0.00  0.00    +0.000 C 
ATOM     19  O   UNL     1      -0.545   8.646  21.461  0.00  0.00    +0.000 OA
ATOM     20  N   UNL     1       0.049   9.841  19.599  0.00  0.00    +0.000 N 
ATOM     21  H   UNL     1       0.826  10.151  19.020  0.00  0.00    +0.000 HD
BRANCH  20  22
ATOM     22  C   UNL     1      -1.266  10.443  19.409  0.00  0.00    +0.000 C 
ATOM     23  C   UNL     1      -1.304  11.845  20.025  0.00  0.00    +0.000 C 
BRANCH  22  24
ATOM     24  C   UNL     1      -1.716  10.436  17.927  0.00  0.00    +0.000 C 
ATOM     25  C   UNL     1      -2.980   9.614  17.657  0.00  0.00    +0.000 C 
ATOM     26  C   UNL     1      -1.903  11.864  17.400  0.00  0.00    +0.000 C 
ENDBRANCH  22  24
ENDBRANCH  20  22
ENDBRANCH  17  18
ENDBRANCH   4  17
TORSDOF 6
ENDMDL
MODEL 2
REMARK VINA RESULT:      -7.0      2.934      7.951
REMARK  Name = 
REMARK  11 active torsions:
REMARK  status: ('A' for Active; 'I' for Inactive)
REMARK    1  A    between atoms: C_1  and  C_2
REMARK    2  A    between atoms: N_4  and  C_5
REMARK    3  A    between atoms: C_5  and  C_6
REMARK    4  A    between atoms: N_8  and  C_9
REMARK    5  A    between atoms: C_9  and  C_10
REMARK    6  A    between atoms: C_9  and  C_11
REMARK    7  A    between atoms: C_11  and  C_12
REMARK    8  A    between atoms: C_11  and  C_13
REMARK    9  A    between atoms: C_14  and  C_15
REMARK   10  A    between atoms: C_16  and  S_17
REMARK   11  A    between atoms: S_17  and  N_20
REMARK                            x       y       z     vdW  Elec       q    Type
REMARK                         _______ _______ _______ _____ _____    ______ ____
ROOT
ATOM      1  C   UNL     1       3.182   1.784  18.226  0.00  0.00    +0.000 C 
ATOM      2  C   UNL     1       3.959   3.011  17.927  0.00  0.00    +0.000 A 
ATOM      3  N   UNL     1       5.168   2.889  17.354  0.00  0.00    +0.000 NA
ATOM      4  N   UNL     1       5.569   4.158  17.125  0.00  0.00    +0.000 N 
ATOM      5  C   UNL     1       4.736   5.090  17.679  0.00  0.00    +0.000 A 
ATOM      6  C   UNL     1       4.976   6.556  17.682  0.00  0.00    +0.000 C 
ATOM      7  C   UNL     1       3.645   4.369  18.143  0.00  0.00    +0.000 A 
ENDROOT
BRANCH   7   8
ATOM      8  S   UNL     1       2.211   5.084  18.765  0.00  0.00    +0.000 S 
ATOM      9  O   UNL     1       1.243   4.871  17.704  0.00  0.00    +0.000 OA
ATOM     10  O   UNL     1       2.075   4.426  20.046  0.00  0.00    +0.000 OA
BRANCH   8  11
ATOM     11  N   UNL     1       2.370   6.781  19.032  0.00  0.00    +0.000 NA
ATOM     12  C   UNL     1       1.917   7.583  17.852  0.00  0.00    +0.000 C 
ATOM     13  C   UNL     1       1.935   9.081  18.126  0.00  0.00    +0.000 C 
ATOM     14  C   UNL     1       1.137   9.416  19.377  0.00  0.00    +0.000 C 
ATOM     15  C   UNL     1       1.738   8.675  20.559  0.00  0.00    +0.000 C 
ATOM     16  C   UNL     1       1.726   7.172  20.325  0.00  0.00    +0.000 C 
ENDBRANCH   8  11
ENDBRANCH   7   8
BRANCH   4  17
ATOM     17  C   UNL     1       6.762   4.385  16.329  0.00  0.00    +0.000 C 
BRANCH  17  18
ATOM     18  C   UNL     1       6.465   4.696  14.881  0.00  0.00    +0.000 C 
ATOM     19  O   UNL     1       6.337   5.862  14.503  0.00  0.00    +0.000 OA
ATOM     20  N   UNL     1       6.269   3.619  14.042  0.00  0.00    +0.000 N 
ATOM     21  H   UNL     1       6.448   2.687  14.408  0.00  0.00    +0.000 HD
BRANCH  20  22
ATOM     22  C   UNL     1       6.029   3.790  12.614  0.00  0.00    +0.000 C 
ATOM     23  C   UNL     1       7.355   3.970  11.867  0.00  0.00    +0.000 C 
BRANCH  22  24
ATOM     24  C   UNL     1       5.165   2.652  12.014  0.00  0.00    +0.000 C 
ATOM     25  C   UNL     1       4.037   3.136  11.098  0.00  0.00    +0.000 C 
ATOM     26  C   UNL     1       6.034   1.630  11.272  0.00  0.00    +0.000 C 
ENDBRANCH  22  24
ENDBRANCH  20  22
ENDBRANCH  17  18
ENDBRANCH   4  17
TORSDOF 6
ENDMDL
MODEL 3
REMARK VINA RESULT:      -6.8      0.593      1.151
REMARK  Name = 
REMARK  11 active torsions:
REMARK  status: ('A' for Active; 'I' for Inactive)
REMARK    1  A    between atoms: C_1  and  C_2
REMARK    2  A    between atoms: N_4  and  C_5
REMARK    3  A    between atoms: C_5  and  C_6
REMARK    4  A    between atoms: N_8  and  C_9
REMARK    5  A    between atoms: C_9  and  C_10
REMARK    6  A    between atoms: C_9  and  C_11
REMARK    7  A    between atoms: C_11  and  C_12
REMARK    8  A    between atoms: C_11  and  C_13
REMARK    9  A    between atoms: C_14  and  C_15
REMARK   10  A    between atoms: C_16  and  S_17
REMARK   11  A    between atoms: S_17  and  N_20
REMARK                            x       y       z     vdW  Elec       q    Type
REMARK                         _______ _______ _______ _____ _____    ______ ____
ROOT
ATOM      1  C   UNL     1       1.930   3.767  21.312  0.00  0.00    +0.000 C 
ATOM      2  C   UNL     1       2.127   5.017  20.538  0.00  0.00    +0.000 A 
ATOM      3  N   UNL     1       1.653   6.170  21.040  0.00  0.00    +0.000 NA
ATOM      4  N   UNL     1       2.067   7.117  20.171  0.00  0.00    +0.000 N 
ATOM      5  C   UNL     1       2.646   6.596  19.047  0.00  0.00    +0.000 A 
ATOM      6  C   UNL     1       3.099   7.387  17.874  0.00  0.00    +0.000 C 
ATOM      7  C   UNL     1       2.760   5.236  19.298  0.00  0.00    +0.000 A 
ENDROOT
BRANCH   7   8
ATOM      8  S   UNL     1       3.596   4.134  18.277  0.00  0.00    +0.000 S 
ATOM      9  O   UNL     1       3.510   2.877  18.999  0.00  0.00    +0.000 OA
ATOM     10  O   UNL     1       2.920   4.321  17.012  0.00  0.00    +0.000 OA
BRANCH   8  11
ATOM     11  N   UNL     1       5.261   4.540  18.076  0.00  0.00    +0.000 NA
ATOM     12  C   UNL     1       5.512   5.277  16.797  0.00  0.00    +0.000 C 
ATOM     13  C   UNL     1       6.955   5.750  16.673  0.00  0.00    +0.000 C 
ATOM     14  C   UNL     1       7.368   6.568  17.888  0.00  0.00    +0.000 C 
ATOM     15  C   UNL     1       7.219   5.711  19.133  0.00  0.00    +0.000 C 
ATOM     16  C   UNL     1       5.785   5.230  19.296  0.00  0.00    +0.000 C 
ENDBRANCH   8  11
ENDBRANCH   7   8
BRANCH   4  17
ATOM     17  C   UNL     1       1.891   8.516  20.520  0.00  0.00    +0.000 C 
BRANCH  17  18
ATOM     18  C   UNL     1       0.450   8.966  20.476  0.00  0.00    +0.000 C 
ATOM     19  O   UNL     1      -0.370   8.527  21.284  0.00  0.00    +0.000 OA
ATOM     20  N   UNL     1       0.096   9.817  19.450  0.00  0.00    +0.000 N 
ATOM     21  H   UNL     1       0.835  10.185  18.855  0.00  0.00    +0.000 HD
BRANCH  20  22
ATOM     22  C   UNL     1      -1.251  10.363  19.332  0.00  0.00    +0.000 C 
ATOM     23  C   UNL     1      -1.320  11.755  19.968  0.00  0.00    +0.000 C 
BRANCH  22  24
ATOM     24  C   UNL     1      -1.772  10.354  17.873  0.00  0.00    +0.000 C 
ATOM     25  C   UNL     1      -3.082   9.585  17.678  0.00  0.00    +0.000 C 
ATOM     26  C   UNL     1      -1.921  11.780  17.331  0.00  0.00    +0.000 C 
ENDBRANCH  22  24
ENDBRANCH  20  22
ENDBRANCH  17  18
ENDBRANCH   4  17
TORSDOF 6
ENDMDL
MODEL 4
REMARK VINA RESULT:      -6.8      1.082      2.351
REMARK  Name = 
REMARK  11 active torsions:
REMARK  status: ('A' for Active; 'I' for Inactive)
REMARK    1  A    between atoms: C_1  and  C_2
REMARK    2  A    between atoms: N_4  and  C_5
REMARK    3  A    between atoms: C_5  and  C_6
REMARK    4  A    between atoms: N_8  and  C_9
REMARK    5  A    between atoms: C_9  and  C_10
REMARK    6  A    between atoms: C_9  and  C_11
REMARK    7  A    between atoms: C_11  and  C_12
REMARK    8  A    between atoms: C_11  and  C_13
REMARK    9  A    between atoms: C_14  and  C_15
REMARK   10  A    between atoms: C_16  and  S_17
REMARK   11  A    between atoms: S_17  and  N_20
REMARK                            x       y       z     vdW  Elec       q    Type
REMARK                         _______ _______ _______ _____ _____    ______ ____
ROOT
ATOM      1  C   UNL     1       3.557   7.179  17.226  0.00  0.00    +0.000 C 
ATOM      2  C   UNL     1       2.985   6.663  18.493  0.00  0.00    +0.000 A 
ATOM      3  N   UNL     1       2.450   7.535  19.365  0.00  0.00    +0.000 NA
ATOM      4  N   UNL     1       1.939   6.765  20.349  0.00  0.00    +0.000 N 
ATOM      5  C   UNL     1       2.270   5.444  20.222  0.00  0.00    +0.000 A 
ATOM      6  C   UNL     1       1.941   4.381  21.208  0.00  0.00    +0.000 C 
ATOM      7  C   UNL     1       2.889   5.345  18.984  0.00  0.00    +0.000 A 
ENDROOT
BRANCH   7   8
ATOM      8  S   UNL     1       3.338   3.858  18.248  0.00  0.00    +0.000 S 
ATOM      9  O   UNL     1       3.277   2.909  19.345  0.00  0.00    +0.000 OA
ATOM     10  O   UNL     1       2.416   3.779  17.137  0.00  0.00    +0.000 OA
BRANCH   8  11
ATOM     11  N   UNL     1       4.948   3.878  17.627  0.00  0.00    +0.000 NA
ATOM     12  C   UNL     1       4.991   4.262  16.180  0.00  0.00    +0.000 C 
ATOM     13  C   UNL     1       6.415   4.406  15.659  0.00  0.00    +0.000 C 
ATOM     14  C   UNL     1       7.217   5.367  16.523  0.00  0.00    +0.000 C 
ATOM     15  C   UNL     1       7.248   4.842  17.948  0.00  0.00    +0.000 C 
ATOM     16  C   UNL     1       5.840   4.696  18.507  0.00  0.00    +0.000 C 
ENDBRANCH   8  11
ENDBRANCH   7   8
BRANCH   4  17
ATOM     17  C   UNL     1       1.108   7.385  21.367  0.00  0.00    +0.000 C 
BRANCH  17  18
ATOM     18  C   UNL     1       1.009   8.884  21.225  0.00  0.00    +0.000 C 
ATOM     19  O   UNL     1       1.467   9.629  22.093  0.00  0.00    +0.000 OA
ATOM     20  N   UNL     1       0.320   9.361  20.129  0.00  0.00    +0.000 N 
ATOM     21  H   UNL     1       0.020   8.692  19.423  0.00  0.00    +0.000 HD
BRANCH  20  22
ATOM     22  C   UNL     1       0.202  10.788  19.854  0.00  0.00    +0.000 C 
ATOM     23  C   UNL     1       1.236  11.216  18.806  0.00  0.00    +0.000 C 
BRANCH  22  24
ATOM     24  C   UNL     1      -1.239  11.204  19.465  0.00  0.00    +0.000 C 
ATOM     25  C   UNL     1      -1.561  12.677  19.731  0.00  0.00    +0.000 C 
ATOM     26  C   UNL     1      -1.536  10.863  18.001  0.00  0.00    +0.000 C 
ENDBRANCH  22  24
ENDBRANCH  20  22
ENDBRANCH  17  18
ENDBRANCH   4  17
TORSDOF 6
ENDMDL
MODEL 5
REMARK VINA RESULT:      -6.7      1.791      2.721
REMARK  Name = 
REMARK  11 active torsions:
REMARK  status: ('A' for Active; 'I' for Inactive)
REMARK    1  A    between atoms: C_1  and  C_2
REMARK    2  A    between atoms: N_4  and  C_5
REMARK    3  A    between atoms: C_5  and  C_6
REMARK    4  A    between atoms: N_8  and  C_9
REMARK    5  A    between atoms: C_9  and  C_10
REMARK    6  A    between atoms: C_9  and  C_11
REMARK    7  A    between atoms: C_11  and  C_12
REMARK    8  A    between atoms: C_11  and  C_13
REMARK    9  A    between atoms: C_14  and  C_15
REMARK   10  A    between atoms: C_16  and  S_17
REMARK   11  A    between atoms: S_17  and  N_20
REMARK                            x       y       z     vdW  Elec       q    Type
REMARK                         _______ _______ _______ _____ _____    ______ ____
ROOT
ATOM      1  C   UNL     1       3.106   8.078  17.406  0.00  0.00    +0.000 C 
ATOM      2  C   UNL     1       2.636   7.386  18.631  0.00  0.00    +0.000 A 
ATOM      3  N   UNL     1       1.990   8.099  19.569  0.00  0.00    +0.000 NA
ATOM      4  N   UNL     1       1.614   7.189  20.492  0.00  0.00    +0.000 N 
ATOM      5  C   UNL     1       2.137   5.946  20.262  0.00  0.00    +0.000 A 
ATOM      6  C   UNL     1       1.984   4.774  21.163  0.00  0.00    +0.000 C 
ATOM      7  C   UNL     1       2.745   6.036  19.018  0.00  0.00    +0.000 A 
ENDROOT
BRANCH   7   8
ATOM      8  S   UNL     1       3.401   4.693  18.167  0.00  0.00    +0.000 S 
ATOM      9  O   UNL     1       4.043   3.915  19.212  0.00  0.00    +0.000 OA
ATOM     10  O   UNL     1       2.245   4.189  17.460  0.00  0.00    +0.000 OA
BRANCH   8  11
ATOM     11  N   UNL     1       4.596   5.153  17.011  0.00  0.00    +0.000 NA
ATOM     12  C   UNL     1       5.855   5.636  17.662  0.00  0.00    +0.000 C 
ATOM     13  C   UNL     1       6.958   5.923  16.652  0.00  0.00    +0.000 C 
ATOM     14  C   UNL     1       7.210   4.714  15.763  0.00  0.00    +0.000 C 
ATOM     15  C   UNL     1       5.927   4.366  15.029  0.00  0.00    +0.000 C 
ATOM     16  C   UNL     1       4.804   4.062  16.008  0.00  0.00    +0.000 C 
ENDBRANCH   8  11
ENDBRANCH   7   8
BRANCH   4  17
ATOM     17  C   UNL     1       0.715   7.598  21.557  0.00  0.00    +0.000 C 
BRANCH  17  18
ATOM     18  C   UNL     1       0.843   9.058  21.919  0.00  0.00    +0.000 C 
ATOM     19  O   UNL     1       1.690   9.431  22.733  0.00  0.00    +0.000 OA
ATOM     20  N   UNL     1      -0.077   9.920  21.360  0.00  0.00    +0.000 N 
ATOM     21  H   UNL     1      -0.710   9.554  20.653  0.00  0.00    +0.000 HD
BRANCH  20  22
ATOM     22  C   UNL     1      -0.023  11.359  21.590  0.00  0.00    +0.000 C 
ATOM     23  C   UNL     1       0.571  12.073  20.371  0.00  0.00    +0.000 C 
BRANCH  22  24
ATOM     24  C   UNL     1      -1.394  11.947  22.009  0.00  0.00    +0.000 C 
ATOM     25  C   UNL     1      -1.309  13.040  23.078  0.00  0.00    +0.000 C 
ATOM     26  C   UNL     1      -2.165  12.471  20.792  0.00  0.00    +0.000 C 
ENDBRANCH  22  24
ENDBRANCH  20  22
ENDBRANCH  17  18
ENDBRANCH   4  17
TORSDOF 6
ENDMDL
MODEL 6
REMARK VINA RESULT:      -6.6      1.133      2.167
REMARK  Name = 
REMARK  11 active torsions:
REMARK  status: ('A' for Active; 'I' for Inactive)
REMARK    1  A    between atoms: C_1  and  C_2
REMARK    2  A    between atoms: N_4  and  C_5
REMARK    3  A    between atoms: C_5  and  C_6
REMARK    4  A    between atoms: N_8  and  C_9
REMARK    5  A    between atoms: C_9  and  C_10
REMARK    6  A    between atoms: C_9  and  C_11
REMARK    7  A    between atoms: C_11  and  C_12
REMARK    8  A    between atoms: C_11  and  C_13
REMARK    9  A    between atoms: C_14  and  C_15
REMARK   10  A    between atoms: C_16  and  S_17
REMARK   11  A    between atoms: S_17  and  N_20
REMARK                            x       y       z     vdW  Elec       q    Type
REMARK                         _______ _______ _______ _____ _____    ______ ____
ROOT
ATOM      1  C   UNL     1       3.298   8.023  17.369  0.00  0.00    +0.000 C 
ATOM      2  C   UNL     1       2.752   7.369  18.582  0.00  0.00    +0.000 A 
ATOM      3  N   UNL     1       2.081   8.117  19.474  0.00  0.00    +0.000 NA
ATOM      4  N   UNL     1       1.637   7.235  20.395  0.00  0.00    +0.000 N 
ATOM      5  C   UNL     1       2.138   5.975  20.214  0.00  0.00    +0.000 A 
ATOM      6  C   UNL     1       1.911   4.826  21.129  0.00  0.00    +0.000 C 
ATOM      7  C   UNL     1       2.807   6.024  19.000  0.00  0.00    +0.000 A 
ENDROOT
BRANCH   7   8
ATOM      8  S   UNL     1       3.467   4.648  18.208  0.00  0.00    +0.000 S 
ATOM      9  O   UNL     1       4.139   3.935  19.279  0.00  0.00    +0.000 OA
ATOM     10  O   UNL     1       2.306   4.092  17.549  0.00  0.00    +0.000 OA
BRANCH   8  11
ATOM     11  N   UNL     1       4.635   5.063  17.007  0.00  0.00    +0.000 NA
ATOM     12  C   UNL     1       5.922   5.534  17.610  0.00  0.00    +0.000 C 
ATOM     13  C   UNL     1       6.999   5.781  16.561  0.00  0.00    +0.000 C 
ATOM     14  C   UNL     1       7.200   4.552  15.688  0.00  0.00    +0.000 C 
ATOM     15  C   UNL     1       5.889   4.215  15.000  0.00  0.00    +0.000 C 
ATOM     16  C   UNL     1       4.790   3.951  16.019  0.00  0.00    +0.000 C 
ENDBRANCH   8  11
ENDBRANCH   7   8
BRANCH   4  17
ATOM     17  C   UNL     1       0.699   7.688  21.407  0.00  0.00    +0.000 C 
BRANCH  17  18
ATOM     18  C   UNL     1       0.570   9.191  21.472  0.00  0.00    +0.000 C 
ATOM     19  O   UNL     1       0.965   9.814  22.460  0.00  0.00    +0.000 OA
ATOM     20  N   UNL     1      -0.074   9.806  20.419  0.00  0.00    +0.000 N 
ATOM     21  H   UNL     1      -0.321   9.239  19.611  0.00  0.00    +0.000 HD
BRANCH  20  22
ATOM     22  C   UNL     1      -0.212  11.256  20.341  0.00  0.00    +0.000 C 
ATOM     23  C   UNL     1       1.139  11.905  20.024  0.00  0.00    +0.000 C 
BRANCH  22  24
ATOM     24  C   UNL     1      -1.324  11.696  19.355  0.00  0.00    +0.000 C 
ATOM     25  C   UNL     1      -1.863  10.567  18.471  0.00  0.00    +0.000 C 
ATOM     26  C   UNL     1      -2.482  12.374  20.096  0.00  0.00    +0.000 C 
ENDBRANCH  22  24
ENDBRANCH  20  22
ENDBRANCH  17  18
ENDBRANCH   4  17
TORSDOF 6
ENDMDL
MODEL 7
REMARK VINA RESULT:      -6.5      2.640      4.631
REMARK  Name = 
REMARK  11 active torsions:
REMARK  status: ('A' for Active; 'I' for Inactive)
REMARK    1  A    between atoms: C_1  and  C_2
REMARK    2  A    between atoms: N_4  and  C_5
REMARK    3  A    between atoms: C_5  and  C_6
REMARK    4  A    between atoms: N_8  and  C_9
REMARK    5  A    between atoms: C_9  and  C_10
REMARK    6  A    between atoms: C_9  and  C_11
REMARK    7  A    between atoms: C_11  and  C_12
REMARK    8  A    between atoms: C_11  and  C_13
REMARK    9  A    between atoms: C_14  and  C_15
REMARK   10  A    between atoms: C_16  and  S_17
REMARK   11  A    between atoms: S_17  and  N_20
REMARK                            x       y       z     vdW  Elec       q    Type
REMARK                         _______ _______ _______ _____ _____    ______ ____
ROOT
ATOM      1  C   UNL     1       7.850   6.059  19.112  0.00  0.00    +0.000 C 
ATOM      2  C   UNL     1       6.525   5.474  18.794  0.00  0.00    +0.000 A 
ATOM      3  N   UNL     1       5.797   4.940  19.790  0.00  0.00    +0.000 NA
ATOM      4  N   UNL     1       4.630   4.589  19.210  0.00  0.00    +0.000 N 
ATOM      5  C   UNL     1       4.645   4.726  17.849  0.00  0.00    +0.000 A 
ATOM      6  C   UNL     1       3.546   4.318  16.937  0.00  0.00    +0.000 C 
ATOM      7  C   UNL     1       5.842   5.367  17.565  0.00  0.00    +0.000 A 
ENDROOT
BRANCH   7   8
ATOM      8  S   UNL     1       6.278   5.949  16.007  0.00  0.00    +0.000 S 
ATOM      9  O   UNL     1       5.158   6.800  15.643  0.00  0.00    +0.000 OA
ATOM     10  O   UNL     1       7.592   6.502  16.246  0.00  0.00    +0.000 OA
BRANCH   8  11
ATOM     11  N   UNL     1       6.415   4.690  14.836  0.00  0.00    +0.000 NA
ATOM     12  C   UNL     1       5.091   4.329  14.237  0.00  0.00    +0.000 C 
ATOM     13  C   UNL     1       5.221   3.309  13.113  0.00  0.00    +0.000 C 
ATOM     14  C   UNL     1       6.209   3.783  12.058  0.00  0.00    +0.000 C 
ATOM     15  C   UNL     1       7.564   3.996  12.710  0.00  0.00    +0.000 C 
ATOM     16  C   UNL     1       7.475   5.019  13.832  0.00  0.00    +0.000 C 
ENDBRANCH   8  11
ENDBRANCH   7   8
BRANCH   4  17
ATOM     17  C   UNL     1       3.529   4.156  20.053  0.00  0.00    +0.000 C 
BRANCH  17  18
ATOM     18  C   UNL     1       2.405   5.160  20.131  0.00  0.00    +0.000 C 
ATOM     19  O   UNL     1       1.251   4.796  20.367  0.00  0.00    +0.000 OA
ATOM     20  N   UNL     1       2.723   6.473  19.849  0.00  0.00    +0.000 N 
ATOM     21  H   UNL     1       3.704   6.711  19.720  0.00  0.00    +0.000 HD
BRANCH  20  22
ATOM     22  C   UNL     1       1.737   7.542  19.943  0.00  0.00    +0.000 C 
ATOM     23  C   UNL     1       1.611   8.026  21.392  0.00  0.00    +0.000 C 
BRANCH  22  24
ATOM     24  C   UNL     1       2.019   8.702  18.956  0.00  0.00    +0.000 C 
ATOM     25  C   UNL     1       2.608   8.256  17.615  0.00  0.00    +0.000 C 
ATOM     26  C   UNL     1       0.760   9.543  18.717  0.00  0.00    +0.000 C 
ENDBRANCH  22  24
ENDBRANCH  20  22
ENDBRANCH  17  18
ENDBRANCH   4  17
TORSDOF 6
ENDMDL
MODEL 8
REMARK VINA RESULT:      -6.4      4.095      7.389
REMARK  Name = 
REMARK  11 active torsions:
REMARK  status: ('A' for Active; 'I' for Inactive)
REMARK    1  A    between atoms: C_1  and  C_2
REMARK    2  A    between atoms: N_4  and  C_5
REMARK    3  A    between atoms: C_5  and  C_6
REMARK    4  A    between atoms: N_8  and  C_9
REMARK    5  A    between atoms: C_9  and  C_10
REMARK    6  A    between atoms: C_9  and  C_11
REMARK    7  A    between atoms: C_11  and  C_12
REMARK    8  A    between atoms: C_11  and  C_13
REMARK    9  A    between atoms: C_14  and  C_15
REMARK   10  A    between atoms: C_16  and  S_17
REMARK   11  A    between atoms: S_17  and  N_20
REMARK                            x       y       z     vdW  Elec       q    Type
REMARK                         _______ _______ _______ _____ _____    ______ ____
ROOT
ATOM      1  C   UNL     1       3.371   7.082  17.873  0.00  0.00    +0.000 C 
ATOM      2  C   UNL     1       4.772   6.611  17.753  0.00  0.00    +0.000 A 
ATOM      3  N   UNL     1       5.740   7.513  17.518  0.00  0.00    +0.000 NA
ATOM      4  N   UNL     1       6.888   6.802  17.560  0.00  0.00    +0.000 N 
ATOM      5  C   UNL     1       6.678   5.454  17.648  0.00  0.00    +0.000 A 
ATOM      6  C   UNL     1       7.744   4.419  17.604  0.00  0.00    +0.000 C 
ATOM      7  C   UNL     1       5.313   5.313  17.847  0.00  0.00    +0.000 A 
ENDROOT
BRANCH   7   8
ATOM      8  S   UNL     1       4.540   3.820  18.210  0.00  0.00    +0.000 S 
ATOM      9  O   UNL     1       4.551   3.120  16.937  0.00  0.00    +0.000 OA
ATOM     10  O   UNL     1       5.315   3.343  19.334  0.00  0.00    +0.000 OA
BRANCH   8  11
ATOM     11  N   UNL     1       2.903   4.019  18.715  0.00  0.00    +0.000 NA
ATOM     12  C   UNL     1       2.060   2.828  18.378  0.00  0.00    +0.000 C 
ATOM     13  C   UNL     1       0.645   2.943  18.933  0.00  0.00    +0.000 C 
ATOM     14  C   UNL     1       0.667   3.215  20.430  0.00  0.00    +0.000 C 
ATOM     15  C   UNL     1       1.420   4.509  20.685  0.00  0.00    +0.000 C 
ATOM     16  C   UNL     1       2.843   4.428  20.153  0.00  0.00    +0.000 C 
ENDBRANCH   8  11
ENDBRANCH   7   8
BRANCH   4  17
ATOM     17  C   UNL     1       8.155   7.512  17.539  0.00  0.00    +0.000 C 
BRANCH  17  18
ATOM     18  C   UNL     1       8.027   8.974  17.895  0.00  0.00    +0.000 C 
ATOM     19  O   UNL     1       7.136   9.666  17.399  0.00  0.00    +0.000 OA
ATOM     20  N   UNL     1       8.993   9.497  18.729  0.00  0.00    +0.000 N 
ATOM     21  H   UNL     1       9.663   8.856  19.149  0.00  0.00    +0.000 HD
BRANCH  20  22
ATOM     22  C   UNL     1       8.948  10.880  19.188  0.00  0.00    +0.000 C 
ATOM     23  C   UNL     1       9.504  10.989  20.612  0.00  0.00    +0.000 C 
BRANCH  22  24
ATOM     24  C   UNL     1       9.644  11.856  18.207  0.00  0.00    +0.000 C 
ATOM     25  C   UNL     1       9.126  13.296  18.281  0.00  0.00    +0.000 C 
ATOM     26  C   UNL     1      11.164  11.841  18.397  0.00  0.00    +0.000 C 
ENDBRANCH  22  24
ENDBRANCH  20  22
ENDBRANCH  17  18
ENDBRANCH   4  17
TORSDOF 6
ENDMDL
MODEL 9
REMARK VINA RESULT:      -6.4      0.860      1.505
REMARK  Name = 
REMARK  11 active torsions:
REMARK  status: ('A' for Active; 'I' for Inactive)
REMARK    1  A    between atoms: C_1  and  C_2
REMARK    2  A    between atoms: N_4  and  C_5
REMARK    3  A    between atoms: C_5  and  C_6
REMARK    4  A    between atoms: N_8  and  C_9
REMARK    5  A    between atoms: C_9  and  C_10
REMARK    6  A    between atoms: C_9  and  C_11
REMARK    7  A    between atoms: C_11  and  C_12
REMARK    8  A    between atoms: C_11  and  C_13
REMARK    9  A    between atoms: C_14  and  C_15
REMARK   10  A    between atoms: C_16  and  S_17
REMARK   11  A    between atoms: S_17  and  N_20
REMARK                            x       y       z     vdW  Elec       q    Type
REMARK                         _______ _______ _______ _____ _____    ______ ____
ROOT
ATOM      1  C   UNL     1       1.168   3.546  20.783  0.00  0.00    +0.000 C 
ATOM      2  C   UNL     1       1.638   4.837  20.227  0.00  0.00    +0.000 A 
ATOM      3  N   UNL     1       1.274   5.977  20.840  0.00  0.00    +0.000 NA
ATOM      4  N   UNL     1       1.926   6.950  20.169  0.00  0.00    +0.000 N 
ATOM      5  C   UNL     1       2.561   6.493  19.047  0.00  0.00    +0.000 A 
ATOM      6  C   UNL     1       3.267   7.347  18.057  0.00  0.00    +0.000 C 
ATOM      7  C   UNL     1       2.447   5.111  19.106  0.00  0.00    +0.000 A 
ENDROOT
BRANCH   7   8
ATOM      8  S   UNL     1       3.239   4.032  18.027  0.00  0.00    +0.000 S 
ATOM      9  O   UNL     1       3.727   2.981  18.903  0.00  0.00    +0.000 OA
ATOM     10  O   UNL     1       2.208   3.772  17.047  0.00  0.00    +0.000 OA
BRANCH   8  11
ATOM     11  N   UNL     1       4.588   4.753  17.228  0.00  0.00    +0.000 NA
ATOM     12  C   UNL     1       5.849   4.628  18.025  0.00  0.00    +0.000 C 
ATOM     13  C   UNL     1       7.066   5.148  17.272  0.00  0.00    +0.000 C 
ATOM     14  C   UNL     1       7.190   4.482  15.910  0.00  0.00    +0.000 C 
ATOM     15  C   UNL     1       5.934   4.768  15.105  0.00  0.00    +0.000 C 
ATOM     16  C   UNL     1       4.696   4.251  15.823  0.00  0.00    +0.000 C 
ENDBRANCH   8  11
ENDBRANCH   7   8
BRANCH   4  17
ATOM     17  C   UNL     1       1.909   8.302  20.699  0.00  0.00    +0.000 C 
BRANCH  17  18
ATOM     18  C   UNL     1       0.723   9.112  20.233  0.00  0.00    +0.000 C 
ATOM     19  O   UNL     1      -0.372   8.998  20.787  0.00  0.00    +0.000 OA
ATOM     20  N   UNL     1       0.913   9.911  19.125  0.00  0.00    +0.000 N 
ATOM     21  H   UNL     1       1.856  10.002  18.755  0.00  0.00    +0.000 HD
BRANCH  20  22
ATOM     22  C   UNL     1      -0.141  10.779  18.612  0.00  0.00    +0.000 C 
ATOM     23  C   UNL     1      -1.197   9.955  17.869  0.00  0.00    +0.000 C 
BRANCH  22  24
ATOM     24  C   UNL     1      -0.759  11.678  19.712  0.00  0.00    +0.000 C 
ATOM     25  C   UNL     1       0.019  12.970  19.979  0.00  0.00    +0.000 C 
ATOM     26  C   UNL     1      -2.222  12.009  19.397  0.00  0.00    +0.000 C 
ENDBRANCH  22  24
ENDBRANCH  20  22
ENDBRANCH  17  18
ENDBRANCH   4  17
TORSDOF 6
ENDMDL
