MODEL 1
REMARK VINA RESULT:      -8.9      0.000      0.000
REMARK  Name = 
REMARK  7 active torsions:
REMARK  status: ('A' for Active; 'I' for Inactive)
REMARK    1  A    between atoms: C_2  and  C_3
REMARK    2  A    between atoms: C_3  and  N_4
REMARK    3  A    between atoms: C_5  and  C_6
REMARK    4  A    between atoms: N_8  and  C_9
REMARK    5  A    between atoms: C_12  and  N_13
REMARK    6  A    between atoms: N_16  and  C_17
REMARK    7  A    between atoms: C_25  and  N_26
REMARK                            x       y       z     vdW  Elec       q    Type
REMARK                         _______ _______ _______ _____ _____    ______ ____
ROOT
ATOM      1  C   UNL     1       2.158   7.299  19.460  0.00  0.00    +0.000 C 
ATOM      2  O   UNL     1       1.780   6.772  20.500  0.00  0.00    +0.000 OA
ATOM      3  N   UNL     1       1.748   8.551  19.020  0.00  0.00    +0.000 N 
ATOM      4  H   UNL     1       2.057   8.851  18.110  0.00  0.00    +0.000 HD
ENDROOT
BRANCH   1   6
ATOM      5  N   UNL     1       3.224   5.234  18.452  0.00  0.00    +0.000 N 
ATOM      6  C   UNL     1       3.071   6.614  18.554  0.00  0.00    +0.000 A 
ATOM      7  C   UNL     1       3.919   7.171  17.608  0.00  0.00    +0.000 A 
ATOM      8  C   UNL     1       4.567   6.134  16.903  0.00  0.00    +0.000 A 
ATOM      9  C   UNL     1       5.492   6.134  15.842  0.00  0.00    +0.000 A 
ATOM     10  C   UNL     1       5.930   4.907  15.335  0.00  0.00    +0.000 A 
ATOM     11  C   UNL     1       5.466   3.697  15.860  0.00  0.00    +0.000 A 
ATOM     12  C   UNL     1       4.553   3.690  16.921  0.00  0.00    +0.000 A 
ATOM     13  C   UNL     1       4.114   4.926  17.429  0.00  0.00    +0.000 A 
BRANCH  10  14
ATOM     14  N   UNL     1       6.891   4.899  14.225  0.00  0.00    +0.000 N 
ATOM     15  O   UNL     1       6.633   4.183  13.244  0.00  0.00    +0.000 OA
ATOM     16  O   UNL     1       7.898   5.609  14.329  0.00  0.00    +0.000 OA
ENDBRANCH  10  14
BRANCH   5  17
ATOM     17  C   UNL     1       2.548   4.219  19.268  0.00  0.00    +0.000 C 
BRANCH  17  19
ATOM     18  C   UNL     1       0.773   2.470  18.919  0.00  0.00    +0.000 C 
ATOM     19  C   UNL     1       1.336   3.641  18.590  0.00  0.00    +0.000 C 
ENDBRANCH  17  19
ENDBRANCH   5  17
ENDBRANCH   1   6
BRANCH   3  20
ATOM     20  C   UNL     1       0.899   9.442  19.703  0.00  0.00    +0.000 A 
ATOM     21  C   UNL     1       1.024   9.709  21.058  0.00  0.00    +0.000 A 
ATOM     22  C   UNL     1       0.156  10.595  21.697  0.00  0.00    +0.000 A 
ATOM     23  C   UNL     1      -0.869  11.263  21.017  0.00  0.00    +0.000 A 
ATOM     24  C   UNL     1      -0.986  10.976  19.646  0.00  0.00    +0.000 A 
ATOM     25  C   UNL     1      -0.107  10.095  18.990  0.00  0.00    +0.000 A 
BRANCH  23  26
ATOM     26  N   UNL     1      -1.774  12.110  21.674  0.00  0.00    +0.000 N 
ATOM     27  C   UNL     1      -2.105  11.796  23.085  0.00  0.00    +0.000 C 
ATOM     28  C   UNL     1      -3.319  12.612  23.575  0.00  0.00    +0.000 C 
ATOM     29  N   UNL     1      -3.142  14.067  23.396  0.00  0.00    +0.000 NA
ATOM     30  C   UNL     1      -4.352  14.773  23.810  0.00  0.00    +0.000 C 
ATOM     31  C   UNL     1      -2.839  14.339  21.974  0.00  0.00    +0.000 C 
ATOM     32  C   UNL     1      -1.600  13.566  21.465  0.00  0.00    +0.000 C 
ENDBRANCH  23  26
ENDBRANCH   3  20
TORSDOF 6
ENDMDL
MODEL 2
REMARK VINA RESULT:      -8.9      0.571      1.101
REMARK  Name = 
REMARK  7 active torsions:
REMARK  status: ('A' for Active; 'I' for Inactive)
REMARK    1  A    between atoms: C_2  and  C_3
REMARK    2  A    between atoms: C_3  and  N_4
REMARK    3  A    between atoms: C_5  and  C_6
REMARK    4  A    between atoms: N_8  and  C_9
REMARK    5  A    between atoms: C_12  and  N_13
REMARK    6  A    between atoms: N_16  and  C_17
REMARK    7  A    between atoms: C_25  and  N_26
REMARK                            x       y       z     vdW  Elec       q    Type
REMARK                         _______ _______ _______ _____ _____    ______ ____
ROOT
ATOM      1  C   UNL     1       2.033   7.510  19.578  0.00  0.00    +0.000 C 
ATOM      2  O   UNL     1       1.677   7.044  20.654  0.00  0.00    +0.000 OA
ATOM      3  N   UNL     1       1.596   8.725  19.066  0.00  0.00    +0.000 N 
ATOM      4  H   UNL     1       1.889   8.971  18.134  0.00  0.00    +0.000 HD
ENDROOT
BRANCH   1   6
ATOM      5  N   UNL     1       3.156   5.407  18.722  0.00  0.00    +0.000 N 
ATOM      6  C   UNL     1       2.944   6.783  18.702  0.00  0.00    +0.000 A 
ATOM      7  C   UNL     1       3.731   7.284  17.677  0.00  0.00    +0.000 A 
ATOM      8  C   UNL     1       4.401   6.214  17.045  0.00  0.00    +0.000 A 
ATOM      9  C   UNL     1       5.287   6.155  15.953  0.00  0.00    +0.000 A 
ATOM     10  C   UNL     1       5.762   4.905  15.543  0.00  0.00    +0.000 A 
ATOM     11  C   UNL     1       5.372   3.731  16.195  0.00  0.00    +0.000 A 
ATOM     12  C   UNL     1       4.499   3.784  17.287  0.00  0.00    +0.000 A 
ATOM     13  C   UNL     1       4.022   5.042  17.697  0.00  0.00    +0.000 A 
BRANCH  10  14
ATOM     14  N   UNL     1       6.682   4.835  14.401  0.00  0.00    +0.000 N 
ATOM     15  O   UNL     1       7.712   5.525  14.448  0.00  0.00    +0.000 OA
ATOM     16  O   UNL     1       6.379   4.089  13.461  0.00  0.00    +0.000 OA
ENDBRANCH  10  14
BRANCH   5  17
ATOM     17  C   UNL     1       2.557   4.444  19.653  0.00  0.00    +0.000 C 
BRANCH  17  19
ATOM     18  C   UNL     1       1.141   2.601  18.689  0.00  0.00    +0.000 C 
ATOM     19  C   UNL     1       1.272   3.857  19.136  0.00  0.00    +0.000 C 
ENDBRANCH  17  19
ENDBRANCH   5  17
ENDBRANCH   1   6
BRANCH   3  20
ATOM     20  C   UNL     1       0.744   9.645  19.704  0.00  0.00    +0.000 A 
ATOM     21  C   UNL     1       0.902  10.021  21.029  0.00  0.00    +0.000 A 
ATOM     22  C   UNL     1       0.028  10.932  21.625  0.00  0.00    +0.000 A 
ATOM     23  C   UNL     1      -1.036  11.517  20.928  0.00  0.00    +0.000 A 
ATOM     24  C   UNL     1      -1.186  11.119  19.588  0.00  0.00    +0.000 A 
ATOM     25  C   UNL     1      -0.302  10.213  18.976  0.00  0.00    +0.000 A 
BRANCH  23  26
ATOM     26  N   UNL     1      -1.944  12.389  21.546  0.00  0.00    +0.000 N 
ATOM     27  C   UNL     1      -3.102  12.853  20.743  0.00  0.00    +0.000 C 
ATOM     28  C   UNL     1      -3.834  14.022  21.433  0.00  0.00    +0.000 C 
ATOM     29  N   UNL     1      -4.255  13.702  22.811  0.00  0.00    +0.000 NA
ATOM     30  C   UNL     1      -4.875  14.872  23.430  0.00  0.00    +0.000 C 
ATOM     31  C   UNL     1      -3.070  13.269  23.583  0.00  0.00    +0.000 C 
ATOM     32  C   UNL     1      -2.338  12.069  22.937  0.00  0.00    +0.000 C 
ENDBRANCH  23  26
ENDBRANCH   3  20
TORSDOF 6
ENDMDL
MODEL 3
REMARK VINA RESULT:      -8.7      0.512      1.268
REMARK  Name = 
REMARK  7 active torsions:
REMARK  status: ('A' for Active; 'I' for Inactive)
REMARK    1  A    between atoms: C_2  and  C_3
REMARK    2  A    between atoms: C_3  and  N_4
REMARK    3  A    between atoms: C_5  and  C_6
REMARK    4  A    between atoms: N_8  and  C_9
REMARK    5  A    between atoms: C_12  and  N_13
REMARK    6  A    between atoms: N_16  and  C_17
REMARK    7  A    between atoms: C_25  and  N_26
REMARK                            x       y       z     vdW  Elec       q    Type
REMARK                         _______ _______ _______ _____ _____    ______ ____
ROOT
ATOM      1  C   UNL     1       2.044   7.553  19.474  0.00  0.00    +0.000 C 
ATOM      2  O   UNL     1       1.699   7.108  20.562  0.00  0.00    +0.000 OA
ATOM      3  N   UNL     1       1.584   8.747  18.933  0.00  0.00    +0.000 N 
ATOM      4  H   UNL     1       1.870   8.975  17.994  0.00  0.00    +0.000 HD
ENDROOT
BRANCH   1   6
ATOM      5  N   UNL     1       3.171   5.443  18.639  0.00  0.00    +0.000 N 
ATOM      6  C   UNL     1       2.965   6.820  18.614  0.00  0.00    +0.000 A 
ATOM      7  C   UNL     1       3.770   7.316  17.600  0.00  0.00    +0.000 A 
ATOM      8  C   UNL     1       4.445   6.242  16.981  0.00  0.00    +0.000 A 
ATOM      9  C   UNL     1       5.348   6.177  15.903  0.00  0.00    +0.000 A 
ATOM     10  C   UNL     1       5.824   4.924  15.502  0.00  0.00    +0.000 A 
ATOM     11  C   UNL     1       5.419   3.753  16.151  0.00  0.00    +0.000 A 
ATOM     12  C   UNL     1       4.529   3.812  17.229  0.00  0.00    +0.000 A 
ATOM     13  C   UNL     1       4.052   5.073  17.628  0.00  0.00    +0.000 A 
BRANCH  10  14
ATOM     14  N   UNL     1       6.762   4.848  14.375  0.00  0.00    +0.000 N 
ATOM     15  O   UNL     1       6.478   4.083  13.440  0.00  0.00    +0.000 OA
ATOM     16  O   UNL     1       7.778   5.553  14.422  0.00  0.00    +0.000 OA
ENDBRANCH  10  14
BRANCH   5  17
ATOM     17  C   UNL     1       2.553   4.485  19.562  0.00  0.00    +0.000 C 
BRANCH  17  19
ATOM     18  C   UNL     1       1.156   2.553  18.757  0.00  0.00    +0.000 C 
ATOM     19  C   UNL     1       1.303   3.862  19.004  0.00  0.00    +0.000 C 
ENDBRANCH  17  19
ENDBRANCH   5  17
ENDBRANCH   1   6
BRANCH   3  20
ATOM     20  C   UNL     1       0.717   9.667  19.551  0.00  0.00    +0.000 A 
ATOM     21  C   UNL     1      -0.374  10.223  18.901  0.00  0.00    +0.000 A 
ATOM     22  C   UNL     1      -1.204  11.139  19.549  0.00  0.00    +0.000 A 
ATOM     23  C   UNL     1      -0.993  11.536  20.875  0.00  0.00    +0.000 A 
ATOM     24  C   UNL     1       0.122  10.968  21.516  0.00  0.00    +0.000 A 
ATOM     25  C   UNL     1       0.955  10.034  20.876  0.00  0.00    +0.000 A 
BRANCH  23  26
ATOM     26  N   UNL     1      -1.797  12.498  21.504  0.00  0.00    +0.000 N 
ATOM     27  C   UNL     1      -2.869  13.129  20.697  0.00  0.00    +0.000 C 
ATOM     28  C   UNL     1      -3.462  14.360  21.411  0.00  0.00    +0.000 C 
ATOM     29  N   UNL     1      -3.950  14.056  22.771  0.00  0.00    +0.000 NA
ATOM     30  C   UNL     1      -4.430  15.275  23.416  0.00  0.00    +0.000 C 
ATOM     31  C   UNL     1      -2.846  13.453  23.548  0.00  0.00    +0.000 C 
ATOM     32  C   UNL     1      -2.257  12.189  22.878  0.00  0.00    +0.000 C 
ENDBRANCH  23  26
ENDBRANCH   3  20
TORSDOF 6
ENDMDL
MODEL 4
REMARK VINA RESULT:      -8.7      0.358      1.082
REMARK  Name = 
REMARK  7 active torsions:
REMARK  status: ('A' for Active; 'I' for Inactive)
REMARK    1  A    between atoms: C_2  and  C_3
REMARK    2  A    between atoms: C_3  and  N_4
REMARK    3  A    between atoms: C_5  and  C_6
REMARK    4  A    between atoms: N_8  and  C_9
REMARK    5  A    between atoms: C_12  and  N_13
REMARK    6  A    between atoms: N_16  and  C_17
REMARK    7  A    between atoms: C_25  and  N_26
REMARK                            x       y       z     vdW  Elec       q    Type
REMARK                         _______ _______ _______ _____ _____    ______ ____
ROOT
ATOM      1  C   UNL     1       2.050   7.425  19.607  0.00  0.00    +0.000 C 
ATOM      2  O   UNL     1       1.699   6.939  20.676  0.00  0.00    +0.000 OA
ATOM      3  N   UNL     1       1.610   8.648  19.118  0.00  0.00    +0.000 N 
ATOM      4  H   UNL     1       1.898   8.912  18.189  0.00  0.00    +0.000 HD
ENDROOT
BRANCH   1   6
ATOM      5  N   UNL     1       3.176   5.339  18.712  0.00  0.00    +0.000 N 
ATOM      6  C   UNL     1       2.958   6.714  18.715  0.00  0.00    +0.000 A 
ATOM      7  C   UNL     1       3.737   7.234  17.692  0.00  0.00    +0.000 A 
ATOM      8  C   UNL     1       4.407   6.177  17.040  0.00  0.00    +0.000 A 
ATOM      9  C   UNL     1       5.287   6.137  15.942  0.00  0.00    +0.000 A 
ATOM     10  C   UNL     1       5.764   4.896  15.510  0.00  0.00    +0.000 A 
ATOM     11  C   UNL     1       5.383   3.711  16.147  0.00  0.00    +0.000 A 
ATOM     12  C   UNL     1       4.516   3.744  17.245  0.00  0.00    +0.000 A 
ATOM     13  C   UNL     1       4.037   4.994  17.676  0.00  0.00    +0.000 A 
BRANCH  10  14
ATOM     14  N   UNL     1       6.678   4.846  14.362  0.00  0.00    +0.000 N 
ATOM     15  O   UNL     1       7.710   5.534  14.416  0.00  0.00    +0.000 OA
ATOM     16  O   UNL     1       6.368   4.120  13.409  0.00  0.00    +0.000 OA
ENDBRANCH  10  14
BRANCH   5  17
ATOM     17  C   UNL     1       2.586   4.361  19.632  0.00  0.00    +0.000 C 
BRANCH  17  19
ATOM     18  C   UNL     1       1.126   2.548  18.675  0.00  0.00    +0.000 C 
ATOM     19  C   UNL     1       1.285   3.799  19.128  0.00  0.00    +0.000 C 
ENDBRANCH  17  19
ENDBRANCH   5  17
ENDBRANCH   1   6
BRANCH   3  20
ATOM     20  C   UNL     1       0.759   9.555  19.776  0.00  0.00    +0.000 A 
ATOM     21  C   UNL     1      -0.243  10.255  19.121  0.00  0.00    +0.000 A 
ATOM     22  C   UNL     1      -1.060  11.152  19.811  0.00  0.00    +0.000 A 
ATOM     23  C   UNL     1      -0.925  11.386  21.184  0.00  0.00    +0.000 A 
ATOM     24  C   UNL     1       0.099  10.674  21.832  0.00  0.00    +0.000 A 
ATOM     25  C   UNL     1       0.918   9.757  21.147  0.00  0.00    +0.000 A 
BRANCH  23  26
ATOM     26  N   UNL     1      -1.712  12.329  21.863  0.00  0.00    +0.000 N 
ATOM     27  C   UNL     1      -2.361  11.897  23.125  0.00  0.00    +0.000 C 
ATOM     28  C   UNL     1      -3.419  12.917  23.592  0.00  0.00    +0.000 C 
ATOM     29  N   UNL     1      -2.877  14.284  23.729  0.00  0.00    +0.000 NA
ATOM     30  C   UNL     1      -3.943  15.210  24.103  0.00  0.00    +0.000 C 
ATOM     31  C   UNL     1      -2.263  14.684  22.445  0.00  0.00    +0.000 C 
ATOM     32  C   UNL     1      -1.167  13.701  21.970  0.00  0.00    +0.000 C 
ENDBRANCH  23  26
ENDBRANCH   3  20
TORSDOF 6
ENDMDL
MODEL 5
REMARK VINA RESULT:      -8.6      1.190      1.574
REMARK  Name = 
REMARK  7 active torsions:
REMARK  status: ('A' for Active; 'I' for Inactive)
REMARK    1  A    between atoms: C_2  and  C_3
REMARK    2  A    between atoms: C_3  and  N_4
REMARK    3  A    between atoms: C_5  and  C_6
REMARK    4  A    between atoms: N_8  and  C_9
REMARK    5  A    between atoms: C_12  and  N_13
REMARK    6  A    between atoms: N_16  and  C_17
REMARK    7  A    between atoms: C_25  and  N_26
REMARK                            x       y       z     vdW  Elec       q    Type
REMARK                         _______ _______ _______ _____ _____    ______ ____
ROOT
ATOM      1  C   UNL     1       1.863   8.025  19.344  0.00  0.00    +0.000 C 
ATOM      2  O   UNL     1       1.671   7.817  20.536  0.00  0.00    +0.000 OA
ATOM      3  N   UNL     1       1.251   9.037  18.616  0.00  0.00    +0.000 N 
ATOM      4  H   UNL     1       1.418   9.064  17.623  0.00  0.00    +0.000 HD
ENDROOT
BRANCH   1   6
ATOM      5  N   UNL     1       2.743   5.781  18.564  0.00  0.00    +0.000 N 
ATOM      6  C   UNL     1       2.749   7.173  18.560  0.00  0.00    +0.000 A 
ATOM      7  C   UNL     1       3.722   7.556  17.649  0.00  0.00    +0.000 A 
ATOM      8  C   UNL     1       4.290   6.401  17.069  0.00  0.00    +0.000 A 
ATOM      9  C   UNL     1       5.281   6.215  16.087  0.00  0.00    +0.000 A 
ATOM     10  C   UNL     1       5.603   4.911  15.698  0.00  0.00    +0.000 A 
ATOM     11  C   UNL     1       4.961   3.806  16.266  0.00  0.00    +0.000 A 
ATOM     12  C   UNL     1       3.982   3.983  17.249  0.00  0.00    +0.000 A 
ATOM     13  C   UNL     1       3.659   5.296  17.637  0.00  0.00    +0.000 A 
BRANCH  10  14
ATOM     14  N   UNL     1       6.632   4.710  14.671  0.00  0.00    +0.000 N 
ATOM     15  O   UNL     1       7.658   5.405  14.738  0.00  0.00    +0.000 OA
ATOM     16  O   UNL     1       6.418   3.857  13.800  0.00  0.00    +0.000 OA
ENDBRANCH  10  14
BRANCH   5  17
ATOM     17  C   UNL     1       1.895   4.915  19.390  0.00  0.00    +0.000 C 
BRANCH  17  19
ATOM     18  C   UNL     1       2.072   3.552  21.498  0.00  0.00    +0.000 C 
ATOM     19  C   UNL     1       2.586   4.444  20.640  0.00  0.00    +0.000 C 
ENDBRANCH  17  19
ENDBRANCH   5  17
ENDBRANCH   1   6
BRANCH   3  20
ATOM     20  C   UNL     1       0.378  10.019  19.118  0.00  0.00    +0.000 A 
ATOM     21  C   UNL     1       0.659  10.765  20.253  0.00  0.00    +0.000 A 
ATOM     22  C   UNL     1      -0.240  11.725  20.720  0.00  0.00    +0.000 A 
ATOM     23  C   UNL     1      -1.453  11.994  20.076  0.00  0.00    +0.000 A 
ATOM     24  C   UNL     1      -1.725  11.225  18.931  0.00  0.00    +0.000 A 
ATOM     25  C   UNL     1      -0.819  10.265  18.445  0.00  0.00    +0.000 A 
BRANCH  23  26
ATOM     26  N   UNL     1      -2.378  12.921  20.580  0.00  0.00    +0.000 N 
ATOM     27  C   UNL     1      -3.808  12.708  20.251  0.00  0.00    +0.000 C 
ATOM     28  C   UNL     1      -4.658  13.945  20.606  0.00  0.00    +0.000 C 
ATOM     29  N   UNL     1      -4.507  14.361  22.015  0.00  0.00    +0.000 NA
ATOM     30  C   UNL     1      -5.278  15.576  22.264  0.00  0.00    +0.000 C 
ATOM     31  C   UNL     1      -3.072  14.586  22.293  0.00  0.00    +0.000 C 
ATOM     32  C   UNL     1      -2.198  13.347  21.987  0.00  0.00    +0.000 C 
ENDBRANCH  23  26
ENDBRANCH   3  20
TORSDOF 6
ENDMDL
MODEL 6
REMARK VINA RESULT:      -8.6      0.817      1.090
REMARK  Name = 
REMARK  7 active torsions:
REMARK  status: ('A' for Active; 'I' for Inactive)
REMARK    1  A    between atoms: C_2  and  C_3
REMARK    2  A    between atoms: C_3  and  N_4
REMARK    3  A    between atoms: C_5  and  C_6
REMARK    4  A    between atoms: N_8  and  C_9
REMARK    5  A    between atoms: C_12  and  N_13
REMARK    6  A    between atoms: N_16  and  C_17
REMARK    7  A    between atoms: C_25  and  N_26
REMARK                            x       y       z     vdW  Elec       q    Type
REMARK                         _______ _______ _______ _____ _____    ______ ____
ROOT
ATOM      1  C   UNL     1       1.922   7.540  19.723  0.00  0.00    +0.000 C 
ATOM      2  O   UNL     1       1.598   7.092  20.816  0.00  0.00    +0.000 OA
ATOM      3  N   UNL     1       1.482   8.753  19.210  0.00  0.00    +0.000 N 
ATOM      4  H   UNL     1       1.745   8.984  18.265  0.00  0.00    +0.000 HD
ENDROOT
BRANCH   1   6
ATOM      5  N   UNL     1       2.782   5.410  18.655  0.00  0.00    +0.000 N 
ATOM      6  C   UNL     1       2.796   6.791  18.827  0.00  0.00    +0.000 A 
ATOM      7  C   UNL     1       3.760   7.283  17.960  0.00  0.00    +0.000 A 
ATOM      8  C   UNL     1       4.316   6.209  17.232  0.00  0.00    +0.000 A 
ATOM      9  C   UNL     1       5.295   6.146  16.223  0.00  0.00    +0.000 A 
ATOM     10  C   UNL     1       5.607   4.900  15.669  0.00  0.00    +0.000 A 
ATOM     11  C   UNL     1       4.966   3.734  16.100  0.00  0.00    +0.000 A 
ATOM     12  C   UNL     1       3.998   3.789  17.109  0.00  0.00    +0.000 A 
ATOM     13  C   UNL     1       3.686   5.043  17.663  0.00  0.00    +0.000 A 
BRANCH  10  14
ATOM     14  N   UNL     1       6.623   4.827  14.612  0.00  0.00    +0.000 N 
ATOM     15  O   UNL     1       7.617   5.563  14.716  0.00  0.00    +0.000 OA
ATOM     16  O   UNL     1       6.432   4.034  13.682  0.00  0.00    +0.000 OA
ENDBRANCH  10  14
BRANCH   5  17
ATOM     17  C   UNL     1       1.939   4.449  19.374  0.00  0.00    +0.000 C 
BRANCH  17  19
ATOM     18  C   UNL     1       2.029   3.266  21.593  0.00  0.00    +0.000 C 
ATOM     19  C   UNL     1       2.648   3.808  20.536  0.00  0.00    +0.000 C 
ENDBRANCH  17  19
ENDBRANCH   5  17
ENDBRANCH   1   6
BRANCH   3  20
ATOM     20  C   UNL     1       0.661   9.690  19.863  0.00  0.00    +0.000 A 
ATOM     21  C   UNL     1       0.795   9.997  21.209  0.00  0.00    +0.000 A 
ATOM     22  C   UNL     1      -0.046  10.928  21.819  0.00  0.00    +0.000 A 
ATOM     23  C   UNL     1      -1.052  11.604  21.118  0.00  0.00    +0.000 A 
ATOM     24  C   UNL     1      -1.179  11.276  19.757  0.00  0.00    +0.000 A 
ATOM     25  C   UNL     1      -0.327  10.349  19.130  0.00  0.00    +0.000 A 
BRANCH  23  26
ATOM     26  N   UNL     1      -1.931  12.498  21.748  0.00  0.00    +0.000 N 
ATOM     27  C   UNL     1      -1.503  13.082  23.042  0.00  0.00    +0.000 C 
ATOM     28  C   UNL     1      -2.671  13.793  23.754  0.00  0.00    +0.000 C 
ATOM     29  N   UNL     1      -3.318  14.819  22.911  0.00  0.00    +0.000 NA
ATOM     30  C   UNL     1      -4.458  15.400  23.616  0.00  0.00    +0.000 C 
ATOM     31  C   UNL     1      -3.752  14.191  21.645  0.00  0.00    +0.000 C 
ATOM     32  C   UNL     1      -2.591  13.505  20.885  0.00  0.00    +0.000 C 
ENDBRANCH  23  26
ENDBRANCH   3  20
TORSDOF 6
ENDMDL
MODEL 7
REMARK VINA RESULT:      -8.5      0.997      1.483
REMARK  Name = 
REMARK  7 active torsions:
REMARK  status: ('A' for Active; 'I' for Inactive)
REMARK    1  A    between atoms: C_2  and  C_3
REMARK    2  A    between atoms: C_3  and  N_4
REMARK    3  A    between atoms: C_5  and  C_6
REMARK    4  A    between atoms: N_8  and  C_9
REMARK    5  A    between atoms: C_12  and  N_13
REMARK    6  A    between atoms: N_16  and  C_17
REMARK    7  A    between atoms: C_25  and  N_26
REMARK                            x       y       z     vdW  Elec       q    Type
REMARK                         _______ _______ _______ _____ _____    ______ ____
ROOT
ATOM      1  C   UNL     1       1.893   7.291  19.930  0.00  0.00    +0.000 C 
ATOM      2  O   UNL     1       1.450   6.727  20.923  0.00  0.00    +0.000 OA
ATOM      3  N   UNL     1       1.609   8.606  19.582  0.00  0.00    +0.000 N 
ATOM      4  H   UNL     1       1.961   8.942  18.700  0.00  0.00    +0.000 HD
ENDROOT
BRANCH   1   6
ATOM      5  N   UNL     1       2.705   5.229  18.704  0.00  0.00    +0.000 N 
ATOM      6  C   UNL     1       2.752   6.592  18.982  0.00  0.00    +0.000 A 
ATOM      7  C   UNL     1       3.732   7.124  18.158  0.00  0.00    +0.000 A 
ATOM      8  C   UNL     1       4.264   6.096  17.351  0.00  0.00    +0.000 A 
ATOM      9  C   UNL     1       5.246   6.086  16.343  0.00  0.00    +0.000 A 
ATOM     10  C   UNL     1       5.530   4.879  15.696  0.00  0.00    +0.000 A 
ATOM     11  C   UNL     1       4.859   3.700  16.034  0.00  0.00    +0.000 A 
ATOM     12  C   UNL     1       3.888   3.701  17.042  0.00  0.00    +0.000 A 
ATOM     13  C   UNL     1       3.605   4.917  17.690  0.00  0.00    +0.000 A 
BRANCH  10  14
ATOM     14  N   UNL     1       6.549   4.862  14.639  0.00  0.00    +0.000 N 
ATOM     15  O   UNL     1       6.343   4.138  13.652  0.00  0.00    +0.000 OA
ATOM     16  O   UNL     1       7.551   5.571  14.792  0.00  0.00    +0.000 OA
ENDBRANCH  10  14
BRANCH   5  17
ATOM     17  C   UNL     1       1.836   4.237  19.345  0.00  0.00    +0.000 C 
BRANCH  17  19
ATOM     18  C   UNL     1       1.880   3.014  21.544  0.00  0.00    +0.000 C 
ATOM     19  C   UNL     1       2.515   3.509  20.473  0.00  0.00    +0.000 C 
ENDBRANCH  17  19
ENDBRANCH   5  17
ENDBRANCH   1   6
BRANCH   3  20
ATOM     20  C   UNL     1       0.838   9.520  20.323  0.00  0.00    +0.000 A 
ATOM     21  C   UNL     1       0.089  10.525  19.730  0.00  0.00    +0.000 A 
ATOM     22  C   UNL     1      -0.656  11.416  20.503  0.00  0.00    +0.000 A 
ATOM     23  C   UNL     1      -0.699  11.342  21.901  0.00  0.00    +0.000 A 
ATOM     24  C   UNL     1       0.072  10.323  22.487  0.00  0.00    +0.000 A 
ATOM     25  C   UNL     1       0.815   9.412  21.714  0.00  0.00    +0.000 A 
BRANCH  23  26
ATOM     26  N   UNL     1      -1.404  12.274  22.677  0.00  0.00    +0.000 N 
ATOM     27  C   UNL     1      -0.822  13.630  22.817  0.00  0.00    +0.000 C 
ATOM     28  C   UNL     1      -1.531  14.437  23.923  0.00  0.00    +0.000 C 
ATOM     29  N   UNL     1      -2.992  14.519  23.728  0.00  0.00    +0.000 NA
ATOM     30  C   UNL     1      -3.608  15.231  24.844  0.00  0.00    +0.000 C 
ATOM     31  C   UNL     1      -3.535  13.148  23.618  0.00  0.00    +0.000 C 
ATOM     32  C   UNL     1      -2.872  12.326  22.487  0.00  0.00    +0.000 C 
ENDBRANCH  23  26
ENDBRANCH   3  20
TORSDOF 6
ENDMDL
MODEL 8
REMARK VINA RESULT:      -8.5      1.467      1.859
REMARK  Name = 
REMARK  7 active torsions:
REMARK  status: ('A' for Active; 'I' for Inactive)
REMARK    1  A    between atoms: C_2  and  C_3
REMARK    2  A    between atoms: C_3  and  N_4
REMARK    3  A    between atoms: C_5  and  C_6
REMARK    4  A    between atoms: N_8  and  C_9
REMARK    5  A    between atoms: C_12  and  N_13
REMARK    6  A    between atoms: N_16  and  C_17
REMARK    7  A    between atoms: C_25  and  N_26
REMARK                            x       y       z     vdW  Elec       q    Type
REMARK                         _______ _______ _______ _____ _____    ______ ____
ROOT
ATOM      1  C   UNL     1       1.875   8.058  19.331  0.00  0.00    +0.000 C 
ATOM      2  O   UNL     1       1.625   7.816  20.507  0.00  0.00    +0.000 OA
ATOM      3  N   UNL     1       1.336   9.119  18.617  0.00  0.00    +0.000 N 
ATOM      4  H   UNL     1       1.546   9.174  17.633  0.00  0.00    +0.000 HD
ENDROOT
BRANCH   1   6
ATOM      5  N   UNL     1       2.742   5.805  18.561  0.00  0.00    +0.000 N 
ATOM      6  C   UNL     1       2.759   7.198  18.554  0.00  0.00    +0.000 A 
ATOM      7  C   UNL     1       3.737   7.571  17.645  0.00  0.00    +0.000 A 
ATOM      8  C   UNL     1       4.299   6.410  17.070  0.00  0.00    +0.000 A 
ATOM      9  C   UNL     1       5.293   6.215  16.093  0.00  0.00    +0.000 A 
ATOM     10  C   UNL     1       5.608   4.907  15.710  0.00  0.00    +0.000 A 
ATOM     11  C   UNL     1       4.956   3.808  16.278  0.00  0.00    +0.000 A 
ATOM     12  C   UNL     1       3.974   3.995  17.257  0.00  0.00    +0.000 A 
ATOM     13  C   UNL     1       3.659   5.312  17.639  0.00  0.00    +0.000 A 
BRANCH  10  14
ATOM     14  N   UNL     1       6.639   4.695  14.686  0.00  0.00    +0.000 N 
ATOM     15  O   UNL     1       6.414   3.848  13.808  0.00  0.00    +0.000 OA
ATOM     16  O   UNL     1       7.670   5.376  14.757  0.00  0.00    +0.000 OA
ENDBRANCH  10  14
BRANCH   5  17
ATOM     17  C   UNL     1       1.885   4.947  19.386  0.00  0.00    +0.000 C 
BRANCH  17  19
ATOM     18  C   UNL     1       2.072   3.565  21.481  0.00  0.00    +0.000 C 
ATOM     19  C   UNL     1       2.554   4.509  20.660  0.00  0.00    +0.000 C 
ENDBRANCH  17  19
ENDBRANCH   5  17
ENDBRANCH   1   6
BRANCH   3  20
ATOM     20  C   UNL     1       0.483  10.119  19.118  0.00  0.00    +0.000 A 
ATOM     21  C   UNL     1      -0.832  10.263  18.702  0.00  0.00    +0.000 A 
ATOM     22  C   UNL     1      -1.641  11.275  19.221  0.00  0.00    +0.000 A 
ATOM     23  C   UNL     1      -1.184  12.183  20.183  0.00  0.00    +0.000 A 
ATOM     24  C   UNL     1       0.153  12.028  20.588  0.00  0.00    +0.000 A 
ATOM     25  C   UNL     1       0.972  11.003  20.081  0.00  0.00    +0.000 A 
BRANCH  23  26
ATOM     26  N   UNL     1      -1.983  13.232  20.661  0.00  0.00    +0.000 N 
ATOM     27  C   UNL     1      -1.530  14.618  20.387  0.00  0.00    +0.000 C 
ATOM     28  C   UNL     1      -2.326  15.645  21.217  0.00  0.00    +0.000 C 
ATOM     29  N   UNL     1      -3.786  15.531  21.025  0.00  0.00    +0.000 NA
ATOM     30  C   UNL     1      -4.481  16.480  21.891  0.00  0.00    +0.000 C 
ATOM     31  C   UNL     1      -4.199  14.145  21.331  0.00  0.00    +0.000 C 
ATOM     32  C   UNL     1      -3.447  13.091  20.483  0.00  0.00    +0.000 C 
ENDBRANCH  23  26
ENDBRANCH   3  20
TORSDOF 6
ENDMDL
MODEL 9
REMARK VINA RESULT:      -8.4      1.073      1.213
REMARK  Name = 
REMARK  7 active torsions:
REMARK  status: ('A' for Active; 'I' for Inactive)
REMARK    1  A    between atoms: C_2  and  C_3
REMARK    2  A    between atoms: C_3  and  N_4
REMARK    3  A    between atoms: C_5  and  C_6
REMARK    4  A    between atoms: N_8  and  C_9
REMARK    5  A    between atoms: C_12  and  N_13
REMARK    6  A    between atoms: N_16  and  C_17
REMARK    7  A    between atoms: C_25  and  N_26
REMARK                            x       y       z     vdW  Elec       q    Type
REMARK                         _______ _______ _______ _____ _____    ______ ____
ROOT
ATOM      1  C   UNL     1       1.499   7.955  20.184  0.00  0.00    +0.000 C 
ATOM      2  O   UNL     1       1.058   7.487  21.227  0.00  0.00    +0.000 OA
ATOM      3  N   UNL     1       1.137   9.191  19.664  0.00  0.00    +0.000 N 
ATOM      4  H   UNL     1       1.498   9.440  18.757  0.00  0.00    +0.000 HD
ENDROOT
BRANCH   1   6
ATOM      5  N   UNL     1       2.777   5.869  19.527  0.00  0.00    +0.000 N 
ATOM      6  C   UNL     1       2.442   7.210  19.359  0.00  0.00    +0.000 A 
ATOM      7  C   UNL     1       3.146   7.652  18.249  0.00  0.00    +0.000 A 
ATOM      8  C   UNL     1       3.888   6.576  17.716  0.00  0.00    +0.000 A 
ATOM      9  C   UNL     1       4.738   6.464  16.600  0.00  0.00    +0.000 A 
ATOM     10  C   UNL     1       5.310   5.219  16.316  0.00  0.00    +0.000 A 
ATOM     11  C   UNL     1       5.049   4.102  17.115  0.00  0.00    +0.000 A 
ATOM     12  C   UNL     1       4.211   4.209  18.231  0.00  0.00    +0.000 A 
ATOM     13  C   UNL     1       3.638   5.461  18.513  0.00  0.00    +0.000 A 
BRANCH  10  14
ATOM     14  N   UNL     1       6.194   5.093  15.150  0.00  0.00    +0.000 N 
ATOM     15  O   UNL     1       5.744   4.521  14.145  0.00  0.00    +0.000 OA
ATOM     16  O   UNL     1       7.333   5.567  15.237  0.00  0.00    +0.000 OA
ENDBRANCH  10  14
BRANCH   5  17
ATOM     17  C   UNL     1       2.298   4.976  20.587  0.00  0.00    +0.000 C 
BRANCH  17  19
ATOM     18  C   UNL     1       1.106   2.810  20.118  0.00  0.00    +0.000 C 
ATOM     19  C   UNL     1       1.115   4.150  20.162  0.00  0.00    +0.000 C 
ENDBRANCH  17  19
ENDBRANCH   5  17
ENDBRANCH   1   6
BRANCH   3  20
ATOM     20  C   UNL     1       0.274  10.130  20.259  0.00  0.00    +0.000 A 
ATOM     21  C   UNL     1       0.383  10.514  21.587  0.00  0.00    +0.000 A 
ATOM     22  C   UNL     1      -0.499  11.444  22.139  0.00  0.00    +0.000 A 
ATOM     23  C   UNL     1      -1.523  12.042  21.394  0.00  0.00    +0.000 A 
ATOM     24  C   UNL     1      -1.623  11.636  20.051  0.00  0.00    +0.000 A 
ATOM     25  C   UNL     1      -0.730  10.710  19.483  0.00  0.00    +0.000 A 
BRANCH  23  26
ATOM     26  N   UNL     1      -2.441  12.934  21.966  0.00  0.00    +0.000 N 
ATOM     27  C   UNL     1      -3.052  12.550  23.263  0.00  0.00    +0.000 C 
ATOM     28  C   UNL     1      -4.245  13.461  23.615  0.00  0.00    +0.000 C 
ATOM     29  N   UNL     1      -3.893  14.895  23.613  0.00  0.00    +0.000 NA
ATOM     30  C   UNL     1      -5.080  15.703  23.882  0.00  0.00    +0.000 C 
ATOM     31  C   UNL     1      -3.313  15.241  22.298  0.00  0.00    +0.000 C 
ATOM     32  C   UNL     1      -2.086  14.372  21.934  0.00  0.00    +0.000 C 
ENDBRANCH  23  26
ENDBRANCH   3  20
TORSDOF 6
ENDMDL
