MODEL 1
REMARK VINA RESULT:      -9.8      0.000      0.000
REMARK  Name = 
REMARK  1 active torsions:
REMARK  status: ('A' for Active; 'I' for Inactive)
REMARK    1  A    between atoms: C_2  and  C_3
REMARK                            x       y       z     vdW  Elec       q    Type
REMARK                         _______ _______ _______ _____ _____    ______ ____
ROOT
ATOM      1  O   UNL     1       3.738   5.447  19.933  0.00  0.00    +0.000 OA
ATOM      2  C   UNL     1       3.798   4.761  18.914  0.00  0.00    +0.000 C 
ATOM      3  N   UNL     1       4.555   5.147  17.810  0.00  0.00    +0.000 N 
ATOM      4  C   UNL     1       5.337   6.404  17.882  0.00  0.00    +0.000 C 
ATOM      5  C   UNL     1       6.755   6.225  17.288  0.00  0.00    +0.000 C 
ATOM      6  C   UNL     1       6.621   5.539  15.973  0.00  0.00    +0.000 A 
ATOM      7  N   UNL     1       7.551   5.474  14.976  0.00  0.00    +0.000 N 
ATOM      8  C   UNL     1       7.044   4.741  13.920  0.00  0.00    +0.000 A 
ATOM      9  C   UNL     1       7.627   4.397  12.693  0.00  0.00    +0.000 A 
ATOM     10  C   UNL     1       6.856   3.645  11.799  0.00  0.00    +0.000 A 
ATOM     11  C   UNL     1       5.561   3.263  12.127  0.00  0.00    +0.000 A 
ATOM     12  F   UNL     1       4.845   2.551  11.245  0.00  0.00    +0.000 F 
ATOM     13  C   UNL     1       4.989   3.597  13.351  0.00  0.00    +0.000 A 
ATOM     14  C   UNL     1       5.748   4.344  14.270  0.00  0.00    +0.000 A 
ATOM     15  C   UNL     1       5.512   4.818  15.587  0.00  0.00    +0.000 A 
ATOM     16  C   UNL     1       4.324   4.602  16.458  0.00  0.00    +0.000 C 
ATOM     17  H   UNL     1       8.474   5.891  14.998  0.00  0.00    +0.000 HD
ENDROOT
BRANCH   2  18
ATOM     18  C   UNL     1       3.128   3.376  18.857  0.00  0.00    +0.000 C 
ATOM     19  C   UNL     1       3.594   2.522  20.047  0.00  0.00    +0.000 C 
ATOM     20  C   UNL     1       2.821   2.793  21.339  0.00  0.00    +0.000 C 
ATOM     21  C   UNL     1       1.314   2.722  21.129  0.00  0.00    +0.000 C 
ATOM     22  C   UNL     1       0.867   3.692  20.043  0.00  0.00    +0.000 C 
ATOM     23  C   UNL     1       1.600   3.434  18.733  0.00  0.00    +0.000 C 
ENDBRANCH   2  18
TORSDOF 1
ENDMDL
MODEL 2
REMARK VINA RESULT:      -8.1      5.485      8.207
REMARK  Name = 
REMARK  1 active torsions:
REMARK  status: ('A' for Active; 'I' for Inactive)
REMARK    1  A    between atoms: C_2  and  C_3
REMARK                            x       y       z     vdW  Elec       q    Type
REMARK                         _______ _______ _______ _____ _____    ______ ____
ROOT
ATOM      1  O   UNL     1       3.700   5.118  17.247  0.00  0.00    +0.000 OA
ATOM      2  C   UNL     1       3.009   5.407  18.224  0.00  0.00    +0.000 C 
ATOM      3  N   UNL     1       2.698   6.727  18.541  0.00  0.00    +0.000 N 
ATOM      4  C   UNL     1       3.184   7.810  17.655  0.00  0.00    +0.000 C 
ATOM      5  C   UNL     1       2.085   8.870  17.399  0.00  0.00    +0.000 C 
ATOM      6  C   UNL     1       1.480   9.234  18.710  0.00  0.00    +0.000 A 
ATOM      7  N   UNL     1       0.726  10.335  18.995  0.00  0.00    +0.000 N 
ATOM      8  C   UNL     1       0.351  10.304  20.325  0.00  0.00    +0.000 A 
ATOM      9  C   UNL     1      -0.430  11.201  21.067  0.00  0.00    +0.000 A 
ATOM     10  C   UNL     1      -0.635  10.913  22.422  0.00  0.00    +0.000 A 
ATOM     11  C   UNL     1      -0.077   9.778  22.997  0.00  0.00    +0.000 A 
ATOM     12  F   UNL     1      -0.284   9.534  24.299  0.00  0.00    +0.000 F 
ATOM     13  C   UNL     1       0.688   8.883  22.254  0.00  0.00    +0.000 A 
ATOM     14  C   UNL     1       0.900   9.147  20.888  0.00  0.00    +0.000 A 
ATOM     15  C   UNL     1       1.573   8.459  19.845  0.00  0.00    +0.000 A 
ATOM     16  C   UNL     1       2.258   7.137  19.890  0.00  0.00    +0.000 C 
ATOM     17  H   UNL     1       0.471  11.065  18.341  0.00  0.00    +0.000 HD
ENDROOT
BRANCH   2  18
ATOM     18  C   UNL     1       2.357   4.305  19.079  0.00  0.00    +0.000 C 
ATOM     19  C   UNL     1       1.617   3.309  18.170  0.00  0.00    +0.000 C 
ATOM     20  C   UNL     1       2.526   2.238  17.564  0.00  0.00    +0.000 C 
ATOM     21  C   UNL     1       3.372   1.541  18.622  0.00  0.00    +0.000 C 
ATOM     22  C   UNL     1       4.205   2.546  19.405  0.00  0.00    +0.000 C 
ATOM     23  C   UNL     1       3.328   3.615  20.044  0.00  0.00    +0.000 C 
ENDBRANCH   2  18
TORSDOF 1
ENDMDL
MODEL 3
REMARK VINA RESULT:      -8.0      4.804      7.948
REMARK  Name = 
REMARK  1 active torsions:
REMARK  status: ('A' for Active; 'I' for Inactive)
REMARK    1  A    between atoms: C_2  and  C_3
REMARK                            x       y       z     vdW  Elec       q    Type
REMARK                         _______ _______ _______ _____ _____    ______ ____
ROOT
ATOM      1  O   UNL     1       4.281   4.088  17.848  0.00  0.00    +0.000 OA
ATOM      2  C   UNL     1       4.156   5.312  17.814  0.00  0.00    +0.000 C 
ATOM      3  N   UNL     1       3.131   5.966  18.492  0.00  0.00    +0.000 N 
ATOM      4  C   UNL     1       2.184   5.166  19.305  0.00  0.00    +0.000 C 
ATOM      5  C   UNL     1       1.898   5.840  20.669  0.00  0.00    +0.000 C 
ATOM      6  C   UNL     1       1.591   7.276  20.419  0.00  0.00    +0.000 A 
ATOM      7  N   UNL     1       0.975   8.149  21.268  0.00  0.00    +0.000 N 
ATOM      8  C   UNL     1       0.882   9.388  20.665  0.00  0.00    +0.000 A 
ATOM      9  C   UNL     1       0.345  10.592  21.144  0.00  0.00    +0.000 A 
ATOM     10  C   UNL     1       0.378  11.701  20.290  0.00  0.00    +0.000 A 
ATOM     11  C   UNL     1       0.923  11.598  19.016  0.00  0.00    +0.000 A 
ATOM     12  F   UNL     1       0.931  12.675  18.218  0.00  0.00    +0.000 F 
ATOM     13  C   UNL     1       1.466  10.405  18.547  0.00  0.00    +0.000 A 
ATOM     14  C   UNL     1       1.452   9.279  19.391  0.00  0.00    +0.000 A 
ATOM     15  C   UNL     1       1.935   7.950  19.268  0.00  0.00    +0.000 A 
ATOM     16  C   UNL     1       2.696   7.334  18.145  0.00  0.00    +0.000 C 
ATOM     17  H   UNL     1       0.638   7.934  22.199  0.00  0.00    +0.000 HD
ENDROOT
BRANCH   2  18
ATOM     18  C   UNL     1       5.207   6.190  17.111  0.00  0.00    +0.000 C 
ATOM     19  C   UNL     1       6.615   5.816  17.605  0.00  0.00    +0.000 C 
ATOM     20  C   UNL     1       7.215   4.603  16.890  0.00  0.00    +0.000 C 
ATOM     21  C   UNL     1       7.150   4.744  15.374  0.00  0.00    +0.000 C 
ATOM     22  C   UNL     1       5.718   4.966  14.907  0.00  0.00    +0.000 C 
ATOM     23  C   UNL     1       5.096   6.181  15.582  0.00  0.00    +0.000 C 
ENDBRANCH   2  18
TORSDOF 1
ENDMDL
MODEL 4
REMARK VINA RESULT:      -7.8      6.004      8.540
REMARK  Name = 
REMARK  1 active torsions:
REMARK  status: ('A' for Active; 'I' for Inactive)
REMARK    1  A    between atoms: C_2  and  C_3
REMARK                            x       y       z     vdW  Elec       q    Type
REMARK                         _______ _______ _______ _____ _____    ______ ____
ROOT
ATOM      1  O   UNL     1       3.593   5.287  18.768  0.00  0.00    +0.000 OA
ATOM      2  C   UNL     1       2.753   5.800  19.506  0.00  0.00    +0.000 C 
ATOM      3  N   UNL     1       2.377   7.134  19.379  0.00  0.00    +0.000 N 
ATOM      4  C   UNL     1       2.982   7.949  18.299  0.00  0.00    +0.000 C 
ATOM      5  C   UNL     1       1.922   8.826  17.589  0.00  0.00    +0.000 C 
ATOM      6  C   UNL     1       1.113   9.510  18.635  0.00  0.00    +0.000 A 
ATOM      7  N   UNL     1       0.308  10.601  18.475  0.00  0.00    +0.000 N 
ATOM      8  C   UNL     1      -0.271  10.927  19.687  0.00  0.00    +0.000 A 
ATOM      9  C   UNL     1      -1.172  11.950  20.015  0.00  0.00    +0.000 A 
ATOM     10  C   UNL     1      -1.584  12.046  21.349  0.00  0.00    +0.000 A 
ATOM     11  C   UNL     1      -1.108  11.155  22.304  0.00  0.00    +0.000 A 
ATOM     12  F   UNL     1      -1.514  11.279  23.575  0.00  0.00    +0.000 F 
ATOM     13  C   UNL     1      -0.223  10.133  21.972  0.00  0.00    +0.000 A 
ATOM     14  C   UNL     1       0.198  10.010  20.635  0.00  0.00    +0.000 A 
ATOM     15  C   UNL     1       1.037   9.096  19.947  0.00  0.00    +0.000 A 
ATOM     16  C   UNL     1       1.724   7.883  20.471  0.00  0.00    +0.000 C 
ATOM     17  H   UNL     1       0.149  11.100  17.608  0.00  0.00    +0.000 HD
ENDROOT
BRANCH   2  18
ATOM     18  C   UNL     1       1.989   4.949  20.538  0.00  0.00    +0.000 C 
ATOM     19  C   UNL     1       0.718   4.368  19.896  0.00  0.00    +0.000 C 
ATOM     20  C   UNL     1       0.964   3.091  19.091  0.00  0.00    +0.000 C 
ATOM     21  C   UNL     1       1.737   2.051  19.892  0.00  0.00    +0.000 C 
ATOM     22  C   UNL     1       3.061   2.615  20.387  0.00  0.00    +0.000 C 
ATOM     23  C   UNL     1       2.851   3.877  21.215  0.00  0.00    +0.000 C 
ENDBRANCH   2  18
TORSDOF 1
ENDMDL
MODEL 5
REMARK VINA RESULT:      -7.7      4.867      6.451
REMARK  Name = 
REMARK  1 active torsions:
REMARK  status: ('A' for Active; 'I' for Inactive)
REMARK    1  A    between atoms: C_2  and  C_3
REMARK                            x       y       z     vdW  Elec       q    Type
REMARK                         _______ _______ _______ _____ _____    ______ ____
ROOT
ATOM      1  O   UNL     1       0.111   9.946  20.804  0.00  0.00    +0.000 OA
ATOM      2  C   UNL     1       0.696   9.565  19.791  0.00  0.00    +0.000 C 
ATOM      3  N   UNL     1       1.475   8.411  19.782  0.00  0.00    +0.000 N 
ATOM      4  C   UNL     1       1.573   7.602  21.019  0.00  0.00    +0.000 C 
ATOM      5  C   UNL     1       1.457   6.088  20.717  0.00  0.00    +0.000 C 
ATOM      6  C   UNL     1       2.367   5.773  19.582  0.00  0.00    +0.000 A 
ATOM      7  N   UNL     1       2.824   4.543  19.206  0.00  0.00    +0.000 N 
ATOM      8  C   UNL     1       3.644   4.674  18.102  0.00  0.00    +0.000 A 
ATOM      9  C   UNL     1       4.327   3.701  17.359  0.00  0.00    +0.000 A 
ATOM     10  C   UNL     1       5.106   4.139  16.281  0.00  0.00    +0.000 A 
ATOM     11  C   UNL     1       5.193   5.490  15.972  0.00  0.00    +0.000 A 
ATOM     12  F   UNL     1       5.955   5.879  14.939  0.00  0.00    +0.000 F 
ATOM     13  C   UNL     1       4.504   6.453  16.704  0.00  0.00    +0.000 A 
ATOM     14  C   UNL     1       3.707   6.037  17.786  0.00  0.00    +0.000 A 
ATOM     15  C   UNL     1       2.860   6.712  18.703  0.00  0.00    +0.000 A 
ATOM     16  C   UNL     1       2.508   8.158  18.756  0.00  0.00    +0.000 C 
ATOM     17  H   UNL     1       2.600   3.663  19.655  0.00  0.00    +0.000 HD
ENDROOT
BRANCH   2  18
ATOM     18  C   UNL     1       0.496  10.290  18.447  0.00  0.00    +0.000 C 
ATOM     19  C   UNL     1      -0.721   9.703  17.714  0.00  0.00    +0.000 C 
ATOM     20  C   UNL     1      -2.058  10.285  18.176  0.00  0.00    +0.000 C 
ATOM     21  C   UNL     1      -2.052  11.809  18.163  0.00  0.00    +0.000 C 
ATOM     22  C   UNL     1      -0.922  12.358  19.022  0.00  0.00    +0.000 C 
ATOM     23  C   UNL     1       0.430  11.817  18.573  0.00  0.00    +0.000 C 
ENDBRANCH   2  18
TORSDOF 1
ENDMDL
MODEL 6
REMARK VINA RESULT:      -7.4      5.820      7.534
REMARK  Name = 
REMARK  1 active torsions:
REMARK  status: ('A' for Active; 'I' for Inactive)
REMARK    1  A    between atoms: C_2  and  C_3
REMARK                            x       y       z     vdW  Elec       q    Type
REMARK                         _______ _______ _______ _____ _____    ______ ____
ROOT
ATOM      1  O   UNL     1      -1.303  11.260  20.484  0.00  0.00    +0.000 OA
ATOM      2  C   UNL     1      -0.664  10.702  19.593  0.00  0.00    +0.000 C 
ATOM      3  N   UNL     1       0.323   9.760  19.874  0.00  0.00    +0.000 N 
ATOM      4  C   UNL     1       0.584   9.396  21.286  0.00  0.00    +0.000 C 
ATOM      5  C   UNL     1       0.759   7.867  21.454  0.00  0.00    +0.000 C 
ATOM      6  C   UNL     1       1.704   7.392  20.405  0.00  0.00    +0.000 A 
ATOM      7  N   UNL     1       2.385   6.210  20.381  0.00  0.00    +0.000 N 
ATOM      8  C   UNL     1       3.155   6.146  19.235  0.00  0.00    +0.000 A 
ATOM      9  C   UNL     1       4.006   5.134  18.770  0.00  0.00    +0.000 A 
ATOM     10  C   UNL     1       4.677   5.357  17.562  0.00  0.00    +0.000 A 
ATOM     11  C   UNL     1       4.500   6.544  16.862  0.00  0.00    +0.000 A 
ATOM     12  F   UNL     1       5.164   6.732  15.712  0.00  0.00    +0.000 F 
ATOM     13  C   UNL     1       3.645   7.542  17.320  0.00  0.00    +0.000 A 
ATOM     14  C   UNL     1       2.952   7.337  18.527  0.00  0.00    +0.000 A 
ATOM     15  C   UNL     1       1.999   8.094  19.257  0.00  0.00    +0.000 A 
ATOM     16  C   UNL     1       1.376   9.399  18.903  0.00  0.00    +0.000 C 
ATOM     17  H   UNL     1       2.338   5.483  21.084  0.00  0.00    +0.000 HD
ENDROOT
BRANCH   2  18
ATOM     18  C   UNL     1      -1.011  10.937  18.111  0.00  0.00    +0.000 C 
ATOM     19  C   UNL     1      -1.611   9.657  17.507  0.00  0.00    +0.000 C 
ATOM     20  C   UNL     1      -3.107   9.490  17.784  0.00  0.00    +0.000 C 
ATOM     21  C   UNL     1      -3.900  10.736  17.411  0.00  0.00    +0.000 C 
ATOM     22  C   UNL     1      -3.370  11.960  18.143  0.00  0.00    +0.000 C 
ATOM     23  C   UNL     1      -1.887  12.172  17.870  0.00  0.00    +0.000 C 
ENDBRANCH   2  18
TORSDOF 1
ENDMDL
MODEL 7
REMARK VINA RESULT:      -7.4      4.439      7.640
REMARK  Name = 
REMARK  1 active torsions:
REMARK  status: ('A' for Active; 'I' for Inactive)
REMARK    1  A    between atoms: C_2  and  C_3
REMARK                            x       y       z     vdW  Elec       q    Type
REMARK                         _______ _______ _______ _____ _____    ______ ____
ROOT
ATOM      1  O   UNL     1       3.973   3.332  17.365  0.00  0.00    +0.000 OA
ATOM      2  C   UNL     1       3.853   4.556  17.343  0.00  0.00    +0.000 C 
ATOM      3  N   UNL     1       3.003   5.228  18.218  0.00  0.00    +0.000 N 
ATOM      4  C   UNL     1       2.250   4.446  19.227  0.00  0.00    +0.000 C 
ATOM      5  C   UNL     1       2.270   5.139  20.612  0.00  0.00    +0.000 C 
ATOM      6  C   UNL     1       1.926   6.575  20.415  0.00  0.00    +0.000 A 
ATOM      7  N   UNL     1       1.514   7.464  21.365  0.00  0.00    +0.000 N 
ATOM      8  C   UNL     1       1.301   8.697  20.779  0.00  0.00    +0.000 A 
ATOM      9  C   UNL     1       0.889   9.911  21.347  0.00  0.00    +0.000 A 
ATOM     10  C   UNL     1       0.744  11.009  20.491  0.00  0.00    +0.000 A 
ATOM     11  C   UNL     1       0.999  10.886  19.131  0.00  0.00    +0.000 A 
ATOM     12  F   UNL     1       0.842  11.954  18.336  0.00  0.00    +0.000 F 
ATOM     13  C   UNL     1       1.419   9.683  18.572  0.00  0.00    +0.000 A 
ATOM     14  C   UNL     1       1.581   8.567  19.414  0.00  0.00    +0.000 A 
ATOM     15  C   UNL     1       2.017   7.232  19.207  0.00  0.00    +0.000 A 
ATOM     16  C   UNL     1       2.512   6.596  17.955  0.00  0.00    +0.000 C 
ATOM     17  H   UNL     1       1.386   7.263  22.349  0.00  0.00    +0.000 HD
ENDROOT
BRANCH   2  18
ATOM     18  C   UNL     1       4.733   5.416  16.417  0.00  0.00    +0.000 C 
ATOM     19  C   UNL     1       5.246   6.647  17.181  0.00  0.00    +0.000 C 
ATOM     20  C   UNL     1       6.489   6.370  18.030  0.00  0.00    +0.000 C 
ATOM     21  C   UNL     1       7.587   5.685  17.227  0.00  0.00    +0.000 C 
ATOM     22  C   UNL     1       7.084   4.390  16.606  0.00  0.00    +0.000 C 
ATOM     23  C   UNL     1       5.859   4.633  15.733  0.00  0.00    +0.000 C 
ENDBRANCH   2  18
TORSDOF 1
ENDMDL
MODEL 8
REMARK VINA RESULT:      -7.3      5.524      8.054
REMARK  Name = 
REMARK  1 active torsions:
REMARK  status: ('A' for Active; 'I' for Inactive)
REMARK    1  A    between atoms: C_2  and  C_3
REMARK                            x       y       z     vdW  Elec       q    Type
REMARK                         _______ _______ _______ _____ _____    ______ ____
ROOT
ATOM      1  O   UNL     1       3.189   4.638  17.610  0.00  0.00    +0.000 OA
ATOM      2  C   UNL     1       2.410   5.118  18.433  0.00  0.00    +0.000 C 
ATOM      3  N   UNL     1       2.365   6.486  18.694  0.00  0.00    +0.000 N 
ATOM      4  C   UNL     1       3.259   7.389  17.932  0.00  0.00    +0.000 C 
ATOM      5  C   UNL     1       2.515   8.667  17.473  0.00  0.00    +0.000 C 
ATOM      6  C   UNL     1       1.770   9.213  18.641  0.00  0.00    +0.000 A 
ATOM      7  N   UNL     1       1.260  10.471  18.781  0.00  0.00    +0.000 N 
ATOM      8  C   UNL     1       0.636  10.581  20.009  0.00  0.00    +0.000 A 
ATOM      9  C   UNL     1      -0.038  11.664  20.590  0.00  0.00    +0.000 A 
ATOM     10  C   UNL     1      -0.566  11.484  21.874  0.00  0.00    +0.000 A 
ATOM     11  C   UNL     1      -0.417  10.273  22.538  0.00  0.00    +0.000 A 
ATOM     12  F   UNL     1      -0.926  10.135  23.771  0.00  0.00    +0.000 F 
ATOM     13  C   UNL     1       0.242   9.195  21.954  0.00  0.00    +0.000 A 
ATOM     14  C   UNL     1       0.773   9.349  20.660  0.00  0.00    +0.000 A 
ATOM     15  C   UNL     1       1.453   8.482  19.765  0.00  0.00    +0.000 A 
ATOM     16  C   UNL     1       1.781   7.039  19.932  0.00  0.00    +0.000 C 
ATOM     17  H   UNL     1       1.318  11.215  18.096  0.00  0.00    +0.000 HD
ENDROOT
BRANCH   2  18
ATOM     18  C   UNL     1       1.360   4.234  19.131  0.00  0.00    +0.000 C 
ATOM     19  C   UNL     1       1.626   2.755  18.807  0.00  0.00    +0.000 C 
ATOM     20  C   UNL     1       2.692   2.113  19.697  0.00  0.00    +0.000 C 
ATOM     21  C   UNL     1       2.415   2.343  21.177  0.00  0.00    +0.000 C 
ATOM     22  C   UNL     1       2.305   3.829  21.488  0.00  0.00    +0.000 C 
ATOM     23  C   UNL     1       1.234   4.497  20.637  0.00  0.00    +0.000 C 
ENDBRANCH   2  18
TORSDOF 1
ENDMDL
