MODEL 1
REMARK VINA RESULT:      -8.5      0.000      0.000
REMARK  Name = 
REMARK  6 active torsions:
REMARK  status: ('A' for Active; 'I' for Inactive)
REMARK    1  A    between atoms: C_1  and  O_2
REMARK    2  A    between atoms: O_2  and  C_3
REMARK    3  A    between atoms: C_3  and  C_4
REMARK    4  A    between atoms: C_4  and  N_5
REMARK    5  A    between atoms: C_4  and  C_23
REMARK    6  A    between atoms: C_17  and  O_18
REMARK                            x       y       z     vdW  Elec       q    Type
REMARK                         _______ _______ _______ _____ _____    ______ ____
ROOT
ATOM      1  N   UNL     1       5.158   4.141  16.575  0.00  0.00    +0.000 N 
ATOM      2  C   UNL     1       4.712   5.364  17.023  0.00  0.00    +0.000 C 
ATOM      3  O   UNL     1       5.423   6.370  17.026  0.00  0.00    +0.000 OA
ATOM      4  N   UNL     1       3.415   5.329  17.489  0.00  0.00    +0.000 N 
ATOM      5  C   UNL     1       2.848   6.472  18.096  0.00  0.00    +0.000 A 
ATOM      6  C   UNL     1       2.765   7.670  17.386  0.00  0.00    +0.000 A 
ATOM      7  C   UNL     1       2.122   8.720  18.044  0.00  0.00    +0.000 A 
ATOM      8  N   UNL     1       1.812   9.998  17.671  0.00  0.00    +0.000 N 
ATOM      9  N   UNL     1       1.169  10.709  18.616  0.00  0.00    +0.000 NA
ATOM     10  C   UNL     1       1.027   9.850  19.632  0.00  0.00    +0.000 A 
ATOM     11  N   UNL     1       0.413  10.114  20.811  0.00  0.00    +0.000 N 
ATOM     12  C   UNL     1      -0.328  11.299  21.151  0.00  0.00    +0.000 C 
ATOM     13  C   UNL     1      -0.867  10.484  22.349  0.00  0.00    +0.000 C 
ATOM     14  C   UNL     1      -0.556   9.268  21.458  0.00  0.00    +0.000 C 
ATOM     15  C   UNL     1       1.632   8.592  19.334  0.00  0.00    +0.000 A 
ATOM     16  C   UNL     1       1.805   7.371  19.991  0.00  0.00    +0.000 A 
ATOM     17  N   UNL     1       2.350   6.304  19.339  0.00  0.00    +0.000 NA
ATOM     18  H   UNL     1       4.507   3.375  16.535  0.00  0.00    +0.000 HD
ATOM     19  H   UNL     1       3.148   4.475  17.955  0.00  0.00    +0.000 HD
ATOM     20  H   UNL     1       1.994  10.442  16.778  0.00  0.00    +0.000 HD
ENDROOT
BRANCH  13  21
ATOM     21  O   UNL     1      -0.104  10.566  23.579  0.00  0.00    +0.000 OA
ATOM     22  H   UNL     1      -0.213   9.683  23.979  0.00  0.00    +0.000 HD
ENDBRANCH  13  21
BRANCH   1  23
ATOM     23  C   UNL     1       6.519   3.948  16.047  0.00  0.00    +0.000 C 
BRANCH  23  24
ATOM     24  C   UNL     1       6.610   4.259  14.555  0.00  0.00    +0.000 A 
ATOM     25  C   UNL     1       5.855   3.497  13.649  0.00  0.00    +0.000 A 
ATOM     26  C   UNL     1       6.076   3.607  12.264  0.00  0.00    +0.000 A 
ATOM     27  C   UNL     1       7.052   4.474  11.785  0.00  0.00    +0.000 A 
ATOM     28  C   UNL     1       7.787   5.258  12.672  0.00  0.00    +0.000 A 
ATOM     29  C   UNL     1       7.568   5.151  14.046  0.00  0.00    +0.000 A 
ENDBRANCH  23  24
BRANCH  23  30
ATOM     30  C   UNL     1       7.589   4.838  16.739  0.00  0.00    +0.000 C 
BRANCH  30  32
ATOM     31  C   UNL     1       7.913   5.483  18.983  0.00  0.00    +0.000 C 
ATOM     32  O   UNL     1       7.894   4.396  18.063  0.00  0.00    +0.000 OA
ENDBRANCH  30  32
ENDBRANCH  23  30
ENDBRANCH   1  23
TORSDOF 5
ENDMDL
MODEL 2
REMARK VINA RESULT:      -8.3      5.480      8.592
REMARK  Name = 
REMARK  6 active torsions:
REMARK  status: ('A' for Active; 'I' for Inactive)
REMARK    1  A    between atoms: C_1  and  O_2
REMARK    2  A    between atoms: O_2  and  C_3
REMARK    3  A    between atoms: C_3  and  C_4
REMARK    4  A    between atoms: C_4  and  N_5
REMARK    5  A    between atoms: C_4  and  C_23
REMARK    6  A    between atoms: C_17  and  O_18
REMARK                            x       y       z     vdW  Elec       q    Type
REMARK                         _______ _______ _______ _____ _____    ______ ____
ROOT
ATOM      1  N   UNL     1       9.614   9.699  19.214  0.00  0.00    +0.000 N 
ATOM      2  C   UNL     1       8.596   8.963  18.652  0.00  0.00    +0.000 C 
ATOM      3  O   UNL     1       7.730   9.467  17.936  0.00  0.00    +0.000 OA
ATOM      4  N   UNL     1       8.635   7.630  19.001  0.00  0.00    +0.000 N 
ATOM      5  C   UNL     1       7.593   6.762  18.606  0.00  0.00    +0.000 A 
ATOM      6  C   UNL     1       7.295   6.599  17.254  0.00  0.00    +0.000 A 
ATOM      7  C   UNL     1       6.300   5.665  16.961  0.00  0.00    +0.000 A 
ATOM      8  N   UNL     1       5.774   5.204  15.786  0.00  0.00    +0.000 N 
ATOM      9  N   UNL     1       4.810   4.277  15.937  0.00  0.00    +0.000 NA
ATOM     10  C   UNL     1       4.726   4.105  17.262  0.00  0.00    +0.000 A 
ATOM     11  N   UNL     1       3.894   3.243  17.896  0.00  0.00    +0.000 N 
ATOM     12  C   UNL     1       3.053   2.250  17.286  0.00  0.00    +0.000 C 
ATOM     13  C   UNL     1       2.916   1.653  18.705  0.00  0.00    +0.000 C 
ATOM     14  C   UNL     1       4.272   2.340  18.952  0.00  0.00    +0.000 C 
ATOM     15  C   UNL     1       5.624   4.972  17.955  0.00  0.00    +0.000 A 
ATOM     16  C   UNL     1       5.950   5.238  19.287  0.00  0.00    +0.000 A 
ATOM     17  N   UNL     1       6.978   6.078  19.595  0.00  0.00    +0.000 NA
ATOM     18  H   UNL     1      10.329   9.217  19.733  0.00  0.00    +0.000 HD
ATOM     19  H   UNL     1       8.961   7.439  19.936  0.00  0.00    +0.000 HD
ATOM     20  H   UNL     1       6.043   5.467  14.845  0.00  0.00    +0.000 HD
ENDROOT
BRANCH  13  21
ATOM     21  O   UNL     1       1.814   2.144  19.507  0.00  0.00    +0.000 OA
ATOM     22  H   UNL     1       1.034   2.010  18.935  0.00  0.00    +0.000 HD
ENDBRANCH  13  21
BRANCH   1  23
ATOM     23  C   UNL     1       9.754  11.147  18.986  0.00  0.00    +0.000 C 
BRANCH  23  24
ATOM     24  C   UNL     1       9.667  11.947  20.284  0.00  0.00    +0.000 A 
ATOM     25  C   UNL     1       8.943  11.423  21.366  0.00  0.00    +0.000 A 
ATOM     26  C   UNL     1       8.658  12.218  22.489  0.00  0.00    +0.000 A 
ATOM     27  C   UNL     1       9.094  13.539  22.531  0.00  0.00    +0.000 A 
ATOM     28  C   UNL     1       9.840  14.062  21.478  0.00  0.00    +0.000 A 
ATOM     29  C   UNL     1      10.124  13.273  20.363  0.00  0.00    +0.000 A 
ENDBRANCH  23  24
BRANCH  23  30
ATOM     30  C   UNL     1      11.102  11.547  18.322  0.00  0.00    +0.000 C 
BRANCH  30  32
ATOM     31  C   UNL     1      11.602  13.409  16.968  0.00  0.00    +0.000 C 
ATOM     32  O   UNL     1      10.920  12.162  17.045  0.00  0.00    +0.000 OA
ENDBRANCH  30  32
ENDBRANCH  23  30
ENDBRANCH   1  23
TORSDOF 5
ENDMDL
MODEL 3
REMARK VINA RESULT:      -8.1      2.987      4.237
REMARK  Name = 
REMARK  6 active torsions:
REMARK  status: ('A' for Active; 'I' for Inactive)
REMARK    1  A    between atoms: C_1  and  O_2
REMARK    2  A    between atoms: O_2  and  C_3
REMARK    3  A    between atoms: C_3  and  C_4
REMARK    4  A    between atoms: C_4  and  N_5
REMARK    5  A    between atoms: C_4  and  C_23
REMARK    6  A    between atoms: C_17  and  O_18
REMARK                            x       y       z     vdW  Elec       q    Type
REMARK                         _______ _______ _______ _____ _____    ______ ____
ROOT
ATOM      1  N   UNL     1       3.138   6.057  18.278  0.00  0.00    +0.000 N 
ATOM      2  C   UNL     1       2.669   7.350  18.279  0.00  0.00    +0.000 C 
ATOM      3  O   UNL     1       3.040   8.193  17.461  0.00  0.00    +0.000 OA
ATOM      4  N   UNL     1       1.778   7.602  19.301  0.00  0.00    +0.000 N 
ATOM      5  C   UNL     1       1.296   8.913  19.516  0.00  0.00    +0.000 A 
ATOM      6  C   UNL     1       0.616   9.582  18.499  0.00  0.00    +0.000 A 
ATOM      7  C   UNL     1       0.115  10.841  18.833  0.00  0.00    +0.000 A 
ATOM      8  N   UNL     1      -0.626  11.760  18.141  0.00  0.00    +0.000 N 
ATOM      9  N   UNL     1      -0.915  12.874  18.838  0.00  0.00    +0.000 NA
ATOM     10  C   UNL     1      -0.368  12.660  20.041  0.00  0.00    +0.000 A 
ATOM     11  N   UNL     1      -0.420  13.509  21.096  0.00  0.00    +0.000 N 
ATOM     12  C   UNL     1      -1.182  14.725  21.187  0.00  0.00    +0.000 C 
ATOM     13  C   UNL     1      -0.903  14.655  22.706  0.00  0.00    +0.000 C 
ATOM     14  C   UNL     1      -0.753  13.144  22.448  0.00  0.00    +0.000 C 
ATOM     15  C   UNL     1       0.314  11.406  20.083  0.00  0.00    +0.000 A 
ATOM     16  C   UNL     1       1.053  10.687  21.025  0.00  0.00    +0.000 A 
ATOM     17  N   UNL     1       1.476   9.420  20.754  0.00  0.00    +0.000 NA
ATOM     18  H   UNL     1       2.744   5.400  18.930  0.00  0.00    +0.000 HD
ATOM     19  H   UNL     1       1.964   7.115  20.164  0.00  0.00    +0.000 HD
ATOM     20  H   UNL     1      -0.982  11.679  17.196  0.00  0.00    +0.000 HD
ENDROOT
BRANCH  13  21
ATOM     21  O   UNL     1       0.292  15.329  23.173  0.00  0.00    +0.000 OA
ATOM     22  H   UNL     1       0.486  15.973  22.465  0.00  0.00    +0.000 HD
ENDBRANCH  13  21
BRANCH   1  23
ATOM     23  C   UNL     1       4.110   5.576  17.282  0.00  0.00    +0.000 C 
BRANCH  23  24
ATOM     24  C   UNL     1       5.552   5.868  17.694  0.00  0.00    +0.000 A 
ATOM     25  C   UNL     1       6.070   5.263  18.850  0.00  0.00    +0.000 A 
ATOM     26  C   UNL     1       7.307   5.673  19.379  0.00  0.00    +0.000 A 
ATOM     27  C   UNL     1       8.024   6.689  18.755  0.00  0.00    +0.000 A 
ATOM     28  C   UNL     1       7.535   7.277  17.590  0.00  0.00    +0.000 A 
ATOM     29  C   UNL     1       6.308   6.869  17.064  0.00  0.00    +0.000 A 
ENDBRANCH  23  24
BRANCH  23  30
ATOM     30  C   UNL     1       4.036   4.045  17.026  0.00  0.00    +0.000 C 
BRANCH  30  32
ATOM     31  C   UNL     1       2.607   2.344  17.812  0.00  0.00    +0.000 C 
ATOM     32  O   UNL     1       2.696   3.550  17.061  0.00  0.00    +0.000 OA
ENDBRANCH  30  32
ENDBRANCH  23  30
ENDBRANCH   1  23
TORSDOF 5
ENDMDL
MODEL 4
REMARK VINA RESULT:      -8.1      3.826      6.008
REMARK  Name = 
REMARK  6 active torsions:
REMARK  status: ('A' for Active; 'I' for Inactive)
REMARK    1  A    between atoms: C_1  and  O_2
REMARK    2  A    between atoms: O_2  and  C_3
REMARK    3  A    between atoms: C_3  and  C_4
REMARK    4  A    between atoms: C_4  and  N_5
REMARK    5  A    between atoms: C_4  and  C_23
REMARK    6  A    between atoms: C_17  and  O_18
REMARK                            x       y       z     vdW  Elec       q    Type
REMARK                         _______ _______ _______ _____ _____    ______ ____
ROOT
ATOM      1  N   UNL     1       2.573   7.924  17.634  0.00  0.00    +0.000 N 
ATOM      2  C   UNL     1       1.578   8.601  18.302  0.00  0.00    +0.000 C 
ATOM      3  O   UNL     1       1.400   8.491  19.516  0.00  0.00    +0.000 OA
ATOM      4  N   UNL     1       0.797   9.376  17.471  0.00  0.00    +0.000 N 
ATOM      5  C   UNL     1      -0.341  10.039  17.981  0.00  0.00    +0.000 A 
ATOM      6  C   UNL     1      -0.206  10.953  19.026  0.00  0.00    +0.000 A 
ATOM      7  C   UNL     1      -1.376  11.611  19.409  0.00  0.00    +0.000 A 
ATOM      8  N   UNL     1      -1.635  12.583  20.336  0.00  0.00    +0.000 N 
ATOM      9  N   UNL     1      -2.925  12.960  20.396  0.00  0.00    +0.000 NA
ATOM     10  C   UNL     1      -3.525  12.229  19.449  0.00  0.00    +0.000 A 
ATOM     11  N   UNL     1      -4.840  12.281  19.123  0.00  0.00    +0.000 N 
ATOM     12  C   UNL     1      -5.812  13.219  19.614  0.00  0.00    +0.000 C 
ATOM     13  C   UNL     1      -6.707  12.730  18.451  0.00  0.00    +0.000 C 
ATOM     14  C   UNL     1      -5.367  12.363  17.787  0.00  0.00    +0.000 C 
ATOM     15  C   UNL     1      -2.600  11.344  18.815  0.00  0.00    +0.000 A 
ATOM     16  C   UNL     1      -2.652  10.374  17.811  0.00  0.00    +0.000 A 
ATOM     17  N   UNL     1      -1.511   9.783  17.359  0.00  0.00    +0.000 NA
ATOM     18  H   UNL     1       2.708   8.109  16.654  0.00  0.00    +0.000 HD
ATOM     19  H   UNL     1       0.640   8.995  16.550  0.00  0.00    +0.000 HD
ATOM     20  H   UNL     1      -0.971  13.044  20.947  0.00  0.00    +0.000 HD
ENDROOT
BRANCH  13  21
ATOM     21  O   UNL     1      -7.585  11.614  18.740  0.00  0.00    +0.000 OA
ATOM     22  H   UNL     1      -6.993  10.839  18.706  0.00  0.00    +0.000 HD
ENDBRANCH  13  21
BRANCH   1  23
ATOM     23  C   UNL     1       3.513   7.027  18.326  0.00  0.00    +0.000 C 
BRANCH  23  24
ATOM     24  C   UNL     1       2.843   5.737  18.793  0.00  0.00    +0.000 A 
ATOM     25  C   UNL     1       2.186   4.926  17.854  0.00  0.00    +0.000 A 
ATOM     26  C   UNL     1       1.378   3.855  18.274  0.00  0.00    +0.000 A 
ATOM     27  C   UNL     1       1.224   3.595  19.632  0.00  0.00    +0.000 A 
ATOM     28  C   UNL     1       1.895   4.373  20.573  0.00  0.00    +0.000 A 
ATOM     29  C   UNL     1       2.699   5.435  20.157  0.00  0.00    +0.000 A 
ENDBRANCH  23  24
BRANCH  23  30
ATOM     30  C   UNL     1       4.721   6.594  17.450  0.00  0.00    +0.000 C 
BRANCH  30  32
ATOM     31  C   UNL     1       6.173   4.751  17.676  0.00  0.00    +0.000 C 
ATOM     32  O   UNL     1       5.771   6.004  18.220  0.00  0.00    +0.000 OA
ENDBRANCH  30  32
ENDBRANCH  23  30
ENDBRANCH   1  23
TORSDOF 5
ENDMDL
MODEL 5
REMARK VINA RESULT:      -8.1      3.752      9.734
REMARK  Name = 
REMARK  6 active torsions:
REMARK  status: ('A' for Active; 'I' for Inactive)
REMARK    1  A    between atoms: C_1  and  O_2
REMARK    2  A    between atoms: O_2  and  C_3
REMARK    3  A    between atoms: C_3  and  C_4
REMARK    4  A    between atoms: C_4  and  N_5
REMARK    5  A    between atoms: C_4  and  C_23
REMARK    6  A    between atoms: C_17  and  O_18
REMARK                            x       y       z     vdW  Elec       q    Type
REMARK                         _______ _______ _______ _____ _____    ______ ____
ROOT
ATOM      1  N   UNL     1       0.425  13.247  18.764  0.00  0.00    +0.000 N 
ATOM      2  C   UNL     1       0.976  12.071  19.218  0.00  0.00    +0.000 C 
ATOM      3  O   UNL     1       1.613  11.999  20.271  0.00  0.00    +0.000 OA
ATOM      4  N   UNL     1       0.768  11.009  18.364  0.00  0.00    +0.000 N 
ATOM      5  C   UNL     1       1.373   9.759  18.624  0.00  0.00    +0.000 A 
ATOM      6  C   UNL     1       1.114   9.095  19.823  0.00  0.00    +0.000 A 
ATOM      7  C   UNL     1       1.699   7.834  19.954  0.00  0.00    +0.000 A 
ATOM      8  N   UNL     1       1.643   6.882  20.934  0.00  0.00    +0.000 N 
ATOM      9  N   UNL     1       2.363   5.775  20.672  0.00  0.00    +0.000 NA
ATOM     10  C   UNL     1       2.881   6.002  19.459  0.00  0.00    +0.000 A 
ATOM     11  N   UNL     1       3.670   5.147  18.763  0.00  0.00    +0.000 N 
ATOM     12  C   UNL     1       3.986   3.788  19.112  0.00  0.00    +0.000 C 
ATOM     13  C   UNL     1       4.491   3.649  17.658  0.00  0.00    +0.000 C 
ATOM     14  C   UNL     1       3.509   4.802  17.375  0.00  0.00    +0.000 C 
ATOM     15  C   UNL     1       2.515   7.294  18.973  0.00  0.00    +0.000 A 
ATOM     16  C   UNL     1       2.763   8.052  17.826  0.00  0.00    +0.000 A 
ATOM     17  N   UNL     1       2.135   9.246  17.635  0.00  0.00    +0.000 NA
ATOM     18  H   UNL     1      -0.141  13.224  17.933  0.00  0.00    +0.000 HD
ATOM     19  H   UNL     1       0.771  11.240  17.382  0.00  0.00    +0.000 HD
ATOM     20  H   UNL     1       1.117   6.918  21.800  0.00  0.00    +0.000 HD
ENDROOT
BRANCH  13  21
ATOM     21  O   UNL     1       5.890   3.953  17.430  0.00  0.00    +0.000 OA
ATOM     22  H   UNL     1       6.091   4.632  18.102  0.00  0.00    +0.000 HD
ENDBRANCH  13  21
BRANCH   1  23
ATOM     23  C   UNL     1       0.540  14.509  19.514  0.00  0.00    +0.000 C 
BRANCH  23  24
ATOM     24  C   UNL     1       1.366  15.553  18.764  0.00  0.00    +0.000 A 
ATOM     25  C   UNL     1       0.771  16.775  18.413  0.00  0.00    +0.000 A 
ATOM     26  C   UNL     1       1.423  17.663  17.540  0.00  0.00    +0.000 A 
ATOM     27  C   UNL     1       2.667  17.330  17.015  0.00  0.00    +0.000 A 
ATOM     28  C   UNL     1       3.282  16.134  17.379  0.00  0.00    +0.000 A 
ATOM     29  C   UNL     1       2.636  15.252  18.247  0.00  0.00    +0.000 A 
ENDBRANCH  23  24
BRANCH  23  30
ATOM     30  C   UNL     1      -0.828  15.179  19.821  0.00  0.00    +0.000 C 
BRANCH  30  32
ATOM     31  C   UNL     1      -1.663  14.137  21.762  0.00  0.00    +0.000 C 
ATOM     32  O   UNL     1      -1.782  14.256  20.348  0.00  0.00    +0.000 OA
ENDBRANCH  30  32
ENDBRANCH  23  30
ENDBRANCH   1  23
TORSDOF 5
ENDMDL
MODEL 6
REMARK VINA RESULT:      -8.0      3.618     10.000
REMARK  Name = 
REMARK  6 active torsions:
REMARK  status: ('A' for Active; 'I' for Inactive)
REMARK    1  A    between atoms: C_1  and  O_2
REMARK    2  A    between atoms: O_2  and  C_3
REMARK    3  A    between atoms: C_3  and  C_4
REMARK    4  A    between atoms: C_4  and  N_5
REMARK    5  A    between atoms: C_4  and  C_23
REMARK    6  A    between atoms: C_17  and  O_18
REMARK                            x       y       z     vdW  Elec       q    Type
REMARK                         _______ _______ _______ _____ _____    ______ ____
ROOT
ATOM      1  N   UNL     1       0.269  13.108  18.847  0.00  0.00    +0.000 N 
ATOM      2  C   UNL     1       0.863  11.944  19.278  0.00  0.00    +0.000 C 
ATOM      3  O   UNL     1       1.491  11.870  20.335  0.00  0.00    +0.000 OA
ATOM      4  N   UNL     1       0.709  10.897  18.394  0.00  0.00    +0.000 N 
ATOM      5  C   UNL     1       1.362   9.667  18.630  0.00  0.00    +0.000 A 
ATOM      6  C   UNL     1       1.117   8.961  19.808  0.00  0.00    +0.000 A 
ATOM      7  C   UNL     1       1.752   7.722  19.914  0.00  0.00    +0.000 A 
ATOM      8  N   UNL     1       1.725   6.744  20.869  0.00  0.00    +0.000 N 
ATOM      9  N   UNL     1       2.492   5.675  20.586  0.00  0.00    +0.000 NA
ATOM     10  C   UNL     1       3.014   5.954  19.386  0.00  0.00    +0.000 A 
ATOM     11  N   UNL     1       3.845   5.150  18.679  0.00  0.00    +0.000 N 
ATOM     12  C   UNL     1       4.213   3.797  18.996  0.00  0.00    +0.000 C 
ATOM     13  C   UNL     1       4.739   3.717  17.545  0.00  0.00    +0.000 C 
ATOM     14  C   UNL     1       3.714   4.835  17.280  0.00  0.00    +0.000 C 
ATOM     15  C   UNL     1       2.601   7.242  18.929  0.00  0.00    +0.000 A 
ATOM     16  C   UNL     1       2.830   8.039  17.805  0.00  0.00    +0.000 A 
ATOM     17  N   UNL     1       2.155   9.211  17.636  0.00  0.00    +0.000 NA
ATOM     18  H   UNL     1      -0.286  13.084  18.009  0.00  0.00    +0.000 HD
ATOM     19  H   UNL     1       0.713  11.154  17.419  0.00  0.00    +0.000 HD
ATOM     20  H   UNL     1       1.189   6.736  21.728  0.00  0.00    +0.000 HD
ENDROOT
BRANCH  13  21
ATOM     21  O   UNL     1       6.127   4.083  17.342  0.00  0.00    +0.000 OA
ATOM     22  H   UNL     1       6.081   4.817  16.700  0.00  0.00    +0.000 HD
ENDBRANCH  13  21
BRANCH   1  23
ATOM     23  C   UNL     1       0.324  14.354  19.630  0.00  0.00    +0.000 C 
BRANCH  23  24
ATOM     24  C   UNL     1       0.544  15.581  18.748  0.00  0.00    +0.000 A 
ATOM     25  C   UNL     1       1.853  15.952  18.402  0.00  0.00    +0.000 A 
ATOM     26  C   UNL     1       2.106  17.187  17.781  0.00  0.00    +0.000 A 
ATOM     27  C   UNL     1       1.052  18.054  17.508  0.00  0.00    +0.000 A 
ATOM     28  C   UNL     1      -0.255  17.685  17.819  0.00  0.00    +0.000 A 
ATOM     29  C   UNL     1      -0.507  16.458  18.433  0.00  0.00    +0.000 A 
ENDBRANCH  23  24
BRANCH  23  30
ATOM     30  C   UNL     1      -0.968  14.634  20.447  0.00  0.00    +0.000 C 
BRANCH  30  32
ATOM     31  C   UNL     1      -2.316  12.942  21.380  0.00  0.00    +0.000 C 
ATOM     32  O   UNL     1      -1.991  13.668  20.200  0.00  0.00    +0.000 OA
ENDBRANCH  30  32
ENDBRANCH  23  30
ENDBRANCH   1  23
TORSDOF 5
ENDMDL
MODEL 7
REMARK VINA RESULT:      -8.0      2.538      4.125
REMARK  Name = 
REMARK  6 active torsions:
REMARK  status: ('A' for Active; 'I' for Inactive)
REMARK    1  A    between atoms: C_1  and  O_2
REMARK    2  A    between atoms: O_2  and  C_3
REMARK    3  A    between atoms: C_3  and  C_4
REMARK    4  A    between atoms: C_4  and  N_5
REMARK    5  A    between atoms: C_4  and  C_23
REMARK    6  A    between atoms: C_17  and  O_18
REMARK                            x       y       z     vdW  Elec       q    Type
REMARK                         _______ _______ _______ _____ _____    ______ ____
ROOT
ATOM      1  N   UNL     1       3.422   6.200  18.189  0.00  0.00    +0.000 N 
ATOM      2  C   UNL     1       2.534   6.707  19.110  0.00  0.00    +0.000 C 
ATOM      3  O   UNL     1       1.880   5.988  19.867  0.00  0.00    +0.000 OA
ATOM      4  N   UNL     1       2.436   8.082  19.069  0.00  0.00    +0.000 N 
ATOM      5  C   UNL     1       1.479   8.749  19.866  0.00  0.00    +0.000 A 
ATOM      6  C   UNL     1       1.499   8.599  21.252  0.00  0.00    +0.000 A 
ATOM      7  C   UNL     1       0.562   9.357  21.957  0.00  0.00    +0.000 A 
ATOM      8  N   UNL     1       0.307   9.513  23.291  0.00  0.00    +0.000 N 
ATOM      9  N   UNL     1      -0.703  10.359  23.566  0.00  0.00    +0.000 NA
ATOM     10  C   UNL     1      -1.102  10.795  22.365  0.00  0.00    +0.000 A 
ATOM     11  N   UNL     1      -2.093  11.690  22.137  0.00  0.00    +0.000 N 
ATOM     12  C   UNL     1      -2.808  12.453  23.123  0.00  0.00    +0.000 C 
ATOM     13  C   UNL     1      -3.297  13.318  21.938  0.00  0.00    +0.000 C 
ATOM     14  C   UNL     1      -2.010  12.824  21.253  0.00  0.00    +0.000 C 
ATOM     15  C   UNL     1      -0.355  10.176  21.316  0.00  0.00    +0.000 A 
ATOM     16  C   UNL     1      -0.338  10.225  19.920  0.00  0.00    +0.000 A 
ATOM     17  N   UNL     1       0.623   9.564  19.215  0.00  0.00    +0.000 NA
ATOM     18  H   UNL     1       3.975   6.843  17.648  0.00  0.00    +0.000 HD
ATOM     19  H   UNL     1       2.526   8.492  18.152  0.00  0.00    +0.000 HD
ATOM     20  H   UNL     1       0.799   9.085  24.067  0.00  0.00    +0.000 HD
ENDROOT
BRANCH  13  21
ATOM     21  O   UNL     1      -4.536  12.906  21.308  0.00  0.00    +0.000 OA
ATOM     22  H   UNL     1      -4.606  13.493  20.531  0.00  0.00    +0.000 HD
ENDBRANCH  13  21
BRANCH   1  23
ATOM     23  C   UNL     1       3.671   4.755  18.051  0.00  0.00    +0.000 C 
BRANCH  23  24
ATOM     24  C   UNL     1       4.880   4.459  17.166  0.00  0.00    +0.000 A 
ATOM     25  C   UNL     1       6.171   4.635  17.686  0.00  0.00    +0.000 A 
ATOM     26  C   UNL     1       7.296   4.585  16.844  0.00  0.00    +0.000 A 
ATOM     27  C   UNL     1       7.130   4.363  15.481  0.00  0.00    +0.000 A 
ATOM     28  C   UNL     1       5.856   4.156  14.956  0.00  0.00    +0.000 A 
ATOM     29  C   UNL     1       4.739   4.204  15.792  0.00  0.00    +0.000 A 
ENDBRANCH  23  24
BRANCH  23  30
ATOM     30  C   UNL     1       3.940   4.037  19.403  0.00  0.00    +0.000 C 
BRANCH  30  32
ATOM     31  C   UNL     1       2.271   2.386  19.600  0.00  0.00    +0.000 C 
ATOM     32  O   UNL     1       3.648   2.639  19.346  0.00  0.00    +0.000 OA
ENDBRANCH  30  32
ENDBRANCH  23  30
ENDBRANCH   1  23
TORSDOF 5
ENDMDL
MODEL 8
REMARK VINA RESULT:      -8.0      2.991      4.807
REMARK  Name = 
REMARK  6 active torsions:
REMARK  status: ('A' for Active; 'I' for Inactive)
REMARK    1  A    between atoms: C_1  and  O_2
REMARK    2  A    between atoms: O_2  and  C_3
REMARK    3  A    between atoms: C_3  and  C_4
REMARK    4  A    between atoms: C_4  and  N_5
REMARK    5  A    between atoms: C_4  and  C_23
REMARK    6  A    between atoms: C_17  and  O_18
REMARK                            x       y       z     vdW  Elec       q    Type
REMARK                         _______ _______ _______ _____ _____    ______ ____
ROOT
ATOM      1  N   UNL     1       3.110   7.454  17.361  0.00  0.00    +0.000 N 
ATOM      2  C   UNL     1       2.397   8.151  18.310  0.00  0.00    +0.000 C 
ATOM      3  O   UNL     1       2.487   7.913  19.515  0.00  0.00    +0.000 OA
ATOM      4  N   UNL     1       1.561   9.104  17.767  0.00  0.00    +0.000 N 
ATOM      5  C   UNL     1       0.671   9.822  18.597  0.00  0.00    +0.000 A 
ATOM      6  C   UNL     1       1.164  10.580  19.658  0.00  0.00    +0.000 A 
ATOM      7  C   UNL     1       0.214  11.312  20.372  0.00  0.00    +0.000 A 
ATOM      8  N   UNL     1       0.309  12.186  21.419  0.00  0.00    +0.000 N 
ATOM      9  N   UNL     1      -0.870  12.694  21.824  0.00  0.00    +0.000 NA
ATOM     10  C   UNL     1      -1.764  12.155  20.987  0.00  0.00    +0.000 A 
ATOM     11  N   UNL     1      -3.098  12.393  20.994  0.00  0.00    +0.000 N 
ATOM     12  C   UNL     1      -3.796  13.366  21.790  0.00  0.00    +0.000 C 
ATOM     13  C   UNL     1      -4.990  13.126  20.838  0.00  0.00    +0.000 C 
ATOM     14  C   UNL     1      -3.900  12.696  19.838  0.00  0.00    +0.000 C 
ATOM     15  C   UNL     1      -1.138  11.258  20.069  0.00  0.00    +0.000 A 
ATOM     16  C   UNL     1      -1.550  10.430  19.022  0.00  0.00    +0.000 A 
ATOM     17  N   UNL     1      -0.634   9.775  18.254  0.00  0.00    +0.000 NA
ATOM     18  H   UNL     1       3.043   7.742  16.400  0.00  0.00    +0.000 HD
ATOM     19  H   UNL     1       1.147   8.858  16.881  0.00  0.00    +0.000 HD
ATOM     20  H   UNL     1       1.151  12.492  21.892  0.00  0.00    +0.000 HD
ENDROOT
BRANCH  13  21
ATOM     21  O   UNL     1      -5.924  12.088  21.226  0.00  0.00    +0.000 OA
ATOM     22  H   UNL     1      -6.510  12.532  21.867  0.00  0.00    +0.000 HD
ENDBRANCH  13  21
BRANCH   1  23
ATOM     23  C   UNL     1       4.052   6.380  17.720  0.00  0.00    +0.000 C 
BRANCH  23  24
ATOM     24  C   UNL     1       3.406   4.998  17.648  0.00  0.00    +0.000 A 
ATOM     25  C   UNL     1       2.037   4.866  17.928  0.00  0.00    +0.000 A 
ATOM     26  C   UNL     1       1.458   3.594  18.086  0.00  0.00    +0.000 A 
ATOM     27  C   UNL     1       2.248   2.455  17.968  0.00  0.00    +0.000 A 
ATOM     28  C   UNL     1       3.602   2.571  17.661  0.00  0.00    +0.000 A 
ATOM     29  C   UNL     1       4.176   3.833  17.502  0.00  0.00    +0.000 A 
ENDBRANCH  23  24
BRANCH  23  30
ATOM     30  C   UNL     1       5.306   6.318  16.803  0.00  0.00    +0.000 C 
BRANCH  30  32
ATOM     31  C   UNL     1       7.416   7.155  17.435  0.00  0.00    +0.000 C 
ATOM     32  O   UNL     1       6.128   7.481  16.924  0.00  0.00    +0.000 OA
ENDBRANCH  30  32
ENDBRANCH  23  30
ENDBRANCH   1  23
TORSDOF 5
ENDMDL
MODEL 9
REMARK VINA RESULT:      -7.9      2.010      3.860
REMARK  Name = 
REMARK  6 active torsions:
REMARK  status: ('A' for Active; 'I' for Inactive)
REMARK    1  A    between atoms: C_1  and  O_2
REMARK    2  A    between atoms: O_2  and  C_3
REMARK    3  A    between atoms: C_3  and  C_4
REMARK    4  A    between atoms: C_4  and  N_5
REMARK    5  A    between atoms: C_4  and  C_23
REMARK    6  A    between atoms: C_17  and  O_18
REMARK                            x       y       z     vdW  Elec       q    Type
REMARK                         _______ _______ _______ _____ _____    ______ ____
ROOT
ATOM      1  N   UNL     1       3.518   5.952  17.965  0.00  0.00    +0.000 N 
ATOM      2  C   UNL     1       2.968   7.210  18.054  0.00  0.00    +0.000 C 
ATOM      3  O   UNL     1       3.356   8.155  17.365  0.00  0.00    +0.000 OA
ATOM      4  N   UNL     1       1.976   7.302  19.007  0.00  0.00    +0.000 N 
ATOM      5  C   UNL     1       1.395   8.554  19.308  0.00  0.00    +0.000 A 
ATOM      6  C   UNL     1       0.766   9.291  18.305  0.00  0.00    +0.000 A 
ATOM      7  C   UNL     1       0.158  10.478  18.717  0.00  0.00    +0.000 A 
ATOM      8  N   UNL     1      -0.576  11.423  18.056  0.00  0.00    +0.000 N 
ATOM      9  N   UNL     1      -0.996  12.439  18.832  0.00  0.00    +0.000 NA
ATOM     10  C   UNL     1      -0.546  12.127  20.053  0.00  0.00    +0.000 A 
ATOM     11  N   UNL     1      -0.745  12.854  21.180  0.00  0.00    +0.000 N 
ATOM     12  C   UNL     1      -1.589  14.009  21.322  0.00  0.00    +0.000 C 
ATOM     13  C   UNL     1      -1.441  13.791  22.845  0.00  0.00    +0.000 C 
ATOM     14  C   UNL     1      -1.173  12.328  22.449  0.00  0.00    +0.000 C 
ATOM     15  C   UNL     1       0.209  10.915  20.032  0.00  0.00    +0.000 A 
ATOM     16  C   UNL     1       0.906  10.139  20.961  0.00  0.00    +0.000 A 
ATOM     17  N   UNL     1       1.432   8.934  20.603  0.00  0.00    +0.000 NA
ATOM     18  H   UNL     1       3.111   5.208  18.507  0.00  0.00    +0.000 HD
ATOM     19  H   UNL     1       2.116   6.735  19.830  0.00  0.00    +0.000 HD
ATOM     20  H   UNL     1      -0.841  11.426  17.078  0.00  0.00    +0.000 HD
ENDROOT
BRANCH  13  21
ATOM     21  O   UNL     1      -0.337  14.475  23.490  0.00  0.00    +0.000 OA
ATOM     22  H   UNL     1      -0.762  15.236  23.930  0.00  0.00    +0.000 HD
ENDBRANCH  13  21
BRANCH   1  23
ATOM     23  C   UNL     1       4.603   5.635  17.022  0.00  0.00    +0.000 C 
BRANCH  23  24
ATOM     24  C   UNL     1       5.978   5.993  17.582  0.00  0.00    +0.000 A 
ATOM     25  C   UNL     1       6.456   5.315  18.714  0.00  0.00    +0.000 A 
ATOM     26  C   UNL     1       7.608   5.763  19.384  0.00  0.00    +0.000 A 
ATOM     27  C   UNL     1       8.282   6.890  18.924  0.00  0.00    +0.000 A 
ATOM     28  C   UNL     1       7.835   7.555  17.784  0.00  0.00    +0.000 A 
ATOM     29  C   UNL     1       6.693   7.110  17.118  0.00  0.00    +0.000 A 
ENDBRANCH  23  24
BRANCH  23  30
ATOM     30  C   UNL     1       4.674   4.131  16.635  0.00  0.00    +0.000 C 
BRANCH  30  32
ATOM     31  C   UNL     1       5.527   4.299  14.445  0.00  0.00    +0.000 C 
ATOM     32  O   UNL     1       5.773   3.841  15.770  0.00  0.00    +0.000 OA
ENDBRANCH  30  32
ENDBRANCH  23  30
ENDBRANCH   1  23
TORSDOF 5
ENDMDL
