MODEL 1
REMARK VINA RESULT:      -8.8      0.000      0.000
REMARK  Name = 
REMARK  9 active torsions:
REMARK  status: ('A' for Active; 'I' for Inactive)
REMARK    1  A    between atoms: C_1  and  C_2
REMARK    2  A    between atoms: C_2  and  C_3
REMARK    3  A    between atoms: C_2  and  C_4
REMARK    4  A    between atoms: C_4  and  C_5
REMARK    5  A    between atoms: C_4  and  N_11
REMARK    6  A    between atoms: C_5  and  N_6
REMARK    7  A    between atoms: C_12  and  C_14
REMARK    8  A    between atoms: C_14  and  C_15
REMARK    9  A    between atoms: C_14  and  C_21
REMARK                            x       y       z     vdW  Elec       q    Type
REMARK                         _______ _______ _______ _____ _____    ______ ____
ROOT
ATOM      1  N   UNL     1       5.430   5.986  17.735  0.00  0.00    +0.000 N 
ATOM      2  C   UNL     1       4.457   5.831  18.708  0.00  0.00    +0.000 C 
ATOM      3  O   UNL     1       4.771   5.456  19.836  0.00  0.00    +0.000 OA
ATOM      4  H   UNL     1       5.144   6.156  16.778  0.00  0.00    +0.000 HD
ENDROOT
BRANCH   1   5
ATOM      5  C   UNL     1       6.841   5.681  18.028  0.00  0.00    +0.000 C 
BRANCH   5   7
ATOM      6  C   UNL     1       8.478   7.287  19.151  0.00  0.00    +0.000 C 
ATOM      7  C   UNL     1       7.741   6.938  17.854  0.00  0.00    +0.000 C 
ATOM      8  C   UNL     1       6.990   8.164  17.327  0.00  0.00    +0.000 C 
ENDBRANCH   5   7
BRANCH   5   9
ATOM      9  C   UNL     1       7.335   4.442  17.236  0.00  0.00    +0.000 C 
BRANCH   9  10
ATOM     10  N   UNL     1       6.983   4.479  15.833  0.00  0.00    +0.000 N 
ATOM     11  C   UNL     1       6.103   3.683  15.164  0.00  0.00    +0.000 A 
ATOM     12  C   UNL     1       6.208   4.109  13.862  0.00  0.00    +0.000 A 
ATOM     13  N   UNL     1       7.103   5.137  13.788  0.00  0.00    +0.000 NA
ATOM     14  N   UNL     1       7.557   5.374  15.012  0.00  0.00    +0.000 NA
ENDBRANCH   9  10
ENDBRANCH   5   9
ENDBRANCH   1   5
BRANCH   2  15
ATOM     15  C   UNL     1       2.992   6.059  18.237  0.00  0.00    +0.000 C 
BRANCH  15  16
ATOM     16  C   UNL     1       2.182   4.844  18.705  0.00  0.00    +0.000 A 
ATOM     17  C   UNL     1       1.713   4.782  20.030  0.00  0.00    +0.000 A 
ATOM     18  C   UNL     1       1.082   3.637  20.511  0.00  0.00    +0.000 A 
ATOM     19  C   UNL     1       0.898   2.540  19.673  0.00  0.00    +0.000 A 
ATOM     20  C   UNL     1       1.323   2.599  18.347  0.00  0.00    +0.000 A 
ATOM     21  C   UNL     1       1.960   3.745  17.861  0.00  0.00    +0.000 A 
ENDBRANCH  15  16
BRANCH  15  22
ATOM     22  C   UNL     1       2.357   7.397  18.652  0.00  0.00    +0.000 A 
ATOM     23  C   UNL     1       1.962   7.689  19.969  0.00  0.00    +0.000 A 
ATOM     24  C   UNL     1       1.300   8.876  20.288  0.00  0.00    +0.000 A 
ATOM     25  C   UNL     1       1.055   9.824  19.301  0.00  0.00    +0.000 A 
ATOM     26  C   UNL     1       1.496   9.593  18.002  0.00  0.00    +0.000 A 
ATOM     27  C   UNL     1       2.147   8.396  17.681  0.00  0.00    +0.000 A 
ENDBRANCH  15  22
ENDBRANCH   2  15
TORSDOF 7
ENDMDL
MODEL 2
REMARK VINA RESULT:      -8.0      1.091      3.713
REMARK  Name = 
REMARK  9 active torsions:
REMARK  status: ('A' for Active; 'I' for Inactive)
REMARK    1  A    between atoms: C_1  and  C_2
REMARK    2  A    between atoms: C_2  and  C_3
REMARK    3  A    between atoms: C_2  and  C_4
REMARK    4  A    between atoms: C_4  and  C_5
REMARK    5  A    between atoms: C_4  and  N_11
REMARK    6  A    between atoms: C_5  and  N_6
REMARK    7  A    between atoms: C_12  and  C_14
REMARK    8  A    between atoms: C_14  and  C_15
REMARK    9  A    between atoms: C_14  and  C_21
REMARK                            x       y       z     vdW  Elec       q    Type
REMARK                         _______ _______ _______ _____ _____    ______ ____
ROOT
ATOM      1  N   UNL     1       5.133   5.396  18.247  0.00  0.00    +0.000 N 
ATOM      2  C   UNL     1       4.134   6.355  18.197  0.00  0.00    +0.000 C 
ATOM      3  O   UNL     1       4.149   7.210  17.314  0.00  0.00    +0.000 OA
ATOM      4  H   UNL     1       5.189   4.789  19.057  0.00  0.00    +0.000 HD
ENDROOT
BRANCH   1   5
ATOM      5  C   UNL     1       6.232   5.404  17.267  0.00  0.00    +0.000 C 
BRANCH   5   7
ATOM      6  C   UNL     1       7.652   5.773  19.357  0.00  0.00    +0.000 C 
ATOM      7  C   UNL     1       7.514   6.058  17.858  0.00  0.00    +0.000 C 
ATOM      8  C   UNL     1       7.615   7.563  17.595  0.00  0.00    +0.000 C 
ENDBRANCH   5   7
BRANCH   5   9
ATOM      9  C   UNL     1       5.786   6.012  15.912  0.00  0.00    +0.000 C 
BRANCH   9  10
ATOM     10  N   UNL     1       6.192   5.225  14.767  0.00  0.00    +0.000 N 
ATOM     11  C   UNL     1       5.529   4.191  14.179  0.00  0.00    +0.000 A 
ATOM     12  C   UNL     1       6.389   3.777  13.190  0.00  0.00    +0.000 A 
ATOM     13  N   UNL     1       7.501   4.568  13.192  0.00  0.00    +0.000 NA
ATOM     14  N   UNL     1       7.360   5.473  14.151  0.00  0.00    +0.000 NA
ENDBRANCH   9  10
ENDBRANCH   5   9
ENDBRANCH   1   5
BRANCH   2  15
ATOM     15  C   UNL     1       3.106   6.317  19.363  0.00  0.00    +0.000 C 
BRANCH  15  16
ATOM     16  C   UNL     1       2.280   7.605  19.267  0.00  0.00    +0.000 A 
ATOM     17  C   UNL     1       1.684   8.144  20.422  0.00  0.00    +0.000 A 
ATOM     18  C   UNL     1       0.831   9.242  20.338  0.00  0.00    +0.000 A 
ATOM     19  C   UNL     1       0.570   9.828  19.102  0.00  0.00    +0.000 A 
ATOM     20  C   UNL     1       1.182   9.329  17.953  0.00  0.00    +0.000 A 
ATOM     21  C   UNL     1       2.036   8.225  18.032  0.00  0.00    +0.000 A 
ENDBRANCH  15  16
BRANCH  15  22
ATOM     22  C   UNL     1       2.233   5.052  19.443  0.00  0.00    +0.000 A 
ATOM     23  C   UNL     1       1.790   4.495  20.655  0.00  0.00    +0.000 A 
ATOM     24  C   UNL     1       1.083   3.291  20.692  0.00  0.00    +0.000 A 
ATOM     25  C   UNL     1       0.763   2.636  19.509  0.00  0.00    +0.000 A 
ATOM     26  C   UNL     1       1.128   3.198  18.291  0.00  0.00    +0.000 A 
ATOM     27  C   UNL     1       1.849   4.398  18.255  0.00  0.00    +0.000 A 
ENDBRANCH  15  22
ENDBRANCH   2  15
TORSDOF 7
ENDMDL
MODEL 3
REMARK VINA RESULT:      -8.0      1.424      1.716
REMARK  Name = 
REMARK  9 active torsions:
REMARK  status: ('A' for Active; 'I' for Inactive)
REMARK    1  A    between atoms: C_1  and  C_2
REMARK    2  A    between atoms: C_2  and  C_3
REMARK    3  A    between atoms: C_2  and  C_4
REMARK    4  A    between atoms: C_4  and  C_5
REMARK    5  A    between atoms: C_4  and  N_11
REMARK    6  A    between atoms: C_5  and  N_6
REMARK    7  A    between atoms: C_12  and  C_14
REMARK    8  A    between atoms: C_14  and  C_15
REMARK    9  A    between atoms: C_14  and  C_21
REMARK                            x       y       z     vdW  Elec       q    Type
REMARK                         _______ _______ _______ _____ _____    ______ ____
ROOT
ATOM      1  N   UNL     1       4.794   5.555  17.702  0.00  0.00    +0.000 N 
ATOM      2  C   UNL     1       3.782   4.631  17.498  0.00  0.00    +0.000 C 
ATOM      3  O   UNL     1       3.967   3.673  16.750  0.00  0.00    +0.000 OA
ATOM      4  H   UNL     1       4.583   6.410  18.203  0.00  0.00    +0.000 HD
ENDROOT
BRANCH   1   5
ATOM      5  C   UNL     1       6.086   5.419  17.008  0.00  0.00    +0.000 C 
BRANCH   5   7
ATOM      6  C   UNL     1       6.978   5.519  19.399  0.00  0.00    +0.000 C 
ATOM      7  C   UNL     1       7.270   5.834  17.928  0.00  0.00    +0.000 C 
ATOM      8  C   UNL     1       7.684   7.300  17.775  0.00  0.00    +0.000 C 
ENDBRANCH   5   7
BRANCH   5   9
ATOM      9  C   UNL     1       6.078   6.141  15.635  0.00  0.00    +0.000 C 
BRANCH   9  10
ATOM     10  N   UNL     1       6.331   5.255  14.519  0.00  0.00    +0.000 N 
ATOM     11  C   UNL     1       5.594   4.185  14.108  0.00  0.00    +0.000 A 
ATOM     12  C   UNL     1       6.319   3.678  13.057  0.00  0.00    +0.000 A 
ATOM     13  N   UNL     1       7.426   4.449  12.852  0.00  0.00    +0.000 NA
ATOM     14  N   UNL     1       7.412   5.433  13.742  0.00  0.00    +0.000 NA
ENDBRANCH   9  10
ENDBRANCH   5   9
ENDBRANCH   1   5
BRANCH   2  15
ATOM     15  C   UNL     1       2.425   4.957  18.184  0.00  0.00    +0.000 C 
BRANCH  15  16
ATOM     16  C   UNL     1       2.285   3.993  19.368  0.00  0.00    +0.000 A 
ATOM     17  C   UNL     1       1.012   3.710  19.895  0.00  0.00    +0.000 A 
ATOM     18  C   UNL     1       0.872   2.936  21.045  0.00  0.00    +0.000 A 
ATOM     19  C   UNL     1       1.999   2.420  21.679  0.00  0.00    +0.000 A 
ATOM     20  C   UNL     1       3.266   2.661  21.149  0.00  0.00    +0.000 A 
ATOM     21  C   UNL     1       3.412   3.441  19.997  0.00  0.00    +0.000 A 
ENDBRANCH  15  16
BRANCH  15  22
ATOM     22  C   UNL     1       2.214   6.428  18.582  0.00  0.00    +0.000 A 
ATOM     23  C   UNL     1       2.096   6.859  19.915  0.00  0.00    +0.000 A 
ATOM     24  C   UNL     1       1.806   8.187  20.232  0.00  0.00    +0.000 A 
ATOM     25  C   UNL     1       1.672   9.130  19.221  0.00  0.00    +0.000 A 
ATOM     26  C   UNL     1       1.852   8.748  17.895  0.00  0.00    +0.000 A 
ATOM     27  C   UNL     1       2.128   7.413  17.578  0.00  0.00    +0.000 A 
ENDBRANCH  15  22
ENDBRANCH   2  15
TORSDOF 7
ENDMDL
MODEL 4
REMARK VINA RESULT:      -7.9      0.602      1.347
REMARK  Name = 
REMARK  9 active torsions:
REMARK  status: ('A' for Active; 'I' for Inactive)
REMARK    1  A    between atoms: C_1  and  C_2
REMARK    2  A    between atoms: C_2  and  C_3
REMARK    3  A    between atoms: C_2  and  C_4
REMARK    4  A    between atoms: C_4  and  C_5
REMARK    5  A    between atoms: C_4  and  N_11
REMARK    6  A    between atoms: C_5  and  N_6
REMARK    7  A    between atoms: C_12  and  C_14
REMARK    8  A    between atoms: C_14  and  C_15
REMARK    9  A    between atoms: C_14  and  C_21
REMARK                            x       y       z     vdW  Elec       q    Type
REMARK                         _______ _______ _______ _____ _____    ______ ____
ROOT
ATOM      1  N   UNL     1       5.436   5.296  17.916  0.00  0.00    +0.000 N 
ATOM      2  C   UNL     1       4.418   5.531  18.825  0.00  0.00    +0.000 C 
ATOM      3  O   UNL     1       4.640   5.445  20.031  0.00  0.00    +0.000 OA
ATOM      4  H   UNL     1       5.209   5.230  16.931  0.00  0.00    +0.000 HD
ENDROOT
BRANCH   1   5
ATOM      5  C   UNL     1       6.782   4.915  18.377  0.00  0.00    +0.000 C 
BRANCH   5   7
ATOM      6  C   UNL     1       8.019   7.148  18.311  0.00  0.00    +0.000 C 
ATOM      7  C   UNL     1       7.439   6.052  19.212  0.00  0.00    +0.000 C 
ATOM      8  C   UNL     1       8.504   5.558  20.195  0.00  0.00    +0.000 C 
ENDBRANCH   5   7
BRANCH   5   9
ATOM      9  C   UNL     1       7.666   4.405  17.208  0.00  0.00    +0.000 C 
BRANCH   9  10
ATOM     10  N   UNL     1       7.023   4.506  15.916  0.00  0.00    +0.000 N 
ATOM     11  C   UNL     1       6.118   3.655  15.356  0.00  0.00    +0.000 A 
ATOM     12  C   UNL     1       5.895   4.194  14.112  0.00  0.00    +0.000 A 
ATOM     13  N   UNL     1       6.629   5.336  13.970  0.00  0.00    +0.000 NA
ATOM     14  N   UNL     1       7.302   5.533  15.096  0.00  0.00    +0.000 NA
ENDBRANCH   9  10
ENDBRANCH   5   9
ENDBRANCH   1   5
BRANCH   2  15
ATOM     15  C   UNL     1       3.015   5.796  18.209  0.00  0.00    +0.000 C 
BRANCH  15  16
ATOM     16  C   UNL     1       2.117   4.627  18.633  0.00  0.00    +0.000 A 
ATOM     17  C   UNL     1       1.563   4.601  19.925  0.00  0.00    +0.000 A 
ATOM     18  C   UNL     1       0.847   3.492  20.372  0.00  0.00    +0.000 A 
ATOM     19  C   UNL     1       0.661   2.398  19.530  0.00  0.00    +0.000 A 
ATOM     20  C   UNL     1       1.173   2.423  18.234  0.00  0.00    +0.000 A 
ATOM     21  C   UNL     1       1.896   3.532  17.782  0.00  0.00    +0.000 A 
ENDBRANCH  15  16
BRANCH  15  22
ATOM     22  C   UNL     1       2.396   7.169  18.523  0.00  0.00    +0.000 A 
ATOM     23  C   UNL     1       2.222   8.177  17.559  0.00  0.00    +0.000 A 
ATOM     24  C   UNL     1       1.748   9.444  17.903  0.00  0.00    +0.000 A 
ATOM     25  C   UNL     1       1.394   9.722  19.217  0.00  0.00    +0.000 A 
ATOM     26  C   UNL     1       1.489   8.724  20.181  0.00  0.00    +0.000 A 
ATOM     27  C   UNL     1       1.978   7.457  19.838  0.00  0.00    +0.000 A 
ENDBRANCH  15  22
ENDBRANCH   2  15
TORSDOF 7
ENDMDL
MODEL 5
REMARK VINA RESULT:      -7.9      1.073      3.944
REMARK  Name = 
REMARK  9 active torsions:
REMARK  status: ('A' for Active; 'I' for Inactive)
REMARK    1  A    between atoms: C_1  and  C_2
REMARK    2  A    between atoms: C_2  and  C_3
REMARK    3  A    between atoms: C_2  and  C_4
REMARK    4  A    between atoms: C_4  and  C_5
REMARK    5  A    between atoms: C_4  and  N_11
REMARK    6  A    between atoms: C_5  and  N_6
REMARK    7  A    between atoms: C_12  and  C_14
REMARK    8  A    between atoms: C_14  and  C_15
REMARK    9  A    between atoms: C_14  and  C_21
REMARK                            x       y       z     vdW  Elec       q    Type
REMARK                         _______ _______ _______ _____ _____    ______ ____
ROOT
ATOM      1  N   UNL     1       5.125   5.318  18.251  0.00  0.00    +0.000 N 
ATOM      2  C   UNL     1       4.192   6.341  18.280  0.00  0.00    +0.000 C 
ATOM      3  O   UNL     1       4.295   7.289  17.504  0.00  0.00    +0.000 OA
ATOM      4  H   UNL     1       5.111   4.621  18.986  0.00  0.00    +0.000 HD
ENDROOT
BRANCH   1   5
ATOM      5  C   UNL     1       6.262   5.365  17.316  0.00  0.00    +0.000 C 
BRANCH   5   7
ATOM      6  C   UNL     1       7.535   5.738  19.497  0.00  0.00    +0.000 C 
ATOM      7  C   UNL     1       7.523   5.984  17.985  0.00  0.00    +0.000 C 
ATOM      8  C   UNL     1       7.706   7.476  17.691  0.00  0.00    +0.000 C 
ENDBRANCH   5   7
BRANCH   5   9
ATOM      9  C   UNL     1       5.871   6.038  15.974  0.00  0.00    +0.000 C 
BRANCH   9  10
ATOM     10  N   UNL     1       6.152   5.217  14.816  0.00  0.00    +0.000 N 
ATOM     11  C   UNL     1       5.436   4.161  14.338  0.00  0.00    +0.000 A 
ATOM     12  C   UNL     1       6.183   3.720  13.272  0.00  0.00    +0.000 A 
ATOM     13  N   UNL     1       7.282   4.516  13.125  0.00  0.00    +0.000 NA
ATOM     14  N   UNL     1       7.242   5.450  14.065  0.00  0.00    +0.000 NA
ENDBRANCH   9  10
ENDBRANCH   5   9
ENDBRANCH   1   5
BRANCH   2  15
ATOM     15  C   UNL     1       3.116   6.239  19.399  0.00  0.00    +0.000 C 
BRANCH  15  16
ATOM     16  C   UNL     1       2.225   7.480  19.272  0.00  0.00    +0.000 A 
ATOM     17  C   UNL     1       2.038   8.084  18.016  0.00  0.00    +0.000 A 
ATOM     18  C   UNL     1       1.335   9.281  17.897  0.00  0.00    +0.000 A 
ATOM     19  C   UNL     1       0.795   9.886  19.029  0.00  0.00    +0.000 A 
ATOM     20  C   UNL     1       0.939   9.281  20.276  0.00  0.00    +0.000 A 
ATOM     21  C   UNL     1       1.648   8.082  20.401  0.00  0.00    +0.000 A 
ENDBRANCH  15  16
BRANCH  15  22
ATOM     22  C   UNL     1       2.313   4.927  19.436  0.00  0.00    +0.000 A 
ATOM     23  C   UNL     1       1.837   4.280  18.282  0.00  0.00    +0.000 A 
ATOM     24  C   UNL     1       1.028   3.145  18.361  0.00  0.00    +0.000 A 
ATOM     25  C   UNL     1       0.709   2.602  19.599  0.00  0.00    +0.000 A 
ATOM     26  C   UNL     1       1.222   3.180  20.756  0.00  0.00    +0.000 A 
ATOM     27  C   UNL     1       2.022   4.326  20.677  0.00  0.00    +0.000 A 
ENDBRANCH  15  22
ENDBRANCH   2  15
TORSDOF 7
ENDMDL
MODEL 6
REMARK VINA RESULT:      -7.8      1.648      4.750
REMARK  Name = 
REMARK  9 active torsions:
REMARK  status: ('A' for Active; 'I' for Inactive)
REMARK    1  A    between atoms: C_1  and  C_2
REMARK    2  A    between atoms: C_2  and  C_3
REMARK    3  A    between atoms: C_2  and  C_4
REMARK    4  A    between atoms: C_4  and  C_5
REMARK    5  A    between atoms: C_4  and  N_11
REMARK    6  A    between atoms: C_5  and  N_6
REMARK    7  A    between atoms: C_12  and  C_14
REMARK    8  A    between atoms: C_14  and  C_15
REMARK    9  A    between atoms: C_14  and  C_21
REMARK                            x       y       z     vdW  Elec       q    Type
REMARK                         _______ _______ _______ _____ _____    ______ ____
ROOT
ATOM      1  N   UNL     1       5.095   5.485  18.284  0.00  0.00    +0.000 N 
ATOM      2  C   UNL     1       4.049   6.390  18.209  0.00  0.00    +0.000 C 
ATOM      3  O   UNL     1       4.026   7.228  17.310  0.00  0.00    +0.000 OA
ATOM      4  H   UNL     1       5.176   4.897  19.105  0.00  0.00    +0.000 HD
ENDROOT
BRANCH   1   5
ATOM      5  C   UNL     1       6.200   5.532  17.312  0.00  0.00    +0.000 C 
BRANCH   5   7
ATOM      6  C   UNL     1       6.770   4.555  15.022  0.00  0.00    +0.000 C 
ATOM      7  C   UNL     1       6.231   4.254  16.425  0.00  0.00    +0.000 C 
ATOM      8  C   UNL     1       4.880   3.539  16.330  0.00  0.00    +0.000 C 
ENDBRANCH   5   7
BRANCH   5   9
ATOM      9  C   UNL     1       7.554   5.850  17.999  0.00  0.00    +0.000 C 
BRANCH   9  10
ATOM     10  N   UNL     1       7.873   7.261  18.015  0.00  0.00    +0.000 N 
ATOM     11  C   UNL     1       8.628   7.944  18.919  0.00  0.00    +0.000 A 
ATOM     12  C   UNL     1       8.546   9.248  18.491  0.00  0.00    +0.000 A 
ATOM     13  N   UNL     1       7.788   9.308  17.357  0.00  0.00    +0.000 NA
ATOM     14  N   UNL     1       7.398   8.076  17.058  0.00  0.00    +0.000 NA
ENDBRANCH   9  10
ENDBRANCH   5   9
ENDBRANCH   1   5
BRANCH   2  15
ATOM     15  C   UNL     1       3.014   6.320  19.368  0.00  0.00    +0.000 C 
BRANCH  15  16
ATOM     16  C   UNL     1       2.154   7.585  19.271  0.00  0.00    +0.000 A 
ATOM     17  C   UNL     1       1.966   8.211  18.026  0.00  0.00    +0.000 A 
ATOM     18  C   UNL     1       1.292   9.427  17.933  0.00  0.00    +0.000 A 
ATOM     19  C   UNL     1       0.781  10.029  19.080  0.00  0.00    +0.000 A 
ATOM     20  C   UNL     1       0.926   9.403  20.317  0.00  0.00    +0.000 A 
ATOM     21  C   UNL     1       1.606   8.184  20.416  0.00  0.00    +0.000 A 
ENDBRANCH  15  16
BRANCH  15  22
ATOM     22  C   UNL     1       2.177   5.031  19.440  0.00  0.00    +0.000 A 
ATOM     23  C   UNL     1       1.775   4.437  20.648  0.00  0.00    +0.000 A 
ATOM     24  C   UNL     1       1.101   3.215  20.674  0.00  0.00    +0.000 A 
ATOM     25  C   UNL     1       0.772   2.576  19.485  0.00  0.00    +0.000 A 
ATOM     26  C   UNL     1       1.096   3.173  18.271  0.00  0.00    +0.000 A 
ATOM     27  C   UNL     1       1.785   4.391  18.247  0.00  0.00    +0.000 A 
ENDBRANCH  15  22
ENDBRANCH   2  15
TORSDOF 7
ENDMDL
MODEL 7
REMARK VINA RESULT:      -7.8      1.100      3.821
REMARK  Name = 
REMARK  9 active torsions:
REMARK  status: ('A' for Active; 'I' for Inactive)
REMARK    1  A    between atoms: C_1  and  C_2
REMARK    2  A    between atoms: C_2  and  C_3
REMARK    3  A    between atoms: C_2  and  C_4
REMARK    4  A    between atoms: C_4  and  C_5
REMARK    5  A    between atoms: C_4  and  N_11
REMARK    6  A    between atoms: C_5  and  N_6
REMARK    7  A    between atoms: C_12  and  C_14
REMARK    8  A    between atoms: C_14  and  C_15
REMARK    9  A    between atoms: C_14  and  C_21
REMARK                            x       y       z     vdW  Elec       q    Type
REMARK                         _______ _______ _______ _____ _____    ______ ____
ROOT
ATOM      1  N   UNL     1       5.409   6.175  18.500  0.00  0.00    +0.000 N 
ATOM      2  C   UNL     1       4.456   5.200  18.743  0.00  0.00    +0.000 C 
ATOM      3  O   UNL     1       4.456   4.163  18.082  0.00  0.00    +0.000 OA
ATOM      4  H   UNL     1       5.312   7.078  18.949  0.00  0.00    +0.000 HD
ENDROOT
BRANCH   1   5
ATOM      5  C   UNL     1       6.413   5.996  17.437  0.00  0.00    +0.000 C 
BRANCH   5   7
ATOM      6  C   UNL     1       8.185   6.322  19.246  0.00  0.00    +0.000 C 
ATOM      7  C   UNL     1       7.765   6.667  17.814  0.00  0.00    +0.000 C 
ATOM      8  C   UNL     1       7.775   8.186  17.613  0.00  0.00    +0.000 C 
ENDBRANCH   5   7
BRANCH   5   9
ATOM      9  C   UNL     1       5.863   6.429  16.052  0.00  0.00    +0.000 C 
BRANCH   9  10
ATOM     10  N   UNL     1       6.116   5.463  15.006  0.00  0.00    +0.000 N 
ATOM     11  C   UNL     1       5.312   4.449  14.583  0.00  0.00    +0.000 A 
ATOM     12  C   UNL     1       6.066   3.816  13.624  0.00  0.00    +0.000 A 
ATOM     13  N   UNL     1       7.259   4.464  13.480  0.00  0.00    +0.000 NA
ATOM     14  N   UNL     1       7.271   5.492  14.318  0.00  0.00    +0.000 NA
ENDBRANCH   9  10
ENDBRANCH   5   9
ENDBRANCH   1   5
BRANCH   2  15
ATOM     15  C   UNL     1       3.375   5.564  19.800  0.00  0.00    +0.000 C 
BRANCH  15  16
ATOM     16  C   UNL     1       2.672   6.831  19.297  0.00  0.00    +0.000 A 
ATOM     17  C   UNL     1       2.839   7.242  17.963  0.00  0.00    +0.000 A 
ATOM     18  C   UNL     1       2.311   8.453  17.519  0.00  0.00    +0.000 A 
ATOM     19  C   UNL     1       1.596   9.264  18.396  0.00  0.00    +0.000 A 
ATOM     20  C   UNL     1       1.390   8.853  19.712  0.00  0.00    +0.000 A 
ATOM     21  C   UNL     1       1.922   7.641  20.164  0.00  0.00    +0.000 A 
ENDBRANCH  15  16
BRANCH  15  22
ATOM     22  C   UNL     1       2.391   4.439  20.165  0.00  0.00    +0.000 A 
ATOM     23  C   UNL     1       2.353   3.825  21.429  0.00  0.00    +0.000 A 
ATOM     24  C   UNL     1       1.513   2.741  21.691  0.00  0.00    +0.000 A 
ATOM     25  C   UNL     1       0.656   2.270  20.704  0.00  0.00    +0.000 A 
ATOM     26  C   UNL     1       0.621   2.901  19.465  0.00  0.00    +0.000 A 
ATOM     27  C   UNL     1       1.474   3.979  19.198  0.00  0.00    +0.000 A 
ENDBRANCH  15  22
ENDBRANCH   2  15
TORSDOF 7
ENDMDL
MODEL 8
REMARK VINA RESULT:      -7.8      1.575      3.176
REMARK  Name = 
REMARK  9 active torsions:
REMARK  status: ('A' for Active; 'I' for Inactive)
REMARK    1  A    between atoms: C_1  and  C_2
REMARK    2  A    between atoms: C_2  and  C_3
REMARK    3  A    between atoms: C_2  and  C_4
REMARK    4  A    between atoms: C_4  and  C_5
REMARK    5  A    between atoms: C_4  and  N_11
REMARK    6  A    between atoms: C_5  and  N_6
REMARK    7  A    between atoms: C_12  and  C_14
REMARK    8  A    between atoms: C_14  and  C_15
REMARK    9  A    between atoms: C_14  and  C_21
REMARK                            x       y       z     vdW  Elec       q    Type
REMARK                         _______ _______ _______ _____ _____    ______ ____
ROOT
ATOM      1  N   UNL     1       4.685   5.395  16.213  0.00  0.00    +0.000 N 
ATOM      2  C   UNL     1       4.207   6.393  17.046  0.00  0.00    +0.000 C 
ATOM      3  O   UNL     1       4.945   7.318  17.382  0.00  0.00    +0.000 OA
ATOM      4  H   UNL     1       4.117   4.571  16.060  0.00  0.00    +0.000 HD
ENDROOT
BRANCH   1   5
ATOM      5  C   UNL     1       6.081   5.413  15.744  0.00  0.00    +0.000 C 
BRANCH   5   7
ATOM      6  C   UNL     1       5.522   3.731  13.906  0.00  0.00    +0.000 C 
ATOM      7  C   UNL     1       6.174   5.080  14.227  0.00  0.00    +0.000 C 
ATOM      8  C   UNL     1       7.602   5.120  13.674  0.00  0.00    +0.000 C 
ENDBRANCH   5   7
BRANCH   5   9
ATOM      9  C   UNL     1       6.996   4.534  16.636  0.00  0.00    +0.000 C 
BRANCH   9  10
ATOM     10  N   UNL     1       7.335   5.154  17.899  0.00  0.00    +0.000 N 
ATOM     11  C   UNL     1       7.920   6.366  18.112  0.00  0.00    +0.000 A 
ATOM     12  C   UNL     1       8.064   6.419  19.478  0.00  0.00    +0.000 A 
ATOM     13  N   UNL     1       7.553   5.283  20.036  0.00  0.00    +0.000 NA
ATOM     14  N   UNL     1       7.084   4.520  19.057  0.00  0.00    +0.000 NA
ENDBRANCH   9  10
ENDBRANCH   5   9
ENDBRANCH   1   5
BRANCH   2  15
ATOM     15  C   UNL     1       2.759   6.191  17.576  0.00  0.00    +0.000 C 
BRANCH  15  16
ATOM     16  C   UNL     1       2.723   4.816  18.253  0.00  0.00    +0.000 A 
ATOM     17  C   UNL     1       1.653   3.938  18.002  0.00  0.00    +0.000 A 
ATOM     18  C   UNL     1       1.537   2.737  18.699  0.00  0.00    +0.000 A 
ATOM     19  C   UNL     1       2.495   2.387  19.646  0.00  0.00    +0.000 A 
ATOM     20  C   UNL     1       3.582   3.228  19.880  0.00  0.00    +0.000 A 
ATOM     21  C   UNL     1       3.700   4.437  19.186  0.00  0.00    +0.000 A 
ENDBRANCH  15  16
BRANCH  15  22
ATOM     22  C   UNL     1       2.213   7.314  18.475  0.00  0.00    +0.000 A 
ATOM     23  C   UNL     1       2.093   7.198  19.870  0.00  0.00    +0.000 A 
ATOM     24  C   UNL     1       1.502   8.202  20.640  0.00  0.00    +0.000 A 
ATOM     25  C   UNL     1       1.055   9.370  20.036  0.00  0.00    +0.000 A 
ATOM     26  C   UNL     1       1.223   9.544  18.666  0.00  0.00    +0.000 A 
ATOM     27  C   UNL     1       1.802   8.531  17.893  0.00  0.00    +0.000 A 
ENDBRANCH  15  22
ENDBRANCH   2  15
TORSDOF 7
ENDMDL
MODEL 9
REMARK VINA RESULT:      -7.7      1.512      4.782
REMARK  Name = 
REMARK  9 active torsions:
REMARK  status: ('A' for Active; 'I' for Inactive)
REMARK    1  A    between atoms: C_1  and  C_2
REMARK    2  A    between atoms: C_2  and  C_3
REMARK    3  A    between atoms: C_2  and  C_4
REMARK    4  A    between atoms: C_4  and  C_5
REMARK    5  A    between atoms: C_4  and  N_11
REMARK    6  A    between atoms: C_5  and  N_6
REMARK    7  A    between atoms: C_12  and  C_14
REMARK    8  A    between atoms: C_14  and  C_15
REMARK    9  A    between atoms: C_14  and  C_21
REMARK                            x       y       z     vdW  Elec       q    Type
REMARK                         _______ _______ _______ _____ _____    ______ ____
ROOT
ATOM      1  N   UNL     1       4.578   5.404  17.683  0.00  0.00    +0.000 N 
ATOM      2  C   UNL     1       3.930   6.572  18.051  0.00  0.00    +0.000 C 
ATOM      3  O   UNL     1       4.151   7.616  17.440  0.00  0.00    +0.000 OA
ATOM      4  H   UNL     1       4.497   4.590  18.280  0.00  0.00    +0.000 HD
ENDROOT
BRANCH   1   5
ATOM      5  C   UNL     1       5.554   5.403  16.579  0.00  0.00    +0.000 C 
BRANCH   5   7
ATOM      6  C   UNL     1       4.594   3.077  16.143  0.00  0.00    +0.000 C 
ATOM      7  C   UNL     1       5.195   4.335  15.507  0.00  0.00    +0.000 C 
ATOM      8  C   UNL     1       6.369   3.957  14.598  0.00  0.00    +0.000 C 
ENDBRANCH   5   7
BRANCH   5   9
ATOM      9  C   UNL     1       7.011   5.300  17.103  0.00  0.00    +0.000 C 
BRANCH   9  10
ATOM     10  N   UNL     1       7.543   6.562  17.570  0.00  0.00    +0.000 N 
ATOM     11  C   UNL     1       8.189   6.822  18.741  0.00  0.00    +0.000 A 
ATOM     12  C   UNL     1       8.412   8.178  18.693  0.00  0.00    +0.000 A 
ATOM     13  N   UNL     1       7.933   8.677  17.516  0.00  0.00    +0.000 NA
ATOM     14  N   UNL     1       7.421   7.671  16.821  0.00  0.00    +0.000 NA
ENDBRANCH   9  10
ENDBRANCH   5   9
ENDBRANCH   1   5
BRANCH   2  15
ATOM     15  C   UNL     1       3.025   6.470  19.312  0.00  0.00    +0.000 C 
BRANCH  15  16
ATOM     16  C   UNL     1       2.084   7.680  19.280  0.00  0.00    +0.000 A 
ATOM     17  C   UNL     1       1.790   8.308  18.057  0.00  0.00    +0.000 A 
ATOM     18  C   UNL     1       1.038   9.480  18.019  0.00  0.00    +0.000 A 
ATOM     19  C   UNL     1       0.555  10.035  19.201  0.00  0.00    +0.000 A 
ATOM     20  C   UNL     1       0.805   9.405  20.419  0.00  0.00    +0.000 A 
ATOM     21  C   UNL     1       1.564   8.231  20.462  0.00  0.00    +0.000 A 
ENDBRANCH  15  16
BRANCH  15  22
ATOM     22  C   UNL     1       2.280   5.137  19.493  0.00  0.00    +0.000 A 
ATOM     23  C   UNL     1       1.727   4.409  18.425  0.00  0.00    +0.000 A 
ATOM     24  C   UNL     1       0.973   3.254  18.640  0.00  0.00    +0.000 A 
ATOM     25  C   UNL     1       0.789   2.772  19.930  0.00  0.00    +0.000 A 
ATOM     26  C   UNL     1       1.382   3.432  21.001  0.00  0.00    +0.000 A 
ATOM     27  C   UNL     1       2.126   4.598  20.787  0.00  0.00    +0.000 A 
ENDBRANCH  15  22
ENDBRANCH   2  15
TORSDOF 7
ENDMDL
