MODEL 1
REMARK VINA RESULT:      -8.7      0.000      0.000
REMARK  Name = 
REMARK  4 active torsions:
REMARK  status: ('A' for Active; 'I' for Inactive)
REMARK    1  A    between atoms: C_2  and  C_11
REMARK    2  A    between atoms: N_3  and  C_4
REMARK    3  A    between atoms: C_12  and  O_13
REMARK    4  A    between atoms: C_20  and  O_21
REMARK                            x       y       z     vdW  Elec       q    Type
REMARK                         _______ _______ _______ _____ _____    ______ ____
ROOT
ATOM      1  C   UNL     1       4.266   5.499  17.599  0.00  0.00    +0.000 C 
ATOM      2  C   UNL     1       4.434   4.362  18.325  0.00  0.00    +0.000 C 
ATOM      3  C   UNL     1       3.833   4.125  19.676  0.00  0.00    +0.000 C 
ATOM      4  C   UNL     1       2.952   5.239  20.206  0.00  0.00    +0.000 C 
ATOM      5  N   UNL     1       2.866   6.400  19.352  0.00  0.00    +0.000 N 
ATOM      6  C   UNL     1       3.470   6.561  18.120  0.00  0.00    +0.000 A 
ATOM      7  N   UNL     1       3.154   7.748  17.618  0.00  0.00    +0.000 NA
ATOM      8  C   UNL     1       2.299   8.331  18.541  0.00  0.00    +0.000 A 
ATOM      9  C   UNL     1       1.627   9.567  18.517  0.00  0.00    +0.000 A 
ATOM     10  C   UNL     1       0.803   9.936  19.586  0.00  0.00    +0.000 A 
ATOM     11  C   UNL     1       0.644   9.083  20.679  0.00  0.00    +0.000 A 
ATOM     12  C   UNL     1       1.297   7.846  20.729  0.00  0.00    +0.000 A 
ATOM     13  C   UNL     1       2.113   7.506  19.642  0.00  0.00    +0.000 A 
ENDROOT
BRANCH   1  15
ATOM     14  O   UNL     1       5.097   6.643  15.726  0.00  0.00    +0.000 OA
ATOM     15  C   UNL     1       4.923   5.536  16.244  0.00  0.00    +0.000 C 
ATOM     16  N   UNL     1       5.232   4.345  15.627  0.00  0.00    +0.000 N 
ATOM     17  H   UNL     1       4.952   3.480  16.086  0.00  0.00    +0.000 HD
BRANCH  16  18
ATOM     18  C   UNL     1       5.783   4.240  14.316  0.00  0.00    +0.000 A 
ATOM     19  C   UNL     1       5.119   3.608  13.254  0.00  0.00    +0.000 A 
ATOM     20  C   UNL     1       5.721   3.461  12.002  0.00  0.00    +0.000 A 
ATOM     21  C   UNL     1       6.998   3.963  11.780  0.00  0.00    +0.000 A 
ATOM     22  C   UNL     1       7.663   4.627  12.811  0.00  0.00    +0.000 A 
ATOM     23  C   UNL     1       7.053   4.766  14.062  0.00  0.00    +0.000 A 
ATOM     24  F   UNL     1       7.729   5.388  15.041  0.00  0.00    +0.000 F 
ENDBRANCH  16  18
ENDBRANCH   1  15
BRANCH   2  25
ATOM     25  O   UNL     1       5.171   3.261  17.915  0.00  0.00    +0.000 OA
ATOM     26  H   UNL     1       5.994   3.207  18.456  0.00  0.00    +0.000 HD
ENDBRANCH   2  25
BRANCH   9  27
ATOM     27  O   UNL     1       1.742  10.433  17.457  0.00  0.00    +0.000 OA
ATOM     28  H   UNL     1       2.634  10.266  17.092  0.00  0.00    +0.000 HD
ENDBRANCH   9  27
TORSDOF 4
ENDMDL
MODEL 2
REMARK VINA RESULT:      -8.6      2.703      7.292
REMARK  Name = 
REMARK  4 active torsions:
REMARK  status: ('A' for Active; 'I' for Inactive)
REMARK    1  A    between atoms: C_2  and  C_11
REMARK    2  A    between atoms: N_3  and  C_4
REMARK    3  A    between atoms: C_12  and  O_13
REMARK    4  A    between atoms: C_20  and  O_21
REMARK                            x       y       z     vdW  Elec       q    Type
REMARK                         _______ _______ _______ _____ _____    ______ ____
ROOT
ATOM      1  C   UNL     1       2.713   4.820  19.791  0.00  0.00    +0.000 C 
ATOM      2  C   UNL     1       2.749   3.696  20.555  0.00  0.00    +0.000 C 
ATOM      3  C   UNL     1       3.575   2.487  20.241  0.00  0.00    +0.000 C 
ATOM      4  C   UNL     1       4.442   2.589  19.002  0.00  0.00    +0.000 C 
ATOM      5  N   UNL     1       4.303   3.823  18.266  0.00  0.00    +0.000 N 
ATOM      6  C   UNL     1       3.500   4.896  18.604  0.00  0.00    +0.000 A 
ATOM      7  N   UNL     1       3.640   5.860  17.705  0.00  0.00    +0.000 NA
ATOM      8  C   UNL     1       4.586   5.398  16.802  0.00  0.00    +0.000 A 
ATOM      9  C   UNL     1       5.150   6.012  15.669  0.00  0.00    +0.000 A 
ATOM     10  C   UNL     1       6.104   5.330  14.905  0.00  0.00    +0.000 A 
ATOM     11  C   UNL     1       6.499   4.040  15.263  0.00  0.00    +0.000 A 
ATOM     12  C   UNL     1       5.958   3.405  16.386  0.00  0.00    +0.000 A 
ATOM     13  C   UNL     1       5.007   4.117  17.130  0.00  0.00    +0.000 A 
ENDROOT
BRANCH   1  15
ATOM     14  O   UNL     1       0.729   5.656  20.725  0.00  0.00    +0.000 OA
ATOM     15  C   UNL     1       1.848   5.946  20.291  0.00  0.00    +0.000 C 
ATOM     16  N   UNL     1       2.313   7.237  20.178  0.00  0.00    +0.000 N 
ATOM     17  H   UNL     1       3.204   7.386  19.707  0.00  0.00    +0.000 HD
BRANCH  16  18
ATOM     18  C   UNL     1       1.564   8.395  20.540  0.00  0.00    +0.000 A 
ATOM     19  C   UNL     1       1.265   8.731  21.869  0.00  0.00    +0.000 A 
ATOM     20  C   UNL     1       0.468   9.834  22.181  0.00  0.00    +0.000 A 
ATOM     21  C   UNL     1      -0.033  10.641  21.166  0.00  0.00    +0.000 A 
ATOM     22  C   UNL     1       0.281  10.348  19.838  0.00  0.00    +0.000 A 
ATOM     23  C   UNL     1       1.078   9.238  19.537  0.00  0.00    +0.000 A 
ATOM     24  F   UNL     1       1.341   8.967  18.248  0.00  0.00    +0.000 F 
ENDBRANCH  16  18
ENDBRANCH   1  15
BRANCH   2  25
ATOM     25  O   UNL     1       2.042   3.516  21.734  0.00  0.00    +0.000 OA
ATOM     26  H   UNL     1       2.580   2.964  22.349  0.00  0.00    +0.000 HD
ENDBRANCH   2  25
BRANCH   9  27
ATOM     27  O   UNL     1       4.802   7.285  15.286  0.00  0.00    +0.000 OA
ATOM     28  H   UNL     1       4.474   7.191  14.370  0.00  0.00    +0.000 HD
ENDBRANCH   9  27
TORSDOF 4
ENDMDL
MODEL 3
REMARK VINA RESULT:      -8.6      2.870      7.441
REMARK  Name = 
REMARK  4 active torsions:
REMARK  status: ('A' for Active; 'I' for Inactive)
REMARK    1  A    between atoms: C_2  and  C_11
REMARK    2  A    between atoms: N_3  and  C_4
REMARK    3  A    between atoms: C_12  and  O_13
REMARK    4  A    between atoms: C_20  and  O_21
REMARK                            x       y       z     vdW  Elec       q    Type
REMARK                         _______ _______ _______ _____ _____    ______ ____
ROOT
ATOM      1  C   UNL     1       2.281   4.945  19.121  0.00  0.00    +0.000 C 
ATOM      2  C   UNL     1       1.563   3.793  19.202  0.00  0.00    +0.000 C 
ATOM      3  C   UNL     1       1.845   2.564  18.395  0.00  0.00    +0.000 C 
ATOM      4  C   UNL     1       3.045   2.645  17.473  0.00  0.00    +0.000 C 
ATOM      5  N   UNL     1       3.714   3.924  17.462  0.00  0.00    +0.000 N 
ATOM      6  C   UNL     1       3.385   5.031  18.222  0.00  0.00    +0.000 A 
ATOM      7  N   UNL     1       4.229   6.020  17.961  0.00  0.00    +0.000 NA
ATOM      8  C   UNL     1       5.135   5.509  17.045  0.00  0.00    +0.000 A 
ATOM      9  C   UNL     1       6.264   6.096  16.445  0.00  0.00    +0.000 A 
ATOM     10  C   UNL     1       7.035   5.363  15.536  0.00  0.00    +0.000 A 
ATOM     11  C   UNL     1       6.689   4.049  15.220  0.00  0.00    +0.000 A 
ATOM     12  C   UNL     1       5.573   3.437  15.803  0.00  0.00    +0.000 A 
ATOM     13  C   UNL     1       4.825   4.198  16.710  0.00  0.00    +0.000 A 
ENDROOT
BRANCH   1  15
ATOM     14  O   UNL     1       1.545   5.763  21.194  0.00  0.00    +0.000 OA
ATOM     15  C   UNL     1       1.866   6.063  20.040  0.00  0.00    +0.000 C 
ATOM     16  N   UNL     1       1.801   7.342  19.537  0.00  0.00    +0.000 N 
ATOM     17  H   UNL     1       1.981   7.477  18.543  0.00  0.00    +0.000 HD
BRANCH  16  18
ATOM     18  C   UNL     1       1.351   8.474  20.277  0.00  0.00    +0.000 A 
ATOM     19  C   UNL     1       1.313   8.509  21.679  0.00  0.00    +0.000 A 
ATOM     20  C   UNL     1       0.798   9.610  22.368  0.00  0.00    +0.000 A 
ATOM     21  C   UNL     1       0.325  10.712  21.666  0.00  0.00    +0.000 A 
ATOM     22  C   UNL     1       0.385  10.715  20.272  0.00  0.00    +0.000 A 
ATOM     23  C   UNL     1       0.901   9.607  19.592  0.00  0.00    +0.000 A 
ATOM     24  F   UNL     1       0.921   9.630  18.249  0.00  0.00    +0.000 F 
ENDBRANCH  16  18
ENDBRANCH   1  15
BRANCH   2  25
ATOM     25  O   UNL     1       0.484   3.590  20.049  0.00  0.00    +0.000 OA
ATOM     26  H   UNL     1      -0.020   2.800  19.740  0.00  0.00    +0.000 HD
ENDBRANCH   2  25
BRANCH   9  27
ATOM     27  O   UNL     1       6.652   7.381  16.736  0.00  0.00    +0.000 OA
ATOM     28  H   UNL     1       6.270   7.927  16.020  0.00  0.00    +0.000 HD
ENDBRANCH   9  27
TORSDOF 4
ENDMDL
MODEL 4
REMARK VINA RESULT:      -8.4      2.340      3.917
REMARK  Name = 
REMARK  4 active torsions:
REMARK  status: ('A' for Active; 'I' for Inactive)
REMARK    1  A    between atoms: C_2  and  C_11
REMARK    2  A    between atoms: N_3  and  C_4
REMARK    3  A    between atoms: C_12  and  O_13
REMARK    4  A    between atoms: C_20  and  O_21
REMARK                            x       y       z     vdW  Elec       q    Type
REMARK                         _______ _______ _______ _____ _____    ______ ____
ROOT
ATOM      1  C   UNL     1       4.767   4.997  16.218  0.00  0.00    +0.000 C 
ATOM      2  C   UNL     1       5.074   6.320  16.161  0.00  0.00    +0.000 C 
ATOM      3  C   UNL     1       4.517   7.358  17.085  0.00  0.00    +0.000 C 
ATOM      4  C   UNL     1       3.588   6.842  18.167  0.00  0.00    +0.000 C 
ATOM      5  N   UNL     1       3.327   5.424  18.113  0.00  0.00    +0.000 N 
ATOM      6  C   UNL     1       3.861   4.522  17.212  0.00  0.00    +0.000 A 
ATOM      7  N   UNL     1       3.409   3.304  17.476  0.00  0.00    +0.000 NA
ATOM      8  C   UNL     1       2.602   3.436  18.596  0.00  0.00    +0.000 A 
ATOM      9  C   UNL     1       1.893   2.472  19.336  0.00  0.00    +0.000 A 
ATOM     10  C   UNL     1       1.138   2.860  20.448  0.00  0.00    +0.000 A 
ATOM     11  C   UNL     1       1.083   4.203  20.827  0.00  0.00    +0.000 A 
ATOM     12  C   UNL     1       1.780   5.183  20.113  0.00  0.00    +0.000 A 
ATOM     13  C   UNL     1       2.528   4.760  19.006  0.00  0.00    +0.000 A 
ENDROOT
BRANCH   1  15
ATOM     14  O   UNL     1       6.264   3.277  15.661  0.00  0.00    +0.000 OA
ATOM     15  C   UNL     1       5.457   4.102  15.223  0.00  0.00    +0.000 C 
ATOM     16  N   UNL     1       5.207   4.289  13.883  0.00  0.00    +0.000 N 
ATOM     17  H   UNL     1       4.608   5.067  13.610  0.00  0.00    +0.000 HD
BRANCH  16  18
ATOM     18  C   UNL     1       5.850   3.564  12.837  0.00  0.00    +0.000 A 
ATOM     19  C   UNL     1       5.296   2.420  12.244  0.00  0.00    +0.000 A 
ATOM     20  C   UNL     1       5.989   1.694  11.271  0.00  0.00    +0.000 A 
ATOM     21  C   UNL     1       7.248   2.111  10.856  0.00  0.00    +0.000 A 
ATOM     22  C   UNL     1       7.804   3.266  11.406  0.00  0.00    +0.000 A 
ATOM     23  C   UNL     1       7.104   3.985  12.381  0.00  0.00    +0.000 A 
ATOM     24  F   UNL     1       7.676   5.078  12.909  0.00  0.00    +0.000 F 
ENDBRANCH  16  18
ENDBRANCH   1  15
BRANCH   2  25
ATOM     25  O   UNL     1       5.951   6.891  15.251  0.00  0.00    +0.000 OA
ATOM     26  H   UNL     1       6.298   6.186  14.656  0.00  0.00    +0.000 HD
ENDBRANCH   2  25
BRANCH   9  27
ATOM     27  O   UNL     1       1.928   1.139  19.009  0.00  0.00    +0.000 OA
ATOM     28  H   UNL     1       2.758   1.025  18.505  0.00  0.00    +0.000 HD
ENDBRANCH   9  27
TORSDOF 4
ENDMDL
MODEL 5
REMARK VINA RESULT:      -8.4      1.262      1.468
REMARK  Name = 
REMARK  4 active torsions:
REMARK  status: ('A' for Active; 'I' for Inactive)
REMARK    1  A    between atoms: C_2  and  C_11
REMARK    2  A    between atoms: N_3  and  C_4
REMARK    3  A    between atoms: C_12  and  O_13
REMARK    4  A    between atoms: C_20  and  O_21
REMARK                            x       y       z     vdW  Elec       q    Type
REMARK                         _______ _______ _______ _____ _____    ______ ____
ROOT
ATOM      1  C   UNL     1       3.526   4.415  18.579  0.00  0.00    +0.000 C 
ATOM      2  C   UNL     1       3.433   3.445  19.528  0.00  0.00    +0.000 C 
ATOM      3  C   UNL     1       2.772   3.626  20.858  0.00  0.00    +0.000 C 
ATOM      4  C   UNL     1       2.142   4.983  21.100  0.00  0.00    +0.000 C 
ATOM      5  N   UNL     1       2.323   5.933  20.027  0.00  0.00    +0.000 N 
ATOM      6  C   UNL     1       2.968   5.705  18.827  0.00  0.00    +0.000 A 
ATOM      7  N   UNL     1       2.925   6.799  18.080  0.00  0.00    +0.000 NA
ATOM      8  C   UNL     1       2.199   7.726  18.812  0.00  0.00    +0.000 A 
ATOM      9  C   UNL     1       1.810   9.041  18.500  0.00  0.00    +0.000 A 
ATOM     10  C   UNL     1       1.066   9.788  19.421  0.00  0.00    +0.000 A 
ATOM     11  C   UNL     1       0.708   9.234  20.651  0.00  0.00    +0.000 A 
ATOM     12  C   UNL     1       1.078   7.927  20.988  0.00  0.00    +0.000 A 
ATOM     13  C   UNL     1       1.820   7.206  20.043  0.00  0.00    +0.000 A 
ENDROOT
BRANCH   1  15
ATOM     14  O   UNL     1       4.270   2.830  17.017  0.00  0.00    +0.000 OA
ATOM     15  C   UNL     1       4.199   4.032  17.288  0.00  0.00    +0.000 C 
ATOM     16  N   UNL     1       4.754   5.025  16.513  0.00  0.00    +0.000 N 
ATOM     17  H   UNL     1       4.741   5.978  16.871  0.00  0.00    +0.000 HD
BRANCH  16  18
ATOM     18  C   UNL     1       5.484   4.791  15.311  0.00  0.00    +0.000 A 
ATOM     19  C   UNL     1       4.947   4.114  14.206  0.00  0.00    +0.000 A 
ATOM     20  C   UNL     1       5.716   3.840  13.072  0.00  0.00    +0.000 A 
ATOM     21  C   UNL     1       7.040   4.258  13.012  0.00  0.00    +0.000 A 
ATOM     22  C   UNL     1       7.587   4.964  14.084  0.00  0.00    +0.000 A 
ATOM     23  C   UNL     1       6.809   5.231  15.215  0.00  0.00    +0.000 A 
ATOM     24  F   UNL     1       7.371   5.890  16.241  0.00  0.00    +0.000 F 
ENDBRANCH  16  18
ENDBRANCH   1  15
BRANCH   2  25
ATOM     25  O   UNL     1       3.922   2.155  19.392  0.00  0.00    +0.000 OA
ATOM     26  H   UNL     1       3.810   1.868  18.455  0.00  0.00    +0.000 HD
ENDBRANCH   2  25
BRANCH   9  27
ATOM     27  O   UNL     1       2.127   9.624  17.298  0.00  0.00    +0.000 OA
ATOM     28  H   UNL     1       1.704   9.056  16.624  0.00  0.00    +0.000 HD
ENDBRANCH   9  27
TORSDOF 4
ENDMDL
MODEL 6
REMARK VINA RESULT:      -8.0      3.877      8.374
REMARK  Name = 
REMARK  4 active torsions:
REMARK  status: ('A' for Active; 'I' for Inactive)
REMARK    1  A    between atoms: C_2  and  C_11
REMARK    2  A    between atoms: N_3  and  C_4
REMARK    3  A    between atoms: C_12  and  O_13
REMARK    4  A    between atoms: C_20  and  O_21
REMARK                            x       y       z     vdW  Elec       q    Type
REMARK                         _______ _______ _______ _____ _____    ______ ____
ROOT
ATOM      1  C   UNL     1       2.264   7.758  18.940  0.00  0.00    +0.000 C 
ATOM      2  C   UNL     1       2.873   8.248  17.827  0.00  0.00    +0.000 C 
ATOM      3  C   UNL     1       3.889   7.501  17.022  0.00  0.00    +0.000 C 
ATOM      4  C   UNL     1       4.194   6.093  17.493  0.00  0.00    +0.000 C 
ATOM      5  N   UNL     1       3.499   5.693  18.693  0.00  0.00    +0.000 N 
ATOM      6  C   UNL     1       2.584   6.447  19.404  0.00  0.00    +0.000 A 
ATOM      7  N   UNL     1       2.138   5.751  20.440  0.00  0.00    +0.000 NA
ATOM      8  C   UNL     1       2.758   4.513  20.357  0.00  0.00    +0.000 A 
ATOM      9  C   UNL     1       2.635   3.368  21.165  0.00  0.00    +0.000 A 
ATOM     10  C   UNL     1       3.378   2.220  20.869  0.00  0.00    +0.000 A 
ATOM     11  C   UNL     1       4.243   2.205  19.774  0.00  0.00    +0.000 A 
ATOM     12  C   UNL     1       4.384   3.327  18.950  0.00  0.00    +0.000 A 
ATOM     13  C   UNL     1       3.624   4.459  19.273  0.00  0.00    +0.000 A 
ENDROOT
BRANCH   1  15
ATOM     14  O   UNL     1       0.311   9.059  18.896  0.00  0.00    +0.000 OA
ATOM     15  C   UNL     1       1.241   8.647  19.596  0.00  0.00    +0.000 C 
ATOM     16  N   UNL     1       1.427   9.009  20.911  0.00  0.00    +0.000 N 
ATOM     17  H   UNL     1       2.281   8.707  21.376  0.00  0.00    +0.000 HD
BRANCH  16  18
ATOM     18  C   UNL     1       0.577   9.905  21.624  0.00  0.00    +0.000 A 
ATOM     19  C   UNL     1      -0.293   9.489  22.643  0.00  0.00    +0.000 A 
ATOM     20  C   UNL     1      -1.162  10.385  23.270  0.00  0.00    +0.000 A 
ATOM     21  C   UNL     1      -1.165  11.725  22.904  0.00  0.00    +0.000 A 
ATOM     22  C   UNL     1      -0.283  12.169  21.918  0.00  0.00    +0.000 A 
ATOM     23  C   UNL     1       0.582  11.264  21.294  0.00  0.00    +0.000 A 
ATOM     24  F   UNL     1       1.400  11.716  20.331  0.00  0.00    +0.000 F 
ENDBRANCH  16  18
ENDBRANCH   1  15
BRANCH   2  25
ATOM     25  O   UNL     1       2.630   9.497  17.277  0.00  0.00    +0.000 OA
ATOM     26  H   UNL     1       3.440  10.052  17.374  0.00  0.00    +0.000 HD
ENDBRANCH   2  25
BRANCH   9  27
ATOM     27  O   UNL     1       1.786   3.332  22.244  0.00  0.00    +0.000 OA
ATOM     28  H   UNL     1       0.920   3.069  21.874  0.00  0.00    +0.000 HD
ENDBRANCH   9  27
TORSDOF 4
ENDMDL
MODEL 7
REMARK VINA RESULT:      -7.9      0.924      1.332
REMARK  Name = 
REMARK  4 active torsions:
REMARK  status: ('A' for Active; 'I' for Inactive)
REMARK    1  A    between atoms: C_2  and  C_11
REMARK    2  A    between atoms: N_3  and  C_4
REMARK    3  A    between atoms: C_12  and  O_13
REMARK    4  A    between atoms: C_20  and  O_21
REMARK                            x       y       z     vdW  Elec       q    Type
REMARK                         _______ _______ _______ _____ _____    ______ ____
ROOT
ATOM      1  C   UNL     1       4.494   5.614  17.652  0.00  0.00    +0.000 C 
ATOM      2  C   UNL     1       4.608   4.459  18.360  0.00  0.00    +0.000 C 
ATOM      3  C   UNL     1       3.881   4.176  19.638  0.00  0.00    +0.000 C 
ATOM      4  C   UNL     1       2.936   5.264  20.110  0.00  0.00    +0.000 C 
ATOM      5  N   UNL     1       2.916   6.448  19.284  0.00  0.00    +0.000 N 
ATOM      6  C   UNL     1       3.635   6.652  18.121  0.00  0.00    +0.000 A 
ATOM      7  N   UNL     1       3.352   7.848  17.624  0.00  0.00    +0.000 NA
ATOM      8  C   UNL     1       2.402   8.394  18.474  0.00  0.00    +0.000 A 
ATOM      9  C   UNL     1       1.718   9.621  18.418  0.00  0.00    +0.000 A 
ATOM     10  C   UNL     1       0.787   9.950  19.411  0.00  0.00    +0.000 A 
ATOM     11  C   UNL     1       0.535   9.063  20.459  0.00  0.00    +0.000 A 
ATOM     12  C   UNL     1       1.198   7.834  20.539  0.00  0.00    +0.000 A 
ATOM     13  C   UNL     1       2.122   7.536  19.528  0.00  0.00    +0.000 A 
ENDROOT
BRANCH   1  15
ATOM     14  O   UNL     1       5.649   6.817  16.000  0.00  0.00    +0.000 OA
ATOM     15  C   UNL     1       5.280   5.699  16.370  0.00  0.00    +0.000 C 
ATOM     16  N   UNL     1       5.488   4.547  15.646  0.00  0.00    +0.000 N 
ATOM     17  H   UNL     1       5.052   3.687  15.976  0.00  0.00    +0.000 HD
BRANCH  16  18
ATOM     18  C   UNL     1       6.145   4.501  14.382  0.00  0.00    +0.000 A 
ATOM     19  C   UNL     1       7.394   5.096  14.144  0.00  0.00    +0.000 A 
ATOM     20  C   UNL     1       7.974   5.092  12.873  0.00  0.00    +0.000 A 
ATOM     21  C   UNL     1       7.323   4.473  11.813  0.00  0.00    +0.000 A 
ATOM     22  C   UNL     1       6.098   3.843  12.032  0.00  0.00    +0.000 A 
ATOM     23  C   UNL     1       5.524   3.855  13.308  0.00  0.00    +0.000 A 
ATOM     24  F   UNL     1       4.332   3.263  13.482  0.00  0.00    +0.000 F 
ENDBRANCH  16  18
ENDBRANCH   1  15
BRANCH   2  25
ATOM     25  O   UNL     1       5.398   3.380  17.994  0.00  0.00    +0.000 OA
ATOM     26  H   UNL     1       5.182   3.127  17.065  0.00  0.00    +0.000 HD
ENDBRANCH   2  25
BRANCH   9  27
ATOM     27  O   UNL     1       1.922  10.519  17.399  0.00  0.00    +0.000 OA
ATOM     28  H   UNL     1       2.035  11.383  17.843  0.00  0.00    +0.000 HD
ENDBRANCH   9  27
TORSDOF 4
ENDMDL
MODEL 8
REMARK VINA RESULT:      -7.9      4.680      6.184
REMARK  Name = 
REMARK  4 active torsions:
REMARK  status: ('A' for Active; 'I' for Inactive)
REMARK    1  A    between atoms: C_2  and  C_11
REMARK    2  A    between atoms: N_3  and  C_4
REMARK    3  A    between atoms: C_12  and  O_13
REMARK    4  A    between atoms: C_20  and  O_21
REMARK                            x       y       z     vdW  Elec       q    Type
REMARK                         _______ _______ _______ _____ _____    ______ ____
ROOT
ATOM      1  C   UNL     1       2.027   8.212  19.108  0.00  0.00    +0.000 C 
ATOM      2  C   UNL     1       2.480   8.729  17.934  0.00  0.00    +0.000 C 
ATOM      3  C   UNL     1       2.237  10.135  17.481  0.00  0.00    +0.000 C 
ATOM      4  C   UNL     1       1.467  11.012  18.448  0.00  0.00    +0.000 C 
ATOM      5  N   UNL     1       1.025  10.345  19.649  0.00  0.00    +0.000 N 
ATOM      6  C   UNL     1       1.267   9.030  19.996  0.00  0.00    +0.000 A 
ATOM      7  N   UNL     1       0.723   8.771  21.178  0.00  0.00    +0.000 NA
ATOM      8  C   UNL     1       0.160   9.964  21.602  0.00  0.00    +0.000 A 
ATOM      9  C   UNL     1      -0.514  10.289  22.793  0.00  0.00    +0.000 A 
ATOM     10  C   UNL     1      -0.997  11.587  22.993  0.00  0.00    +0.000 A 
ATOM     11  C   UNL     1      -0.814  12.564  22.013  0.00  0.00    +0.000 A 
ATOM     12  C   UNL     1      -0.144  12.272  20.820  0.00  0.00    +0.000 A 
ATOM     13  C   UNL     1       0.329  10.963  20.653  0.00  0.00    +0.000 A 
ENDROOT
BRANCH   1  15
ATOM     14  O   UNL     1       3.559   6.435  19.148  0.00  0.00    +0.000 OA
ATOM     15  C   UNL     1       2.403   6.785  19.405  0.00  0.00    +0.000 C 
ATOM     16  N   UNL     1       1.434   5.931  19.881  0.00  0.00    +0.000 N 
ATOM     17  H   UNL     1       0.481   6.283  19.959  0.00  0.00    +0.000 HD
BRANCH  16  18
ATOM     18  C   UNL     1       1.639   4.542  20.128  0.00  0.00    +0.000 A 
ATOM     19  C   UNL     1       2.057   4.037  21.369  0.00  0.00    +0.000 A 
ATOM     20  C   UNL     1       2.316   2.677  21.553  0.00  0.00    +0.000 A 
ATOM     21  C   UNL     1       2.142   1.786  20.501  0.00  0.00    +0.000 A 
ATOM     22  C   UNL     1       1.693   2.259  19.268  0.00  0.00    +0.000 A 
ATOM     23  C   UNL     1       1.439   3.624  19.093  0.00  0.00    +0.000 A 
ATOM     24  F   UNL     1       1.032   4.052  17.887  0.00  0.00    +0.000 F 
ENDBRANCH  16  18
ENDBRANCH   1  15
BRANCH   2  25
ATOM     25  O   UNL     1       3.238   8.035  17.004  0.00  0.00    +0.000 OA
ATOM     26  H   UNL     1       2.847   7.138  16.878  0.00  0.00    +0.000 HD
ENDBRANCH   2  25
BRANCH   9  27
ATOM     27  O   UNL     1      -0.707   9.365  23.791  0.00  0.00    +0.000 OA
ATOM     28  H   UNL     1      -0.859   8.519  23.325  0.00  0.00    +0.000 HD
ENDBRANCH   9  27
TORSDOF 4
ENDMDL
MODEL 9
REMARK VINA RESULT:      -7.9      3.460      5.307
REMARK  Name = 
REMARK  4 active torsions:
REMARK  status: ('A' for Active; 'I' for Inactive)
REMARK    1  A    between atoms: C_2  and  C_11
REMARK    2  A    between atoms: N_3  and  C_4
REMARK    3  A    between atoms: C_12  and  O_13
REMARK    4  A    between atoms: C_20  and  O_21
REMARK                            x       y       z     vdW  Elec       q    Type
REMARK                         _______ _______ _______ _____ _____    ______ ____
ROOT
ATOM      1  C   UNL     1       1.975   8.190  18.961  0.00  0.00    +0.000 C 
ATOM      2  C   UNL     1       2.491   8.772  17.845  0.00  0.00    +0.000 C 
ATOM      3  C   UNL     1       2.328  10.218  17.494  0.00  0.00    +0.000 C 
ATOM      4  C   UNL     1       1.567  11.056  18.502  0.00  0.00    +0.000 C 
ATOM      5  N   UNL     1       1.055  10.322  19.635  0.00  0.00    +0.000 N 
ATOM      6  C   UNL     1       1.224   8.974  19.886  0.00  0.00    +0.000 A 
ATOM      7  N   UNL     1       0.630   8.653  21.027  0.00  0.00    +0.000 NA
ATOM      8  C   UNL     1       0.108   9.837  21.526  0.00  0.00    +0.000 A 
ATOM      9  C   UNL     1      -0.590  10.102  22.718  0.00  0.00    +0.000 A 
ATOM     10  C   UNL     1      -1.020  11.403  23.003  0.00  0.00    +0.000 A 
ATOM     11  C   UNL     1      -0.759  12.441  22.107  0.00  0.00    +0.000 A 
ATOM     12  C   UNL     1      -0.063  12.209  20.916  0.00  0.00    +0.000 A 
ATOM     13  C   UNL     1       0.354  10.895  20.663  0.00  0.00    +0.000 A 
ENDROOT
BRANCH   1  15
ATOM     14  O   UNL     1       2.887   6.405  20.181  0.00  0.00    +0.000 OA
ATOM     15  C   UNL     1       2.276   6.728  19.158  0.00  0.00    +0.000 C 
ATOM     16  N   UNL     1       1.917   5.840  18.169  0.00  0.00    +0.000 N 
ATOM     17  H   UNL     1       1.513   6.214  17.312  0.00  0.00    +0.000 HD
BRANCH  16  18
ATOM     18  C   UNL     1       2.212   4.446  18.196  0.00  0.00    +0.000 A 
ATOM     19  C   UNL     1       1.378   3.497  18.808  0.00  0.00    +0.000 A 
ATOM     20  C   UNL     1       1.736   2.148  18.877  0.00  0.00    +0.000 A 
ATOM     21  C   UNL     1       2.931   1.715  18.316  0.00  0.00    +0.000 A 
ATOM     22  C   UNL     1       3.760   2.634  17.672  0.00  0.00    +0.000 A 
ATOM     23  C   UNL     1       3.394   3.983  17.610  0.00  0.00    +0.000 A 
ATOM     24  F   UNL     1       4.225   4.847  17.005  0.00  0.00    +0.000 F 
ENDBRANCH  16  18
ENDBRANCH   1  15
BRANCH   2  25
ATOM     25  O   UNL     1       3.247   8.115  16.887  0.00  0.00    +0.000 OA
ATOM     26  H   UNL     1       3.974   8.711  16.590  0.00  0.00    +0.000 HD
ENDBRANCH   2  25
BRANCH   9  27
ATOM     27  O   UNL     1      -0.859   9.115  23.635  0.00  0.00    +0.000 OA
ATOM     28  H   UNL     1      -1.788   9.265  23.901  0.00  0.00    +0.000 HD
ENDBRANCH   9  27
TORSDOF 4
ENDMDL
